@<TRIPOS>MOLECULE
3R540
247   249    1
SMALL
USER_CHARGES


@<TRIPOS>ATOM
      1 CA          1.2091  -11.8173  -47.7297 C.3       0 UNK        -0.1800 
      2 C           2.7117  -11.9632  -47.5376 C.2       0 UNK         0.5000 
      3 O           3.2571  -11.4621  -46.5545 O.2       0 UNK        -0.5000 
      4 N           3.3828  -12.6763  -48.4534 N.am      1 UNK        -0.5000 
      5 CA          4.8291  -12.9557  -48.4423 C.3       1 UNK         0.1400 
      6 C6          5.3348  -13.5291  -49.7952 C.3       23 UNK        -0.0398 
      7 S7          4.3976  -14.8851  -50.6047 S.3       23 UNK        -0.2404 
      8 C8          3.7104  -15.9127  -49.2641 C.3       23 UNK        -0.0205 
      9 C9          2.9421  -17.1069  -49.8064 C.ar      23 UNK        -0.0193 
     10 C10         1.8207  -16.9064  -50.6156 C.ar      23 UNK        -0.1150 
     11 C11         1.1124  -17.9942  -51.1276 C.ar      23 UNK        -0.0193 
     12 C12         1.5047  -19.2926  -50.7900 C.ar      23 UNK        -0.1150 
     13 C13         2.6166  -19.5104  -49.9697 C.ar      23 UNK        -0.0193 
     14 C14         3.3396  -18.4103  -49.4930 C.ar      23 UNK        -0.1150 
     15 C15         3.0363  -20.9390  -49.6308 C.3       23 UNK        -0.0205 
     16 S16         3.4365  -21.2063  -47.8677 S.3       23 UNK        -0.2404 
     17 C17         1.9037  -20.6700  -47.0373 C.3       23 UNK        -0.0398 
     18 CA          0.9780  -21.8342  -46.6120 C.3       11 UNK         0.1400 
     19 N           0.0254  -21.4067  -45.5840 N.am      11 UNK        -0.5000 
     20 C          -0.8226  -22.2073  -44.9244 C.2       10 UNK         0.5000 
     21 O          -0.8472  -23.4303  -45.0533 O.2       10 UNK        -0.5000 
     22 CA         -1.8510  -21.5214  -44.0050 C.3       10 UNK         0.1400 
     23 CB         -1.2419  -21.2116  -42.6298 C.3       10 UNK        -0.1800 
     24 N          -2.3992  -20.2980  -44.5951 N.am      10 UNK        -0.5000 
     25 C          -3.1575  -20.2717  -45.7008 C.2       9 UNK         0.5000 
     26 O          -3.5333  -21.2851  -46.2892 O.2       9 UNK        -0.5000 
     27 CA         -3.5199  -18.8878  -46.2727 C.3       9 UNK         0.1400 
     28 CB         -4.7237  -18.2888  -45.5309 C.3       9 UNK        -0.1800 
     29 N          -2.3985  -17.9467  -46.2386 N.am      9 UNK        -0.5000 
     30 C          -1.2492  -18.1080  -46.9106 C.2       8 UNK         0.5000 
     31 O          -1.0418  -19.0447  -47.6792 O.2       8 UNK        -0.5000 
     32 CA         -0.1169  -17.1026  -46.6181 C.3       8 UNK         0.1400 
     33 CB         -0.2808  -15.8143  -47.4377 C.3       8 UNK        -0.1800 
     34 N          -0.0193  -16.7782  -45.1925 N.am      8 UNK        -0.5000 
     35 C           0.3153  -17.6650  -44.2429 C.2       7 UNK         0.5000 
     36 O           0.6460  -18.8242  -44.4848 O.2       7 UNK        -0.5000 
     37 CA          0.2044  -17.2066  -42.7782 C.3       7 UNK         0.1400 
     38 CB          1.4674  -16.4688  -42.3133 C.3       7 UNK        -0.1800 
     39 N          -0.9704  -16.3653  -42.5619 N.am      7 UNK        -0.5000 
     40 C          -2.2295  -16.8247  -42.5645 C.2       6 UNK         0.5000 
     41 O          -2.5207  -18.0125  -42.7002 O.2       6 UNK        -0.5000 
     42 CA         -3.3485  -15.7748  -42.4356 C.3       6 UNK         0.1400 
     43 CB         -3.6357  -15.4710  -40.9579 C.3       6 UNK        -0.1800 
     44 N          -3.0286  -14.5281  -43.1330 N.am      6 UNK        -0.5000 
     45 C          -2.9085  -14.4105  -44.4636 C.2       5 UNK         0.5000 
     46 O          -3.1088  -15.3341  -45.2503 O.2       5 UNK        -0.5000 
     47 CA         -2.4240  -13.0490  -44.9951 C.3       5 UNK         0.1400 
     48 CB         -3.6097  -12.0992  -45.2176 C.3       5 UNK        -0.1800 
     49 N          -1.4516  -12.4174  -44.0991 N.am      5 UNK        -0.5000 
     50 C          -0.2240  -12.8977  -43.8677 C.2       4 UNK         0.5000 
     51 O           0.2380  -13.8991  -44.4229 O.2       4 UNK        -0.5000 
     52 CA          0.5993  -12.1762  -42.7964 C.3       4 UNK         0.1400 
     53 CB          0.3053  -12.7630  -41.4027 C.3       4 UNK        -0.1800 
     54 N           2.0099  -12.3197  -43.1295 N.am      4 UNK        -0.5000 
     55 C           3.0118  -11.5851  -42.6352 C.2       3 UNK         0.5000 
     56 O           2.8563  -10.7293  -41.7623 O.2       3 UNK        -0.5000 
     57 CA          4.4123  -11.7915  -43.2457 C.3       3 UNK         0.1400 
     58 CB          5.5240  -11.8727  -42.1784 C.3       3 UNK        -0.1800 
     59 N           4.4885  -12.8899  -44.2171 N.am      3 UNK        -0.5000 
     60 C           4.5653  -14.2130  -43.9999 C.2       2 UNK         0.5000 
     61 O           4.5735  -14.7247  -42.8809 O.2       2 UNK        -0.5000 
     62 CA          4.6301  -15.1250  -45.2473 C.3       2 UNK         0.1400 
     63 CB          3.5990  -16.2609  -45.1780 C.3       2 UNK        -0.1800 
     64 N           4.3962  -14.3883  -46.4874 N.am      2 UNK        -0.5000 
     65 C           5.3280  -13.7779  -47.2296 C.2       1 UNK         0.5000 
     66 O           6.5322  -13.8191  -46.9766 O.2       1 UNK        -0.5000 
     67 C           0.2603  -22.4730  -47.8207 C.2       11 UNK         0.5000 
     68 O           0.6578  -23.5515  -48.2613 O.2       11 UNK        -0.5000 
     69 N          -0.8138  -21.8275  -48.2988 N.am      12 UNK        -0.5000 
     70 CA         -1.6908  -22.3373  -49.3528 C.3       12 UNK         0.1400 
     71 CB         -2.7467  -21.2837  -49.7091 C.3       12 UNK        -0.1800 
     72 C          -2.3612  -23.6655  -48.9666 C.2       12 UNK         0.5000 
     73 O          -2.3293  -24.6065  -49.7574 O.2       12 UNK        -0.5000 
     74 N          -2.9050  -23.7372  -47.7432 N.am      13 UNK        -0.5000 
     75 CA         -3.5210  -24.9396  -47.1813 C.3       13 UNK         0.1400 
     76 CB         -4.1729  -24.6062  -45.8315 C.3       13 UNK        -0.1800 
     77 C          -2.5319  -26.1127  -47.0441 C.2       13 UNK         0.5000 
     78 O          -2.8847  -27.2412  -47.3866 O.2       13 UNK        -0.5000 
     79 N          -1.2984  -25.8246  -46.6038 N.am      14 UNK        -0.5000 
     80 CA         -0.1923  -26.7839  -46.5292 C.3       14 UNK         0.1400 
     81 CB          0.9857  -26.1514  -45.7730 C.3       14 UNK        -0.1800 
     82 C           0.2567  -27.2963  -47.9127 C.2       14 UNK         0.5000 
     83 O           0.6231  -28.4651  -48.0384 O.2       14 UNK        -0.5000 
     84 N           0.1778  -26.4293  -48.9308 N.am      15 UNK        -0.5000 
     85 CA          0.4120  -26.7498  -50.3410 C.3       15 UNK         0.1400 
     86 CB          0.7947  -25.4581  -51.0835 C.3       15 UNK        -0.1800 
     87 C          -0.7876  -27.4472  -51.0236 C.2       15 UNK         0.5000 
     88 O          -0.6812  -27.8000  -52.1990 O.2       15 UNK        -0.5000 
     89 N          -1.8962  -27.6321  -50.2899 N.am      16 UNK        -0.5000 
     90 CA         -3.1680  -28.2323  -50.7054 C.3       16 UNK         0.1400 
     91 CB         -2.9817  -29.7072  -51.1203 C.3       16 UNK        -0.1800 
     92 C          -3.9383  -27.3977  -51.7516 C.2       16 UNK         0.5000 
     93 O          -4.7109  -27.9561  -52.5333 O.2       16 UNK        -0.5000 
     94 N          -3.7410  -26.0750  -51.7319 N.am      17 UNK        -0.5000 
     95 CA         -4.4948  -25.0981  -52.5112 C.3       17 UNK         0.1400 
     96 CB         -3.5220  -24.0237  -53.0266 C.3       17 UNK        -0.1800 
     97 C          -5.5780  -24.4547  -51.6295 C.2       17 UNK         0.5000 
     98 O          -5.4665  -24.4576  -50.4008 O.2       17 UNK        -0.5000 
     99 N          -6.5981  -23.8761  -52.2731 N.am      18 UNK        -0.5000 
    100 CA        -7.5765  -23.0090  -51.6191 C.3       18 UNK         0.1400 
    101 CB        -8.8007  -22.8463  -52.5331 C.3       18 UNK        -0.1800 
    102 C         -6.9339  -21.6420  -51.3386 C.2       18 UNK         0.5000 
    103 O         -6.2763  -21.0994  -52.2278 O.2       18 UNK        -0.5000 
    104 N         -7.1498  -21.0889  -50.1393 N.am      19 UNK        -0.5000 
    105 CA        -6.5541  -19.8237  -49.6909 C.3       19 UNK         0.1400 
    106 CB        -6.8867  -19.6078  -48.2081 C.3       19 UNK        -0.1800 
    107 C         -6.9640  -18.5928  -50.5253 C.2       19 UNK         0.5000 
    108 O         -6.1985  -17.6320  -50.5985 O.2       19 UNK        -0.5000 
    109 N         -8.1454  -18.6533  -51.1561 N.am      20 UNK        -0.5000 
    110 CA        -8.6488  -17.6352  -52.0799 C.3       20 UNK         0.1400 
    111 CB       -10.1417  -17.8881  -52.3405 C.3       20 UNK        -0.1800 
    112 C         -7.8685  -17.5905  -53.4090 C.2       20 UNK         0.5000 
    113 O         -7.7149  -16.5120  -53.9834 O.2       20 UNK        -0.5000 
    114 N         -7.3878  -18.7544  -53.8676 N.am      21 UNK        -0.5000 
    115 CA        -6.5353  -18.8907  -55.0493 C.3       21 UNK         0.1400 
    116 CB        -6.7809  -20.2656  -55.6912 C.3       21 UNK        -0.1800 
    117 C         -5.0498  -18.7252  -54.6855 C.2       21 UNK         0.5000 
    118 O         -4.2851  -18.1590  -55.4672 O.2       21 UNK        -0.5000 
    119 N         -4.6731  -19.2357  -53.5078 N.am      22 UNK        -0.5000 
    120 CA        -3.3383  -19.2498  -52.8952 C.3       22 UNK         0.1400 
    121 C         -2.3103  -20.1794  -53.6052 C.2       22 UNK         0.5000 
    122 N         -2.2806  -20.2327  -54.9297 N.am      22 UNK        -0.7600 
    123 O         -1.5466  -20.8782  -52.9466 O.2       22 UNK        -0.5000 
    124 C124       -2.7803  -17.8227  -52.6432 C.3       23 UNK        -0.0398 
    125 S125       -1.6429  -17.7431  -51.2183 S.3       23 UNK        -0.2404 
    126 C126       -0.0458  -17.7679  -52.0831 C.3       23 UNK        -0.0205 
    127 H127        0.6792  -12.2585  -46.8854 H         1 UNK         0.0600 
    128 H128        0.8668  -12.3102  -48.6400 H         1 UNK         0.0600 
    129 H129        0.9391  -10.7631  -47.7901 H         1 UNK         0.0600 
    130 H130        2.8833  -13.0508  -49.2480 H         1 UNK         0.3000 
    131 H131        5.3146  -11.9843  -48.3245 H         1 UNK         0.0600 
    132 H132        5.3538  -12.7119  -50.5176 H         1 UNK         0.0800 
    133 H133        6.3771  -13.8435  -49.7146 H         1 UNK         0.0800 
    134 H134        3.0209  -15.3306  -48.6553 H         1 UNK         0.0800 
    135 H135        4.5215  -16.2465  -48.6156 H         1 UNK         0.0800 
    136 H136        1.5147  -15.9006  -50.8673 H         1 UNK         0.1150 
    137 H137        0.9465  -20.1328  -51.1802 H         1 UNK         0.1150 
    138 H138        4.2075  -18.5713  -48.8692 H         1 UNK         0.1150 
    139 H139        2.2568  -21.6459  -49.9194 H         1 UNK         0.0800 
    140 H140        3.9128  -21.1921  -50.2281 H         1 UNK         0.0800 
    141 H141        1.3707  -19.9441  -47.6497 H         1 UNK         0.0800 
    142 H142        2.2252  -20.1203  -46.1522 H         1 UNK         0.0800 
    143 H143        1.5970  -22.6086  -46.1540 H         1 UNK         0.0600 
    144 H144        0.0204  -20.4155  -45.3610 H         1 UNK         0.3000 
    145 H145       -2.6785  -22.2178  -43.8556 H         1 UNK         0.0600 
    146 H146       -1.9818  -20.7711  -41.9613 H         1 UNK         0.0600 
    147 H147       -0.8736  -22.1214  -42.1542 H         1 UNK         0.0600 
    148 H148       -0.4040  -20.5191  -42.7037 H         1 UNK         0.0600 
    149 H149       -2.1863  -19.4252  -44.1241 H         1 UNK         0.3000 
    150 H150       -3.8022  -19.0273  -47.3184 H         1 UNK         0.0600 
    151 H151       -5.5717  -18.9744  -45.5414 H         1 UNK         0.0600 
    152 H152       -5.0491  -17.3579  -45.9954 H         1 UNK         0.0600 
    153 H153       -4.4919  -18.0781  -44.4879 H         1 UNK         0.0600 
    154 H154       -2.5230  -17.1081  -45.6785 H         1 UNK         0.3000 
    155 H155        0.8243  -17.5683  -46.9186 H         1 UNK         0.0600 
    156 H156       -1.2073  -15.2951  -47.1945 H         1 UNK         0.0600 
    157 H157        0.5462  -15.1263  -47.2613 H         1 UNK         0.0600 
    158 H158       -0.2998  -16.0358  -48.5058 H         1 UNK         0.0600 
    159 H159       -0.2273  -15.8235  -44.9213 H         1 UNK         0.3000 
    160 H160        0.0999  -18.1011  -42.1603 H         1 UNK         0.0600 
    161 H161        1.6461  -15.5587  -42.8851 H         1 UNK         0.0600 
    162 H162        2.3476  -17.1032  -42.4186 H         1 UNK         0.0600 
    163 H163        1.3971  -16.1938  -41.2611 H         1 UNK         0.0600 
    164 H164       -0.8142  -15.3725  -42.4853 H         1 UNK         0.3000 
    165 H165       -4.2532  -16.1927  -42.8818 H         1 UNK         0.0600 
    166 H166       -4.4745  -14.7825  -40.8529 H         1 UNK         0.0600 
    167 H167       -3.8946  -16.3817  -40.4161 H         1 UNK         0.0600 
    168 H168       -2.7721  -15.0273  -40.4609 H         1 UNK         0.0600 
    169 H169       -2.8574  -13.7155  -42.5600 H         1 UNK         0.3000 
    170 H170       -1.9388  -13.2207  -45.9583 H         1 UNK         0.0600 
    171 H171       -4.3398  -12.5404  -45.8976 H         1 UNK         0.0600 
    172 H172       -4.1261  -11.8707  -44.2845 H         1 UNK         0.0600 
    173 H173       -3.2828  -11.1581  -45.6603 H         1 UNK         0.0600 
    174 H174       -1.7601  -11.5900  -43.6087 H         1 UNK         0.3000 
    175 H175        0.3386  -11.1159  -42.8113 H         1 UNK         0.0600 
    176 H176        0.6067  -13.8079  -41.3338 H         1 UNK         0.0600 
    177 H177        0.8323  -12.2154  -40.6215 H         1 UNK         0.0600 
    178 H178       -0.7583  -12.7096  -41.1678 H         1 UNK         0.0600 
    179 H179        2.2011  -12.9902  -43.8622 H         1 UNK         0.3000 
    180 H180        4.6026  -10.8904  -43.8304 H         1 UNK         0.0600 
    181 H181        5.3497  -12.6807  -41.4678 H         1 UNK         0.0600 
    182 H182        5.5791  -10.9472  -41.6042 H         1 UNK         0.0600 
    183 H183        6.5014  -12.0279  -42.6351 H         1 UNK         0.0600 
    184 H184        4.4154  -12.5847  -45.1811 H         1 UNK         0.3000 
    185 H185        5.6261  -15.5718  -45.2704 H         1 UNK         0.0600 
    186 H186        3.7674  -16.8942  -44.3071 H         1 UNK         0.0600 
    187 H187        2.5857  -15.8659  -45.1179 H         1 UNK         0.0600 
    188 H188        3.6551  -16.9039  -46.0568 H         1 UNK         0.0600 
    189 H189        3.4309  -14.2616  -46.7523 H         1 UNK         0.3000 
    190 H190       -1.0404  -20.9097  -47.9229 H         1 UNK         0.3000 
    191 H191       -1.0763  -22.5136  -50.2380 H         1 UNK         0.0600 
    192 H192       -3.4030  -21.0601  -48.8697 H         1 UNK         0.0600 
    193 H193       -3.3750  -21.6279  -50.5314 H         1 UNK         0.0600 
    194 H194       -2.2728  -20.3534  -50.0177 H         1 UNK         0.0600 
    195 H195       -2.9271  -22.8999  -47.1676 H         1 UNK         0.3000 
    196 H196       -4.3095  -25.2524  -47.8691 H         1 UNK         0.0600 
    197 H197       -4.6759  -25.4797  -45.4152 H         1 UNK         0.0600 
    198 H198       -4.9203  -23.8198  -45.9390 H         1 UNK         0.0600 
    199 H199       -3.4379  -24.2709  -45.1001 H         1 UNK         0.0600 
    200 H200       -1.1015  -24.8784  -46.2877 H         1 UNK         0.3000 
    201 H201       -0.5388  -27.6460  -45.9557 H         1 UNK         0.0600 
    202 H202        0.6934  -25.8551  -44.7655 H         1 UNK         0.0600 
    203 H203        1.3647  -25.2664  -46.2843 H         1 UNK         0.0600 
    204 H204        1.8129  -26.8559  -45.6783 H         1 UNK         0.0600 
    205 H205       -0.0820  -25.4696  -48.7282 H         1 UNK         0.3000 
    206 H206        1.2592  -27.4356  -50.4041 H         1 UNK         0.0600 
    207 H207        1.6598  -24.9800  -50.6235 H         1 UNK         0.0600 
    208 H208        1.0527  -25.6638  -52.1230 H         1 UNK         0.0600 
    209 H209       -0.0222  -24.7366  -51.0864 H         1 UNK         0.0600 
    210 H210       -1.8878  -27.2789  -49.3411 H         1 UNK         0.3000 
    211 H211       -3.7965  -28.2284  -49.8141 H         1 UNK         0.0600 
    212 H212       -2.4341  -29.8002  -52.0583 H         1 UNK         0.0600 
    213 H213       -3.9453  -30.1993  -51.2567 H         1 UNK         0.0600 
    214 H214       -2.4398  -30.2659  -50.3571 H         1 UNK         0.0600 
    215 H215       -3.1491  -25.6788  -51.0032 H         1 UNK         0.3000 
    216 H216       -4.9742  -25.5767  -53.3675 H         1 UNK         0.0600 
    217 H217       -4.0411  -23.2733  -53.6245 H         1 UNK         0.0600 
    218 H218       -2.7482  -24.4629  -53.6562 H         1 UNK         0.0600 
    219 H219       -3.0259  -23.5002  -52.2086 H         1 UNK         0.0600 
    220 H220       -6.6063  -23.8766  -53.2825 H         1 UNK         0.3000 
    221 H221       -7.8964  -23.4647  -50.6795 H         1 UNK         0.0600 
    222 H222       -8.5362  -22.3893  -53.4878 H         1 UNK         0.0600 
    223 H223       -9.2669  -23.8095  -52.7410 H         1 UNK         0.0600 
    224 H224       -9.5566  -22.2145  -52.0650 H         1 UNK         0.0600 
    225 H225       -7.7084  -21.5874  -49.4614 H         1 UNK         0.3000 
    226 H226       -5.4703  -19.9191  -49.7828 H         1 UNK         0.0600 
    227 H227       -6.4569  -20.3959  -47.5891 H         1 UNK         0.0600 
    228 H228       -6.4831  -18.6588  -47.8536 H         1 UNK         0.0600 
    229 H229       -7.9633  -19.5896  -48.0351 H         1 UNK         0.0600 
    230 H230       -8.7177  -19.4739  -51.0240 H         1 UNK         0.3000 
    231 H231       -8.5464  -16.6587  -51.6014 H         1 UNK         0.0600 
    232 H232      -10.5544  -17.1319  -53.0096 H         1 UNK         0.0600 
    233 H233      -10.7160  -17.8491  -51.4147 H         1 UNK         0.0600 
    234 H234      -10.3115  -18.8620  -52.8013 H         1 UNK         0.0600 
    235 H235       -7.5137  -19.5855  -53.3064 H         1 UNK         0.3000 
    236 H236       -6.7934  -18.1230  -55.7819 H         1 UNK         0.0600 
    237 H237       -7.8237  -20.3807  -55.9872 H         1 UNK         0.0600 
    238 H238       -6.1725  -20.3911  -56.5878 H         1 UNK         0.0600 
    239 H239       -6.5342  -21.0815  -55.0107 H         1 UNK         0.0600 
    240 H240       -5.3636  -19.7835  -52.9986 H         1 UNK         0.3000 
    241 H241       -3.5263  -19.6986  -51.9213 H         1 UNK         0.0600 
    242 H242       -2.8919  -19.6270  -55.4642 H         1 UNK         0.3800 
    243 H243       -1.6258  -20.8402  -55.3955 H         1 UNK         0.3800 
    244 H244       -2.3076  -17.4160  -53.5388 H         1 UNK         0.0800 
    245 H245       -3.6035  -17.1450  -52.4119 H         1 UNK         0.0800 
    246 H246       -0.0418  -18.5533  -52.8392 H         1 UNK         0.0800 
    247 H247        0.0851  -16.8278  -52.6211 H         1 UNK         0.0800 
@<TRIPOS>BOND
     1    1    2 1    
     2    1  127 1    
     3    1  128 1    
     4    1  129 1    
     5    2    3 2    
     6    2    4 am   BACKBONE|DICT|INTERRES
     7    4    5 1    
     8    4  130 1    
     9    5    6 1    
    10    5   65 1    
    11    5  131 1    
    12    6    7 1    
    13    6  132 1    
    14    6  133 1    
    15    7    8 1    
    16    8    9 1    
    17    8  134 1    
    18    8  135 1    
    19    9   10 ar   
    20    9   14 ar   
    21   10   11 ar   
    22   10  136 1    
    23   11   12 ar   
    24   11  126 1    
    25   12   13 ar   
    26   12  137 1    
    27   13   14 ar   
    28   13   15 1    
    29   14  138 1    
    30   15   16 1    
    31   15  139 1    
    32   15  140 1    
    33   16   17 1    
    34   17   18 1    
    35   17  141 1    
    36   17  142 1    
    37   18   19 1    
    38   18   67 1    
    39   18  143 1    
    40   19   20 am   BACKBONE|DICT|INTERRES
    41   19  144 1    
    42   20   21 2    
    43   20   22 1    
    44   22   23 1    
    45   22   24 1    
    46   22  145 1    
    47   23  146 1    
    48   23  147 1    
    49   23  148 1    
    50   24   25 am   BACKBONE|DICT|INTERRES
    51   24  149 1    
    52   25   26 2    
    53   25   27 1    
    54   27   28 1    
    55   27   29 1    
    56   27  150 1    
    57   28  151 1    
    58   28  152 1    
    59   28  153 1    
    60   29   30 am   BACKBONE|DICT|INTERRES
    61   29  154 1    
    62   30   31 2    
    63   30   32 1    
    64   32   33 1    
    65   32   34 1    
    66   32  155 1    
    67   33  156 1    
    68   33  157 1    
    69   33  158 1    
    70   34   35 am   BACKBONE|DICT|INTERRES
    71   34  159 1    
    72   35   36 2    
    73   35   37 1    
    74   37   38 1    
    75   37   39 1    
    76   37  160 1    
    77   38  161 1    
    78   38  162 1    
    79   38  163 1    
    80   39   40 am   BACKBONE|DICT|INTERRES
    81   39  164 1    
    82   40   41 2    
    83   40   42 1    
    84   42   43 1    
    85   42   44 1    
    86   42  165 1    
    87   43  166 1    
    88   43  167 1    
    89   43  168 1    
    90   44   45 am   BACKBONE|DICT|INTERRES
    91   44  169 1    
    92   45   46 2    
    93   45   47 1    
    94   47   48 1    
    95   47   49 1    
    96   47  170 1    
    97   48  171 1    
    98   48  172 1    
    99   48  173 1    
   100   49   50 am   BACKBONE|DICT|INTERRES
   101   49  174 1    
   102   50   51 2    
   103   50   52 1    
   104   52   53 1    
   105   52   54 1    
   106   52  175 1    
   107   53  176 1    
   108   53  177 1    
   109   53  178 1    
   110   54   55 am   BACKBONE|DICT|INTERRES
   111   54  179 1    
   112   55   56 2    
   113   55   57 1    
   114   57   58 1    
   115   57   59 1    
   116   57  180 1    
   117   58  181 1    
   118   58  182 1    
   119   58  183 1    
   120   59   60 am   BACKBONE|DICT|INTERRES
   121   59  184 1    
   122   60   61 2    
   123   60   62 1    
   124   62   63 1    
   125   62   64 1    
   126   62  185 1    
   127   63  186 1    
   128   63  187 1    
   129   63  188 1    
   130   64   65 am   BACKBONE|DICT|INTERRES
   131   64  189 1    
   132   65   66 2    
   133   67   68 2    
   134   67   69 am   BACKBONE|DICT|INTERRES
   135   69   70 1    
   136   69  190 1    
   137   70   71 1    
   138   70   72 1    
   139   70  191 1    
   140   71  192 1    
   141   71  193 1    
   142   71  194 1    
   143   72   73 2    
   144   72   74 am   BACKBONE|DICT|INTERRES
   145   74   75 1    
   146   74  195 1    
   147   75   76 1    
   148   75   77 1    
   149   75  196 1    
   150   76  197 1    
   151   76  198 1    
   152   76  199 1    
   153   77   78 2    
   154   77   79 am   BACKBONE|DICT|INTERRES
   155   79   80 1    
   156   79  200 1    
   157   80   81 1    
   158   80   82 1    
   159   80  201 1    
   160   81  202 1    
   161   81  203 1    
   162   81  204 1    
   163   82   83 2    
   164   82   84 am   BACKBONE|DICT|INTERRES
   165   84   85 1    
   166   84  205 1    
   167   85   86 1    
   168   85   87 1    
   169   85  206 1    
   170   86  207 1    
   171   86  208 1    
   172   86  209 1    
   173   87   88 2    
   174   87   89 am   BACKBONE|DICT|INTERRES
   175   89   90 1    
   176   89  210 1    
   177   90   91 1    
   178   90   92 1    
   179   90  211 1    
   180   91  212 1    
   181   91  213 1    
   182   91  214 1    
   183   92   93 2    
   184   92   94 am   BACKBONE|DICT|INTERRES
   185   94   95 1    
   186   94  215 1    
   187   95   96 1    
   188   95   97 1    
   189   95  216 1    
   190   96  217 1    
   191   96  218 1    
   192   96  219 1    
   193   97   98 2    
   194   97   99 am   BACKBONE|DICT|INTERRES
   195   99  100 1    
   196   99  220 1    
   197  100  101 1    
   198  100  102 1    
   199  100  221 1    
   200  101  222 1    
   201  101  223 1    
   202  101  224 1    
   203  102  103 2    
   204  102  104 am   BACKBONE|DICT|INTERRES
   205  104  105 1    
   206  104  225 1    
   207  105  106 1    
   208  105  107 1    
   209  105  226 1    
   210  106  227 1    
   211  106  228 1    
   212  106  229 1    
   213  107  108 2    
   214  107  109 am   BACKBONE|DICT|INTERRES
   215  109  110 1    
   216  109  230 1    
   217  110  111 1    
   218  110  112 1    
   219  110  231 1    
   220  111  232 1    
   221  111  233 1    
   222  111  234 1    
   223  112  113 2    
   224  112  114 am   BACKBONE|DICT|INTERRES
   225  114  115 1    
   226  114  235 1    
   227  115  116 1    
   228  115  117 1    
   229  115  236 1    
   230  116  237 1    
   231  116  238 1    
   232  116  239 1    
   233  117  118 2    
   234  117  119 am   BACKBONE|DICT|INTERRES
   235  119  120 1    
   236  119  240 1    
   237  120  121 1    
   238  120  124 1    
   239  120  241 1    
   240  121  122 am   BACKBONE|DICT|INTERRES
   241  121  123 2    
   242  122  242 1    
   243  122  243 1    
   244  124  125 1    
   245  124  244 1    
   246  124  245 1    
   247  125  126 1    
   248  126  246 1    
   249  126  247 1    
@<TRIPOS>SUBSTRUCTURE
     1 UNK         1 GROUP             0       ****    0 ROOT    
