@<TRIPOS>MOLECULE
3R540
247   249    1
SMALL
USER_CHARGES


@<TRIPOS>ATOM
      1 CA         -5.2943  -17.6788  -44.0571 C.3       0 UNK        -0.1800 
      2 C          -5.2608  -16.2823  -44.6644 C.2       0 UNK         0.5000 
      3 O          -6.2269  -15.5312  -44.5308 O.2       0 UNK        -0.5000 
      4 N          -4.1601  -15.9438  -45.3458 N.am      1 UNK        -0.5000 
      5 CA         -3.9217  -14.6516  -45.9944 C.3       1 UNK         0.1400 
      6 C6         -2.6744  -14.6801  -46.9228 C.3       23 UNK        -0.0398 
      7 S7         -2.5614  -16.1295  -48.0230 S.3       23 UNK        -0.2404 
      8 C8         -3.9148  -15.8221  -49.2025 C.3       23 UNK        -0.0205 
      9 C9         -4.7302  -17.0788  -49.4785 C.ar      23 UNK        -0.0193 
     10 C10        -5.0773  -17.4132  -50.7900 C.ar      23 UNK        -0.1150 
     11 C11        -5.8380  -18.5551  -51.0576 C.ar      23 UNK        -0.0193 
     12 C12        -6.2546  -19.3668  -49.9985 C.ar      23 UNK        -0.1150 
     13 C13        -5.9081  -19.0479  -48.6818 C.ar      23 UNK        -0.0193 
     14 C14        -5.1599  -17.8980  -48.4288 C.ar      23 UNK        -0.1150 
     15 C15        -6.3475  -19.9399  -47.5331 C.3       23 UNK        -0.0205 
     16 S16        -5.4308  -21.5090  -47.5147 S.3       23 UNK        -0.2404 
     17 C17        -3.8400  -21.0570  -46.7323 C.3       23 UNK        -0.0398 
     18 CA         -2.9781  -22.3241  -46.5008 C.3       11 UNK         0.1400 
     19 N          -1.5430  -22.0522  -46.3522 N.am      11 UNK        -0.5000 
     20 C          -0.6060  -23.0103  -46.4278 C.2       10 UNK         0.5000 
     21 O          -0.8661  -24.1787  -46.7026 O.2       10 UNK        -0.5000 
     22 CA          0.8508  -22.6387  -46.1060 C.3       10 UNK         0.1400 
     23 CB          1.5759  -22.1177  -47.3509 C.3       10 UNK        -0.1800 
     24 N           0.9629  -21.6759  -45.0141 N.am      10 UNK        -0.5000 
     25 C           0.5970  -21.9324  -43.7508 C.2       9 UNK         0.5000 
     26 O           0.1845  -23.0276  -43.3726 O.2       9 UNK        -0.5000 
     27 CA          0.6469  -20.7607  -42.7559 C.3       9 UNK         0.1400 
     28 CB          2.0660  -20.5818  -42.1974 C.3       9 UNK        -0.1800 
     29 N           0.1861  -19.5033  -43.3445 N.am      9 UNK        -0.5000 
     30 C          -1.0487  -19.2865  -43.8195 C.2       8 UNK         0.5000 
     31 O          -1.9599  -20.1153  -43.7765 O.2       8 UNK        -0.5000 
     32 CA         -1.2837  -17.9367  -44.5202 C.3       8 UNK         0.1400 
     33 CB         -1.4240  -16.7985  -43.4993 C.3       8 UNK        -0.1800 
     34 N          -0.2269  -17.6134  -45.4777 N.am      8 UNK        -0.5000 
     35 C           0.0443  -18.3375  -46.5738 C.2       7 UNK         0.5000 
     36 O          -0.6047  -19.3270  -46.9133 O.2       7 UNK        -0.5000 
     37 CA          1.2863  -17.9244  -47.3833 C.3       7 UNK         0.1400 
     38 CB          0.9684  -16.7795  -48.3555 C.3       7 UNK        -0.1800 
     39 N           2.3948  -17.5336  -46.5117 N.am      7 UNK        -0.5000 
     40 C           3.0858  -18.3871  -45.7427 C.2       6 UNK         0.5000 
     41 O           2.8860  -19.6001  -45.7198 O.2       6 UNK        -0.5000 
     42 CA          4.1491  -17.7780  -44.8108 C.3       6 UNK         0.1400 
     43 CB          5.4660  -17.5519  -45.5681 C.3       6 UNK        -0.1800 
     44 N           3.7138  -16.5179  -44.2074 N.am      6 UNK        -0.5000 
     45 C           2.6963  -16.3997  -43.3418 C.2       5 UNK         0.5000 
     46 O           2.0460  -17.3540  -42.9190 O.2       5 UNK        -0.5000 
     47 CA          2.3063  -14.9696  -42.9210 C.3       5 UNK         0.1400 
     48 CB          3.0878  -14.5427  -41.6701 C.3       5 UNK        -0.1800 
     49 N           2.5133  -13.9829  -43.9858 N.am      5 UNK        -0.5000 
     50 C           1.8669  -13.9934  -45.1581 C.2       4 UNK         0.5000 
     51 O           1.0067  -14.8263  -45.4549 O.2       4 UNK        -0.5000 
     52 CA          2.3029  -12.9304  -46.1829 C.3       4 UNK         0.1400 
     53 CB          3.5922  -13.3857  -46.8853 C.3       4 UNK        -0.1800 
     54 N           1.2781  -12.7169  -47.2050 N.am      4 UNK        -0.5000 
     55 C           0.1448  -12.0125  -47.0967 C.2       3 UNK         0.5000 
     56 O          -0.6901  -12.0088  -48.0034 O.2       3 UNK        -0.5000 
     57 CA         -0.1314  -11.1594  -45.8421 C.3       3 UNK         0.1400 
     58 CB          0.4392   -9.7384  -46.0001 C.3       3 UNK        -0.1800 
     59 N          -1.5765  -11.1093  -45.6757 N.am      3 UNK        -0.5000 
     60 C          -2.2520  -10.8010  -44.5635 C.2       2 UNK         0.5000 
     61 O          -1.7295  -10.3786  -43.5317 O.2       2 UNK        -0.5000 
     62 CA         -3.7712  -11.0657  -44.6081 C.3       2 UNK         0.1400 
     63 CB         -4.5159   -9.8700  -45.2214 C.3       2 UNK        -0.1800 
     64 N          -4.0888  -12.2819  -45.3667 N.am      2 UNK        -0.5000 
     65 C          -3.7599  -13.5168  -44.9605 C.2       1 UNK         0.5000 
     66 O          -3.2830  -13.7609  -43.8494 O.2       1 UNK        -0.5000 
     67 C          -3.5101  -23.1866  -45.3362 C.2       11 UNK         0.5000 
     68 O          -4.2296  -24.1545  -45.5839 O.2       11 UNK        -0.5000 
     69 N          -3.0918  -22.8747  -44.1001 N.am      12 UNK        -0.5000 
     70 CA         -3.4075  -23.6590  -42.9011 C.3       12 UNK         0.1400 
     71 CB         -2.9059  -22.9153  -41.6543 C.3       12 UNK        -0.1800 
     72 C          -2.8520  -25.0992  -42.9518 C.2       12 UNK         0.5000 
     73 O          -3.5121  -26.0238  -42.4770 O.2       12 UNK        -0.5000 
     74 N          -1.6739  -25.2669  -43.5668 N.am      13 UNK        -0.5000 
     75 CA         -1.0301  -26.5537  -43.8409 C.3       13 UNK         0.1400 
     76 CB          0.4769  -26.3147  -44.0294 C.3       13 UNK        -0.1800 
     77 C          -1.6117  -27.2976  -45.0642 C.2       13 UNK         0.5000 
     78 O          -1.2052  -28.4331  -45.3144 O.2       13 UNK        -0.5000 
     79 N          -2.5261  -26.6558  -45.8084 N.am      14 UNK        -0.5000 
     80 CA         -3.1576  -27.1172  -47.0505 C.3       14 UNK         0.1400 
     81 CB         -4.0227  -28.3709  -46.8039 C.3       14 UNK        -0.1800 
     82 C          -2.1613  -27.2847  -48.2201 C.2       14 UNK         0.5000 
     83 O          -2.3495  -28.1482  -49.0783 O.2       14 UNK        -0.5000 
     84 N          -1.1333  -26.4290  -48.2534 N.am      15 UNK        -0.5000 
     85 CA         -0.0781  -26.3715  -49.2634 C.3       15 UNK         0.1400 
     86 CB          1.2770  -26.2166  -48.5489 C.3       15 UNK        -0.1800 
     87 C          -0.3503  -25.2379  -50.2740 C.2       15 UNK         0.5000 
     88 O           0.5545  -24.4677  -50.6053 O.2       15 UNK        -0.5000 
     89 N          -1.6102  -25.1447  -50.7297 N.am      16 UNK        -0.5000 
     90 CA         -2.1225  -24.2651  -51.7920 C.3       16 UNK         0.1400 
     91 CB         -1.6329  -24.7714  -53.1648 C.3       16 UNK        -0.1800 
     92 C          -1.8258  -22.7628  -51.5874 C.2       16 UNK         0.5000 
     93 O          -1.6210  -22.0416  -52.5644 O.2       16 UNK        -0.5000 
     94 N          -1.7540  -22.3310  -50.3187 N.am      17 UNK        -0.5000 
     95 CA         -1.4077  -20.9750  -49.8706 C.3       17 UNK         0.1400 
     96 CB         -2.5375  -19.9875  -50.2203 C.3       17 UNK        -0.1800 
     97 C          -0.0314  -20.4867  -50.3719 C.2       17 UNK         0.5000 
     98 O           0.1531  -19.2892  -50.5808 O.2       17 UNK        -0.5000 
     99 N           0.9003  -21.4244  -50.6144 N.am      18 UNK        -0.5000 
    100 CA         2.2088  -21.2046  -51.2459 C.3       18 UNK         0.1400 
    101 CB         3.1325  -20.3725  -50.3297 C.3       18 UNK        -0.1800 
    102 C          2.0947  -20.6174  -52.6733 C.2       18 UNK         0.5000 
    103 O          2.9965  -19.9093  -53.1234 O.2       18 UNK        -0.5000 
    104 N          0.9731  -20.9187  -53.3455 N.am      19 UNK        -0.5000 
    105 CA         0.5412  -20.4373  -54.6577 C.3       19 UNK         0.1400 
    106 CB         1.5460  -20.8231  -55.7636 C.3       19 UNK        -0.1800 
    107 C          0.1543  -18.9426  -54.6904 C.2       19 UNK         0.5000 
    108 O          0.0424  -18.3803  -55.7818 O.2       19 UNK        -0.5000 
    109 N         -0.0845  -18.3196  -53.5255 N.am      20 UNK        -0.5000 
    110 CA        -0.5969  -16.9529  -53.4191 C.3       20 UNK         0.1400 
    111 CB        -0.4858  -16.4653  -51.9653 C.3       20 UNK        -0.1800 
    112 C         -2.0538  -16.8873  -53.9101 C.2       20 UNK         0.5000 
    113 O         -2.9251  -17.4980  -53.2927 O.2       20 UNK        -0.5000 
    114 N         -2.2814  -16.1747  -55.0218 N.am      21 UNK        -0.5000 
    115 CA        -3.5507  -15.9644  -55.7337 C.3       21 UNK         0.1400 
    116 CB        -4.5918  -15.2577  -54.8426 C.3       21 UNK        -0.1800 
    117 C         -4.1349  -17.2363  -56.3829 C.2       21 UNK         0.5000 
    118 O         -4.3728  -17.2425  -57.5912 O.2       21 UNK        -0.5000 
    119 N         -4.3474  -18.2838  -55.5815 N.am      22 UNK        -0.5000 
    120 CA        -4.8634  -19.6014  -55.9865 C.3       22 UNK         0.1400 
    121 C         -3.7764  -20.6030  -56.4798 C.2       22 UNK         0.5000 
    122 N         -2.5176  -20.2099  -56.6260 N.am      22 UNK        -0.7600 
    123 O         -4.0848  -21.7541  -56.7766 O.2       22 UNK        -0.5000 
    124 C124       -5.8139  -20.2077  -54.9160 C.3       23 UNK        -0.0398 
    125 S125       -5.1648  -20.1848  -53.2060 S.3       23 UNK        -0.2404 
    126 C126       -6.2306  -18.8952  -52.4863 C.3       23 UNK        -0.0205 
    127 H127       -6.2529  -18.1555  -44.2615 H         1 UNK         0.0600 
    128 H128       -5.1656  -17.6203  -42.9765 H         1 UNK         0.0600 
    129 H129       -4.5100  -18.3184  -44.4609 H         1 UNK         0.0600 
    130 H130       -3.4000  -16.5997  -45.4264 H         1 UNK         0.3000 
    131 H131       -4.8025  -14.4285  -46.5991 H         1 UNK         0.0600 
    132 H132       -2.6448  -13.7840  -47.5438 H         1 UNK         0.0800 
    133 H133       -1.7551  -14.6689  -46.3327 H         1 UNK         0.0800 
    134 H134       -3.4798  -15.4343  -50.1251 H         1 UNK         0.0800 
    135 H135       -4.5884  -15.0511  -48.8303 H         1 UNK         0.0800 
    136 H136       -4.7559  -16.7824  -51.6061 H         1 UNK         0.1150 
    137 H137       -6.8381  -20.2542  -50.1998 H         1 UNK         0.1150 
    138 H138       -4.9015  -17.6463  -47.4117 H         1 UNK         0.1150 
    139 H139       -6.2348  -19.4351  -46.5726 H         1 UNK         0.0800 
    140 H140       -7.4111  -20.1567  -47.6409 H         1 UNK         0.0800 
    141 H141       -4.0178  -20.5192  -45.7995 H         1 UNK         0.0800 
    142 H142       -3.3240  -20.3597  -47.3930 H         1 UNK         0.0800 
    143 H143       -3.0662  -22.9345  -47.4029 H         1 UNK         0.0600 
    144 H144       -1.2620  -21.0942  -46.1676 H         1 UNK         0.3000 
    145 H145        1.3573  -23.5530  -45.7915 H         1 UNK         0.0600 
    146 H146        2.6383  -21.9753  -47.1537 H         1 UNK         0.0600 
    147 H147        1.4924  -22.8228  -48.1785 H         1 UNK         0.0600 
    148 H148        1.1684  -21.1650  -47.6841 H         1 UNK         0.0600 
    149 H149        1.3626  -20.7709  -45.2414 H         1 UNK         0.3000 
    150 H150       -0.0190  -21.0017  -41.9250 H         1 UNK         0.0600 
    151 H151        2.4243  -21.5036  -41.7374 H         1 UNK         0.0600 
    152 H152        2.0934  -19.8047  -41.4335 H         1 UNK         0.0600 
    153 H153        2.7745  -20.3067  -42.9793 H         1 UNK         0.0600 
    154 H154        0.8655  -18.7472  -43.3810 H         1 UNK         0.3000 
    155 H155       -2.2137  -18.0160  -45.0841 H         1 UNK         0.0600 
    156 H156       -0.5600  -16.7351  -42.8386 H         1 UNK         0.0600 
    157 H157       -2.3038  -16.9444  -42.8717 H         1 UNK         0.0600 
    158 H158       -1.5299  -15.8330  -43.9931 H         1 UNK         0.0600 
    159 H159        0.3319  -16.7879  -45.2919 H         1 UNK         0.3000 
    160 H160        1.6014  -18.7867  -47.9741 H         1 UNK         0.0600 
    161 H161        1.8346  -16.5274  -48.9670 H         1 UNK         0.0600 
    162 H162        0.6454  -15.8776  -47.8361 H         1 UNK         0.0600 
    163 H163        0.1659  -17.0660  -49.0354 H         1 UNK         0.0600 
    164 H164        2.5795  -16.5455  -46.4301 H         1 UNK         0.3000 
    165 H165        4.3353  -18.4923  -44.0060 H         1 UNK         0.0600 
    166 H166        6.2493  -17.1953  -44.8990 H         1 UNK         0.0600 
    167 H167        5.8217  -18.4803  -46.0171 H         1 UNK         0.0600 
    168 H168        5.3512  -16.8220  -46.3706 H         1 UNK         0.0600 
    169 H169        4.2014  -15.6823  -44.4933 H         1 UNK         0.3000 
    170 H170        1.2428  -14.9774  -42.6732 H         1 UNK         0.0600 
    171 H171        2.9339  -15.2502  -40.8540 H         1 UNK         0.0600 
    172 H172        4.1603  -14.4909  -41.8619 H         1 UNK         0.0600 
    173 H173        2.7615  -13.5647  -41.3158 H         1 UNK         0.0600 
    174 H174        3.2130  -13.2754  -43.8114 H         1 UNK         0.3000 
    175 H175        2.5072  -11.9928  -45.6634 H         1 UNK         0.0600 
    176 H176        3.4535  -14.3294  -47.4149 H         1 UNK         0.0600 
    177 H177        3.9274  -12.6435  -47.6103 H         1 UNK         0.0600 
    178 H178        4.4050  -13.5257  -46.1716 H         1 UNK         0.0600 
    179 H179        1.3993  -13.2639  -48.0432 H         1 UNK         0.3000 
    180 H180        0.2915  -11.6330  -44.9561 H         1 UNK         0.0600 
    181 H181       -0.0033   -9.2227  -46.8533 H         1 UNK         0.0600 
    182 H182        1.5182   -9.7631  -46.1555 H         1 UNK         0.0600 
    183 H183        0.2545   -9.1338  -45.1122 H         1 UNK         0.0600 
    184 H184       -2.0815  -11.4430  -46.4868 H         1 UNK         0.3000 
    185 H185       -4.1205  -11.1968  -43.5816 H         1 UNK         0.0600 
    186 H186       -4.3092   -8.9556  -44.6638 H         1 UNK         0.0600 
    187 H187       -4.2203   -9.6966  -46.2569 H         1 UNK         0.0600 
    188 H188       -5.5948  -10.0250  -45.2010 H         1 UNK         0.0600 
    189 H189       -4.4975  -12.1491  -46.2807 H         1 UNK         0.3000 
    190 H190       -2.5164  -22.0478  -43.9710 H         1 UNK         0.3000 
    191 H191       -4.4951  -23.7307  -42.8345 H         1 UNK         0.0600 
    192 H192       -3.1892  -23.4461  -40.7447 H         1 UNK         0.0600 
    193 H193       -3.3324  -21.9137  -41.5938 H         1 UNK         0.0600 
    194 H194       -1.8209  -22.8170  -41.6503 H         1 UNK         0.0600 
    195 H195       -1.1590  -24.4385  -43.8479 H         1 UNK         0.3000 
    196 H196       -1.1649  -27.2014  -42.9724 H         1 UNK         0.0600 
    197 H197        1.0118  -27.2567  -44.1563 H         1 UNK         0.0600 
    198 H198        0.9093  -25.8106  -43.1650 H         1 UNK         0.0600 
    199 H199        0.6776  -25.7041  -44.9097 H         1 UNK         0.0600 
    200 H200       -2.7941  -25.7226  -45.5194 H         1 UNK         0.3000 
    201 H201       -3.8322  -26.3152  -47.3529 H         1 UNK         0.0600 
    202 H202       -4.7169  -28.2137  -45.9784 H         1 UNK         0.0600 
    203 H203       -3.4154  -29.2457  -46.5708 H         1 UNK         0.0600 
    204 H204       -4.6182  -28.6138  -47.6846 H         1 UNK         0.0600 
    205 H205       -1.0857  -25.7012  -47.5400 H         1 UNK         0.3000 
    206 H206       -0.0502  -27.3041  -49.8302 H         1 UNK         0.0600 
    207 H207        1.4481  -27.0367  -47.8515 H         1 UNK         0.0600 
    208 H208        2.1014  -26.2208  -49.2630 H         1 UNK         0.0600 
    209 H209        1.3327  -25.2851  -47.9859 H         1 UNK         0.0600 
    210 H210       -2.2744  -25.8155  -50.3690 H         1 UNK         0.3000 
    211 H211       -3.2091  -24.3599  -51.7729 H         1 UNK         0.0600 
    212 H212       -0.5533  -24.6594  -53.2723 H         1 UNK         0.0600 
    213 H213       -2.1030  -24.2196  -53.9800 H         1 UNK         0.0600 
    214 H214       -1.8766  -25.8242  -53.3073 H         1 UNK         0.0600 
    215 H215       -1.9009  -23.0137  -49.5901 H         1 UNK         0.3000 
    216 H216       -1.3318  -21.0188  -48.7876 H         1 UNK         0.0600 
    217 H217       -2.3847  -19.0275  -49.7254 H         1 UNK         0.0600 
    218 H218       -3.5068  -20.3664  -49.8996 H         1 UNK         0.0600 
    219 H219       -2.5943  -19.7950  -51.2925 H         1 UNK         0.0600 
    220 H220        0.6539  -22.3984  -50.4671 H         1 UNK         0.3000 
    221 H221        2.6580  -22.1921  -51.3596 H         1 UNK         0.0600 
    222 H222        2.7829  -19.3453  -50.2236 H         1 UNK         0.0600 
    223 H223        3.2016  -20.8076  -49.3338 H         1 UNK         0.0600 
    224 H224        4.1452  -20.3303  -50.7315 H         1 UNK         0.0600 
    225 H225        0.2664  -21.4653  -52.8623 H         1 UNK         0.3000 
    226 H226       -0.3829  -20.9784  -54.8636 H         1 UNK         0.0600 
    227 H227        1.1291  -20.6336  -56.7533 H         1 UNK         0.0600 
    228 H228        2.4722  -20.2532  -55.6890 H         1 UNK         0.0600 
    229 H229        1.7968  -21.8828  -55.7174 H         1 UNK         0.0600 
    230 H230        0.0003  -18.8344  -52.6561 H         1 UNK         0.3000 
    231 H231        0.0251  -16.3040  -54.0391 H         1 UNK         0.0600 
    232 H232        0.5394  -16.5344  -51.6013 H         1 UNK         0.0600 
    233 H233       -1.1191  -17.0474  -51.2939 H         1 UNK         0.0600 
    234 H234       -0.7950  -15.4232  -51.8790 H         1 UNK         0.0600 
    235 H235       -1.4780  -15.7631  -55.4764 H         1 UNK         0.3000 
    236 H236       -3.3142  -15.2809  -56.5508 H         1 UNK         0.0600 
    237 H237       -4.1990  -14.3221  -54.4448 H         1 UNK         0.0600 
    238 H238       -5.4897  -15.0170  -55.4128 H         1 UNK         0.0600 
    239 H239       -4.9010  -15.8755  -53.9995 H         1 UNK         0.0600 
    240 H240       -4.0571  -18.2005  -54.6090 H         1 UNK         0.3000 
    241 H241       -5.4830  -19.4454  -56.8713 H         1 UNK         0.0600 
    242 H242       -1.8418  -20.8647  -56.9840 H         1 UNK         0.3800 
    243 H243       -2.2434  -19.2614  -56.4231 H         1 UNK         0.3800 
    244 H244       -6.7566  -19.6599  -54.9397 H         1 UNK         0.0800 
    245 H245       -6.0858  -21.2344  -55.1659 H         1 UNK         0.0800 
    246 H246       -7.2688  -19.2297  -52.5088 H         1 UNK         0.0800 
    247 H247       -6.1806  -18.0008  -53.1094 H         1 UNK         0.0800 
@<TRIPOS>BOND
     1    1    2 1    
     2    1  127 1    
     3    1  128 1    
     4    1  129 1    
     5    2    3 2    
     6    2    4 am   BACKBONE|DICT|INTERRES
     7    4    5 1    
     8    4  130 1    
     9    5    6 1    
    10    5   65 1    
    11    5  131 1    
    12    6    7 1    
    13    6  132 1    
    14    6  133 1    
    15    7    8 1    
    16    8    9 1    
    17    8  134 1    
    18    8  135 1    
    19    9   10 ar   
    20    9   14 ar   
    21   10   11 ar   
    22   10  136 1    
    23   11   12 ar   
    24   11  126 1    
    25   12   13 ar   
    26   12  137 1    
    27   13   14 ar   
    28   13   15 1    
    29   14  138 1    
    30   15   16 1    
    31   15  139 1    
    32   15  140 1    
    33   16   17 1    
    34   17   18 1    
    35   17  141 1    
    36   17  142 1    
    37   18   19 1    
    38   18   67 1    
    39   18  143 1    
    40   19   20 am   BACKBONE|DICT|INTERRES
    41   19  144 1    
    42   20   21 2    
    43   20   22 1    
    44   22   23 1    
    45   22   24 1    
    46   22  145 1    
    47   23  146 1    
    48   23  147 1    
    49   23  148 1    
    50   24   25 am   BACKBONE|DICT|INTERRES
    51   24  149 1    
    52   25   26 2    
    53   25   27 1    
    54   27   28 1    
    55   27   29 1    
    56   27  150 1    
    57   28  151 1    
    58   28  152 1    
    59   28  153 1    
    60   29   30 am   BACKBONE|DICT|INTERRES
    61   29  154 1    
    62   30   31 2    
    63   30   32 1    
    64   32   33 1    
    65   32   34 1    
    66   32  155 1    
    67   33  156 1    
    68   33  157 1    
    69   33  158 1    
    70   34   35 am   BACKBONE|DICT|INTERRES
    71   34  159 1    
    72   35   36 2    
    73   35   37 1    
    74   37   38 1    
    75   37   39 1    
    76   37  160 1    
    77   38  161 1    
    78   38  162 1    
    79   38  163 1    
    80   39   40 am   BACKBONE|DICT|INTERRES
    81   39  164 1    
    82   40   41 2    
    83   40   42 1    
    84   42   43 1    
    85   42   44 1    
    86   42  165 1    
    87   43  166 1    
    88   43  167 1    
    89   43  168 1    
    90   44   45 am   BACKBONE|DICT|INTERRES
    91   44  169 1    
    92   45   46 2    
    93   45   47 1    
    94   47   48 1    
    95   47   49 1    
    96   47  170 1    
    97   48  171 1    
    98   48  172 1    
    99   48  173 1    
   100   49   50 am   BACKBONE|DICT|INTERRES
   101   49  174 1    
   102   50   51 2    
   103   50   52 1    
   104   52   53 1    
   105   52   54 1    
   106   52  175 1    
   107   53  176 1    
   108   53  177 1    
   109   53  178 1    
   110   54   55 am   BACKBONE|DICT|INTERRES
   111   54  179 1    
   112   55   56 2    
   113   55   57 1    
   114   57   58 1    
   115   57   59 1    
   116   57  180 1    
   117   58  181 1    
   118   58  182 1    
   119   58  183 1    
   120   59   60 am   BACKBONE|DICT|INTERRES
   121   59  184 1    
   122   60   61 2    
   123   60   62 1    
   124   62   63 1    
   125   62   64 1    
   126   62  185 1    
   127   63  186 1    
   128   63  187 1    
   129   63  188 1    
   130   64   65 am   BACKBONE|DICT|INTERRES
   131   64  189 1    
   132   65   66 2    
   133   67   68 2    
   134   67   69 am   BACKBONE|DICT|INTERRES
   135   69   70 1    
   136   69  190 1    
   137   70   71 1    
   138   70   72 1    
   139   70  191 1    
   140   71  192 1    
   141   71  193 1    
   142   71  194 1    
   143   72   73 2    
   144   72   74 am   BACKBONE|DICT|INTERRES
   145   74   75 1    
   146   74  195 1    
   147   75   76 1    
   148   75   77 1    
   149   75  196 1    
   150   76  197 1    
   151   76  198 1    
   152   76  199 1    
   153   77   78 2    
   154   77   79 am   BACKBONE|DICT|INTERRES
   155   79   80 1    
   156   79  200 1    
   157   80   81 1    
   158   80   82 1    
   159   80  201 1    
   160   81  202 1    
   161   81  203 1    
   162   81  204 1    
   163   82   83 2    
   164   82   84 am   BACKBONE|DICT|INTERRES
   165   84   85 1    
   166   84  205 1    
   167   85   86 1    
   168   85   87 1    
   169   85  206 1    
   170   86  207 1    
   171   86  208 1    
   172   86  209 1    
   173   87   88 2    
   174   87   89 am   BACKBONE|DICT|INTERRES
   175   89   90 1    
   176   89  210 1    
   177   90   91 1    
   178   90   92 1    
   179   90  211 1    
   180   91  212 1    
   181   91  213 1    
   182   91  214 1    
   183   92   93 2    
   184   92   94 am   BACKBONE|DICT|INTERRES
   185   94   95 1    
   186   94  215 1    
   187   95   96 1    
   188   95   97 1    
   189   95  216 1    
   190   96  217 1    
   191   96  218 1    
   192   96  219 1    
   193   97   98 2    
   194   97   99 am   BACKBONE|DICT|INTERRES
   195   99  100 1    
   196   99  220 1    
   197  100  101 1    
   198  100  102 1    
   199  100  221 1    
   200  101  222 1    
   201  101  223 1    
   202  101  224 1    
   203  102  103 2    
   204  102  104 am   BACKBONE|DICT|INTERRES
   205  104  105 1    
   206  104  225 1    
   207  105  106 1    
   208  105  107 1    
   209  105  226 1    
   210  106  227 1    
   211  106  228 1    
   212  106  229 1    
   213  107  108 2    
   214  107  109 am   BACKBONE|DICT|INTERRES
   215  109  110 1    
   216  109  230 1    
   217  110  111 1    
   218  110  112 1    
   219  110  231 1    
   220  111  232 1    
   221  111  233 1    
   222  111  234 1    
   223  112  113 2    
   224  112  114 am   BACKBONE|DICT|INTERRES
   225  114  115 1    
   226  114  235 1    
   227  115  116 1    
   228  115  117 1    
   229  115  236 1    
   230  116  237 1    
   231  116  238 1    
   232  116  239 1    
   233  117  118 2    
   234  117  119 am   BACKBONE|DICT|INTERRES
   235  119  120 1    
   236  119  240 1    
   237  120  121 1    
   238  120  124 1    
   239  120  241 1    
   240  121  122 am   BACKBONE|DICT|INTERRES
   241  121  123 2    
   242  122  242 1    
   243  122  243 1    
   244  124  125 1    
   245  124  244 1    
   246  124  245 1    
   247  125  126 1    
   248  126  246 1    
   249  126  247 1    
@<TRIPOS>SUBSTRUCTURE
     1 UNK         1 GROUP             0       ****    0 ROOT    
