@<TRIPOS>MOLECULE
3R540
247   249    1
SMALL
USER_CHARGES


@<TRIPOS>ATOM
      1 CA          1.6250  -15.0565  -51.3471 C.3       0 UNK        -0.1800 
      2 C           1.0360  -14.4708  -50.0714 C.2       0 UNK         0.5000 
      3 O           0.3742  -13.4347  -50.1257 O.2       0 UNK        -0.5000 
      4 N           1.2787  -15.1345  -48.9321 N.am      1 UNK        -0.5000 
      5 CA          0.8004  -14.7794  -47.5892 C.3       1 UNK         0.1400 
      6 C6         -0.7389  -14.9006  -47.4219 C.3       23 UNK        -0.0398 
      7 S7         -1.3071  -16.6341  -47.3735 S.3       23 UNK        -0.2404 
      8 C8         -1.8063  -16.9599  -49.1003 C.3       23 UNK        -0.0205 
      9 C9         -0.7661  -17.6638  -49.9775 C.ar      23 UNK        -0.0193 
     10 C10        -1.0097  -17.7459  -51.3529 C.ar      23 UNK        -0.1150 
     11 C11        -0.0950  -18.3656  -52.2091 C.ar      23 UNK        -0.0193 
     12 C12         1.0782  -18.9091  -51.6815 C.ar      23 UNK        -0.1150 
     13 C13         1.3395  -18.8422  -50.3111 C.ar      23 UNK        -0.0193 
     14 C14         0.4108  -18.2301  -49.4647 C.ar      23 UNK        -0.1150 
     15 C15         2.6459  -19.3961  -49.7609 C.3       23 UNK        -0.0205 
     16 S16         2.4694  -21.1056  -49.1656 S.3       23 UNK        -0.2404 
     17 C17         2.1325  -20.8258  -47.3950 C.3       23 UNK        -0.0398 
     18 CA          1.6811  -22.1141  -46.6631 C.3       11 UNK         0.1400 
     19 N           1.7906  -21.9685  -45.2153 N.am      11 UNK        -0.5000 
     20 C           2.0523  -22.9615  -44.3564 C.2       10 UNK         0.5000 
     21 O           2.1381  -24.1463  -44.6792 O.2       10 UNK        -0.5000 
     22 CA          2.2872  -22.5554  -42.8925 C.3       10 UNK         0.1400 
     23 CB          3.6165  -21.7970  -42.7411 C.3       10 UNK        -0.1800 
     24 N           1.2000  -21.7166  -42.3975 N.am      10 UNK        -0.5000 
     25 C           0.1566  -22.1661  -41.6886 C.2       9 UNK         0.5000 
     26 O           0.0264  -23.3372  -41.3311 O.2       9 UNK        -0.5000 
     27 CA         -0.9296  -21.1406  -41.3034 C.3       9 UNK         0.1400 
     28 CB         -0.7156  -20.6545  -39.8618 C.3       9 UNK        -0.1800 
     29 N          -0.9963  -19.9772  -42.1898 N.am      9 UNK        -0.5000 
     30 C          -1.3080  -20.0232  -43.4919 C.2       8 UNK         0.5000 
     31 O          -1.5910  -21.0594  -44.0911 O.2       8 UNK        -0.5000 
     32 CA         -1.2336  -18.6957  -44.2670 C.3       8 UNK         0.1400 
     33 CB         -2.5356  -17.9019  -44.0907 C.3       8 UNK        -0.1800 
     34 N          -0.0886  -17.8668  -43.8809 N.am      8 UNK        -0.5000 
     35 C           1.1951  -18.2365  -43.9968 C.2       7 UNK         0.5000 
     36 O           1.5517  -19.3258  -44.4432 O.2       7 UNK        -0.5000 
     37 CA          2.2606  -17.2492  -43.4993 C.3       7 UNK         0.1400 
     38 CB          2.5848  -16.2005  -44.5708 C.3       7 UNK        -0.1800 
     39 N           1.8408  -16.5922  -42.2641 N.am      7 UNK        -0.5000 
     40 C           1.9518  -17.1488  -41.0501 C.2       6 UNK         0.5000 
     41 O           2.5006  -18.2307  -40.8398 O.2       6 UNK        -0.5000 
     42 CA          1.3170  -16.3822  -39.8755 C.3       6 UNK         0.1400 
     43 CB          2.3290  -15.4101  -39.2517 C.3       6 UNK        -0.1800 
     44 N           0.1098  -15.6494  -40.2620 N.am      6 UNK        -0.5000 
     45 C          -1.0427  -16.2360  -40.6173 C.2       5 UNK         0.5000 
     46 O          -1.2045  -17.4557  -40.6536 O.2       5 UNK        -0.5000 
     47 CA         -2.1985  -15.3106  -41.0428 C.3       5 UNK         0.1400 
     48 CB         -3.0425  -14.9138  -39.8227 C.3       5 UNK        -0.1800 
     49 N          -1.7713  -14.0992  -41.7458 N.am      5 UNK        -0.5000 
     50 C          -1.0450  -14.0615  -42.8712 C.2       4 UNK         0.5000 
     51 O          -0.6093  -15.0668  -43.4366 O.2       4 UNK        -0.5000 
     52 CA         -0.7200  -12.6740  -43.4600 C.3       4 UNK         0.1400 
     53 CB         -1.3156  -11.4854  -42.6716 C.3       4 UNK        -0.1800 
     54 N           0.7222  -12.4974  -43.6418 N.am      4 UNK        -0.5000 
     55 C           1.6737  -12.5673  -42.6972 C.2       3 UNK         0.5000 
     56 O           1.4336  -12.7901  -41.5093 O.2       3 UNK        -0.5000 
     57 CA          3.1371  -12.3777  -43.1504 C.3       3 UNK         0.1400 
     58 CB          4.0911  -13.3271  -42.4030 C.3       3 UNK        -0.1800 
     59 N           3.2953  -12.5712  -44.5959 N.am      3 UNK        -0.5000 
     60 C           3.3705  -11.5855  -45.5007 C.2       2 UNK         0.5000 
     61 O           3.3726  -10.3885  -45.2125 O.2       2 UNK        -0.5000 
     62 CA          3.4204  -12.0060  -46.9841 C.3       2 UNK         0.1400 
     63 CB          4.8763  -12.1633  -47.4482 C.3       2 UNK        -0.1800 
     64 N           2.6852  -13.2386  -47.2916 N.am      2 UNK        -0.5000 
     65 C           1.3657  -13.4167  -47.1250 C.2       1 UNK         0.5000 
     66 O           0.6269  -12.5653  -46.6281 O.2       1 UNK        -0.5000 
     67 C           0.2664  -22.5709  -47.0591 C.2       11 UNK         0.5000 
     68 O           0.0861  -23.7413  -47.3919 O.2       11 UNK        -0.5000 
     69 N          -0.7073  -21.6492  -47.0180 N.am      12 UNK        -0.5000 
     70 CA         -2.0741  -21.8171  -47.5286 C.3       12 UNK         0.1400 
     71 CB         -2.8368  -20.4949  -47.3566 C.3       12 UNK        -0.1800 
     72 C          -2.8664  -22.9800  -46.9008 C.2       12 UNK         0.5000 
     73 O          -3.7375  -23.5485  -47.5587 O.2       12 UNK        -0.5000 
     74 N          -2.5329  -23.3292  -45.6522 N.am      13 UNK        -0.5000 
     75 CA         -3.0551  -24.4877  -44.9285 C.3       13 UNK         0.1400 
     76 CB         -2.5360  -24.4396  -43.4841 C.3       13 UNK        -0.1800 
     77 C          -2.7021  -25.8409  -45.5826 C.2       13 UNK         0.5000 
     78 O          -3.4654  -26.7956  -45.4298 O.2       13 UNK        -0.5000 
     79 N          -1.5687  -25.9005  -46.2947 N.am      14 UNK        -0.5000 
     80 CA         -1.1158  -27.0647  -47.0543 C.3       14 UNK         0.1400 
     81 CB          0.3732  -27.3101  -46.7617 C.3       14 UNK        -0.1800 
     82 C          -1.3486  -26.8505  -48.5586 C.2       14 UNK         0.5000 
     83 O          -1.9032  -27.7256  -49.2252 O.2       14 UNK        -0.5000 
     84 N          -0.9398  -25.6814  -49.0665 N.am      15 UNK        -0.5000 
     85 CA         -1.1012  -25.2434  -50.4487 C.3       15 UNK         0.1400 
     86 CB         -0.0138  -24.2010  -50.7703 C.3       15 UNK        -0.1800 
     87 C          -2.5206  -24.6935  -50.6679 C.2       15 UNK         0.5000 
     88 O          -2.7033  -23.4820  -50.7885 O.2       15 UNK        -0.5000 
     89 N          -3.5057  -25.6011  -50.7127 N.am      16 UNK        -0.5000 
     90 CA         -4.9422  -25.3144  -50.8230 C.3       16 UNK         0.1400 
     91 CB         -5.7151  -26.6414  -50.8144 C.3       16 UNK        -0.1800 
     92 C          -5.3490  -24.4602  -52.0428 C.2       16 UNK         0.5000 
     93 O          -6.3816  -23.7905  -51.9959 O.2       16 UNK        -0.5000 
     94 N          -4.5067  -24.4490  -53.0872 N.am      17 UNK        -0.5000 
     95 CA         -4.6008  -23.5737  -54.2584 C.3       17 UNK         0.1400 
     96 CB         -3.4715  -23.9259  -55.2376 C.3       17 UNK        -0.1800 
     97 C          -4.5640  -22.0683  -53.9225 C.2       17 UNK         0.5000 
     98 O          -5.0599  -21.2666  -54.7146 O.2       17 UNK        -0.5000 
     99 N          -4.0329  -21.7019  -52.7459 N.am      18 UNK        -0.5000 
    100 CA        -4.0364  -20.3462  -52.1913 C.3       18 UNK         0.1400 
    101 CB        -3.3047  -20.3575  -50.8452 C.3       18 UNK        -0.1800 
    102 C         -5.4425  -19.7347  -52.0269 C.2       18 UNK         0.5000 
    103 O         -5.5712  -18.5115  -52.0759 O.2       18 UNK        -0.5000 
    104 N         -6.4786  -20.5799  -51.9048 N.am      19 UNK        -0.5000 
    105 CA        -7.8894  -20.1793  -51.9202 C.3       19 UNK         0.1400 
    106 CB        -8.7579  -21.3895  -51.5470 C.3       19 UNK        -0.1800 
    107 C         -8.3445  -19.5855  -53.2718 C.2       19 UNK         0.5000 
    108 O         -9.3019  -18.8119  -53.3002 O.2       19 UNK        -0.5000 
    109 N         -7.6353  -19.9322  -54.3540 N.am      20 UNK        -0.5000 
    110 CA        -7.7891  -19.3858  -55.7019 C.3       20 UNK         0.1400 
    111 CB        -7.9619  -20.5571  -56.6853 C.3       20 UNK        -0.1800 
    112 C         -6.5792  -18.5003  -56.0715 C.2       20 UNK         0.5000 
    113 O         -6.2708  -18.3478  -57.2554 O.2       20 UNK        -0.5000 
    114 N         -5.8858  -17.9628  -55.0532 N.am      21 UNK        -0.5000 
    115 CA        -4.6885  -17.1156  -55.1294 C.3       21 UNK         0.1400 
    116 CB        -5.0423  -15.7392  -55.7292 C.3       21 UNK        -0.1800 
    117 C         -3.4924  -17.7850  -55.8419 C.2       21 UNK         0.5000 
    118 O         -2.6419  -17.0870  -56.3961 O.2       21 UNK        -0.5000 
    119 N         -3.4543  -19.1241  -55.8194 N.am      22 UNK        -0.5000 
    120 CA        -2.4964  -19.9865  -56.5295 C.3       22 UNK         0.1400 
    121 C         -2.6434  -19.9578  -58.0828 C.2       22 UNK         0.5000 
    122 N         -3.7513  -19.4771  -58.6380 N.am      22 UNK        -0.7600 
    123 O         -1.7556  -20.4078  -58.8023 O.2       22 UNK        -0.5000 
    124 C124       -1.0268  -19.8150  -56.0506 C.3       23 UNK        -0.0398 
    125 S125       -0.8279  -20.0868  -54.2540 S.3       23 UNK        -0.2404 
    126 C126       -0.3502  -18.4185  -53.7074 C.3       23 UNK        -0.0205 
    127 H127        0.8279  -15.3009  -52.0490 H         1 UNK         0.0600 
    128 H128        2.1928  -15.9665  -51.1519 H         1 UNK         0.0600 
    129 H129        2.2903  -14.3350  -51.8210 H         1 UNK         0.0600 
    130 H130        1.8193  -15.9853  -48.9827 H         1 UNK         0.3000 
    131 H131        1.2480  -15.5142  -46.9240 H         1 UNK         0.0600 
    132 H132       -1.0540  -14.4718  -46.4691 H         1 UNK         0.0800 
    133 H133       -1.2719  -14.3392  -48.1893 H         1 UNK         0.0800 
    134 H134       -2.7036  -17.5768  -49.0707 H         1 UNK         0.0800 
    135 H135       -2.1034  -16.0231  -49.5733 H         1 UNK         0.0800 
    136 H136       -1.9157  -17.3189  -51.7599 H         1 UNK         0.1150 
    137 H137        1.7917  -19.3800  -52.3431 H         1 UNK         0.1150 
    138 H138        0.6251  -18.1830  -48.4087 H         1 UNK         0.1150 
    139 H139        3.4088  -19.3804  -50.5407 H         1 UNK         0.0800 
    140 H140        3.0236  -18.7551  -48.9629 H         1 UNK         0.0800 
    141 H141        1.4121  -20.0179  -47.2695 H         1 UNK         0.0800 
    142 H142        3.0600  -20.4625  -46.9498 H         1 UNK         0.0800 
    143 H143        2.3678  -22.9085  -46.9656 H         1 UNK         0.0600 
    144 H144        1.7171  -21.0162  -44.8602 H         1 UNK         0.3000 
    145 H145        2.3594  -23.4691  -42.2987 H         1 UNK         0.0600 
    146 H146        3.8192  -21.5684  -41.6946 H         1 UNK         0.0600 
    147 H147        3.6155  -20.8553  -43.2912 H         1 UNK         0.0600 
    148 H148        4.4510  -22.3938  -43.1113 H         1 UNK         0.0600 
    149 H149        1.2108  -20.7453  -42.6775 H         1 UNK         0.3000 
    150 H150       -1.8925  -21.6528  -41.3535 H         1 UNK         0.0600 
    151 H151       -0.6623  -21.4936  -39.1668 H         1 UNK         0.0600 
    152 H152       -1.5368  -20.0159  -39.5357 H         1 UNK         0.0600 
    153 H153        0.2100  -20.0853  -39.7647 H         1 UNK         0.0600 
    154 H154       -0.8306  -19.0717  -41.7604 H         1 UNK         0.3000 
    155 H155       -1.1167  -18.9313  -45.3258 H         1 UNK         0.0600 
    156 H156       -3.3794  -18.4413  -44.5221 H         1 UNK         0.0600 
    157 H157       -2.4837  -16.9308  -44.5828 H         1 UNK         0.0600 
    158 H158       -2.7617  -17.7346  -43.0387 H         1 UNK         0.0600 
    159 H159       -0.2976  -16.9254  -43.5597 H         1 UNK         0.3000 
    160 H160        3.1720  -17.8217  -43.3127 H         1 UNK         0.0600 
    161 H161        1.7807  -15.4725  -44.6750 H         1 UNK         0.0600 
    162 H162        2.7466  -16.6727  -45.5407 H         1 UNK         0.0600 
    163 H163        3.5006  -15.6648  -44.3278 H         1 UNK         0.0600 
    164 H164        1.3113  -15.7359  -42.3564 H         1 UNK         0.3000 
    165 H165        1.0381  -17.1153  -39.1155 H         1 UNK         0.0600 
    166 H166        1.9065  -14.9025  -38.3845 H         1 UNK         0.0600 
    167 H167        3.2217  -15.9392  -38.9157 H         1 UNK         0.0600 
    168 H168        2.6486  -14.6489  -39.9633 H         1 UNK         0.0600 
    169 H169        0.1787  -14.6410  -40.3013 H         1 UNK         0.3000 
    170 H170       -2.8381  -15.8714  -41.7247 H         1 UNK         0.0600 
    171 H171       -2.4703  -14.3114  -39.1160 H         1 UNK         0.0600 
    172 H172       -3.9212  -14.3408  -40.1192 H         1 UNK         0.0600 
    173 H173       -3.3974  -15.7969  -39.2894 H         1 UNK         0.0600 
    174 H174       -2.0612  -13.2217  -41.3395 H         1 UNK         0.3000 
    175 H175       -1.1606  -12.6611  -44.4576 H         1 UNK         0.0600 
    176 H176       -0.9329  -11.4308  -41.6518 H         1 UNK         0.0600 
    177 H177       -1.0779  -10.5406  -43.1606 H         1 UNK         0.0600 
    178 H178       -2.4032  -11.5496  -42.6199 H         1 UNK         0.0600 
    179 H179        1.0080  -12.3462  -44.6023 H         1 UNK         0.3000 
    180 H180        3.4172  -11.3575  -42.8809 H         1 UNK         0.0600 
    181 H181        5.1081  -13.2528  -42.7883 H         1 UNK         0.0600 
    182 H182        3.7763  -14.3669  -42.4768 H         1 UNK         0.0600 
    183 H183        4.1314  -13.0782  -41.3420 H         1 UNK         0.0600 
    184 H184        3.2970  -13.5235  -44.9284 H         1 UNK         0.3000 
    185 H185        2.9643  -11.2009  -47.5641 H         1 UNK         0.0600 
    186 H186        4.9304  -12.3610  -48.5190 H         1 UNK         0.0600 
    187 H187        5.4478  -11.2537  -47.2586 H         1 UNK         0.0600 
    188 H188        5.3784  -12.9806  -46.9289 H         1 UNK         0.0600 
    189 H189        3.2173  -13.9791  -47.7253 H         1 UNK         0.3000 
    190 H190       -0.4832  -20.7335  -46.6624 H         1 UNK         0.3000 
    191 H191       -1.9893  -22.0257  -48.5964 H         1 UNK         0.0600 
    192 H192       -2.3190  -19.6742  -47.8518 H         1 UNK         0.0600 
    193 H193       -2.9593  -20.2344  -46.3061 H         1 UNK         0.0600 
    194 H194       -3.8355  -20.5596  -47.7893 H         1 UNK         0.0600 
    195 H195       -1.8802  -22.7317  -45.1541 H         1 UNK         0.3000 
    196 H196       -4.1434  -24.4043  -44.9072 H         1 UNK         0.0600 
    197 H197       -2.8388  -23.5185  -42.9857 H         1 UNK         0.0600 
    198 H198       -1.4472  -24.4962  -43.4496 H         1 UNK         0.0600 
    199 H199       -2.9280  -25.2714  -42.8976 H         1 UNK         0.0600 
    200 H200       -1.0210  -25.0535  -46.4078 H         1 UNK         0.3000 
    201 H201       -1.6676  -27.9580  -46.7545 H         1 UNK         0.0600 
    202 H202        0.5338  -27.5259  -45.7053 H         1 UNK         0.0600 
    203 H203        0.9867  -26.4458  -47.0201 H         1 UNK         0.0600 
    204 H204        0.7481  -28.1627  -47.3293 H         1 UNK         0.0600 
    205 H205       -0.5215  -24.9971  -48.4377 H         1 UNK         0.3000 
    206 H206       -0.9583  -26.0943  -51.1179 H         1 UNK         0.0600 
    207 H207       -0.0981  -23.3161  -50.1380 H         1 UNK         0.0600 
    208 H208        0.9845  -24.6154  -50.6298 H         1 UNK         0.0600 
    209 H209       -0.0864  -23.8686  -51.8065 H         1 UNK         0.0600 
    210 H210       -3.2524  -26.5687  -50.5532 H         1 UNK         0.3000 
    211 H211       -5.2235  -24.7489  -49.9322 H         1 UNK         0.0600 
    212 H212       -5.4446  -27.2687  -51.6646 H         1 UNK         0.0600 
    213 H213       -6.7912  -26.4686  -50.8619 H         1 UNK         0.0600 
    214 H214       -5.5184  -27.2065  -49.9030 H         1 UNK         0.0600 
    215 H215       -3.6828  -25.0281  -53.0261 H         1 UNK         0.3000 
    216 H216       -5.5570  -23.7749  -54.7453 H         1 UNK         0.0600 
    217 H217       -3.5537  -23.3411  -56.1545 H         1 UNK         0.0600 
    218 H218       -3.5082  -24.9774  -55.5229 H         1 UNK         0.0600 
    219 H219       -2.4892  -23.7269  -54.8066 H         1 UNK         0.0600 
    220 H220       -3.6268  -22.4179  -52.1493 H         1 UNK         0.3000 
    221 H221       -3.4828  -19.7032  -52.8772 H         1 UNK         0.0600 
    222 H222       -3.7715  -21.0546  -50.1494 H         1 UNK         0.0600 
    223 H223       -2.2599  -20.6465  -50.9643 H         1 UNK         0.0600 
    224 H224       -3.3198  -19.3720  -50.3828 H         1 UNK         0.0600 
    225 H225       -6.2951  -21.5766  -51.8844 H         1 UNK         0.3000 
    226 H226       -8.0282  -19.4093  -51.1586 H         1 UNK         0.0600 
    227 H227       -8.4784  -21.7919  -50.5732 H         1 UNK         0.0600 
    228 H228       -9.8119  -21.1136  -51.4950 H         1 UNK         0.0600 
    229 H229       -8.6642  -22.1916  -52.2803 H         1 UNK         0.0600 
    230 H230       -6.8394  -20.5514  -54.2373 H         1 UNK         0.3000 
    231 H231       -8.6773  -18.7543  -55.7615 H         1 UNK         0.0600 
    232 H232       -8.1485  -20.1979  -57.6981 H         1 UNK         0.0600 
    233 H233       -8.8080  -21.1846  -56.4048 H         1 UNK         0.0600 
    234 H234       -7.0728  -21.1883  -56.7175 H         1 UNK         0.0600 
    235 H235       -6.1944  -18.1710  -54.1111 H         1 UNK         0.3000 
    236 H236       -4.3671  -16.9526  -54.0998 H         1 UNK         0.0600 
    237 H237       -5.3124  -15.8150  -56.7830 H         1 UNK         0.0600 
    238 H238       -5.8786  -15.2820  -55.2003 H         1 UNK         0.0600 
    239 H239       -4.2001  -15.0503  -55.6563 H         1 UNK         0.0600 
    240 H240       -4.2052  -19.6274  -55.3585 H         1 UNK         0.3000 
    241 H241       -2.7873  -21.0020  -56.2639 H         1 UNK         0.0600 
    242 H242       -4.5053  -19.1054  -58.0711 H         1 UNK         0.3800 
    243 H243       -3.8384  -19.4745  -59.6418 H         1 UNK         0.3800 
    244 H244       -0.6429  -18.8331  -56.3291 H         1 UNK         0.0800 
    245 H245       -0.3812  -20.5380  -56.5513 H         1 UNK         0.0800 
    246 H246        0.5522  -18.1086  -54.2365 H         1 UNK         0.0800 
    247 H247       -1.1299  -17.7089  -53.9859 H         1 UNK         0.0800 
@<TRIPOS>BOND
     1    1    2 1    
     2    1  127 1    
     3    1  128 1    
     4    1  129 1    
     5    2    3 2    
     6    2    4 am   BACKBONE|DICT|INTERRES
     7    4    5 1    
     8    4  130 1    
     9    5    6 1    
    10    5   65 1    
    11    5  131 1    
    12    6    7 1    
    13    6  132 1    
    14    6  133 1    
    15    7    8 1    
    16    8    9 1    
    17    8  134 1    
    18    8  135 1    
    19    9   10 ar   
    20    9   14 ar   
    21   10   11 ar   
    22   10  136 1    
    23   11   12 ar   
    24   11  126 1    
    25   12   13 ar   
    26   12  137 1    
    27   13   14 ar   
    28   13   15 1    
    29   14  138 1    
    30   15   16 1    
    31   15  139 1    
    32   15  140 1    
    33   16   17 1    
    34   17   18 1    
    35   17  141 1    
    36   17  142 1    
    37   18   19 1    
    38   18   67 1    
    39   18  143 1    
    40   19   20 am   BACKBONE|DICT|INTERRES
    41   19  144 1    
    42   20   21 2    
    43   20   22 1    
    44   22   23 1    
    45   22   24 1    
    46   22  145 1    
    47   23  146 1    
    48   23  147 1    
    49   23  148 1    
    50   24   25 am   BACKBONE|DICT|INTERRES
    51   24  149 1    
    52   25   26 2    
    53   25   27 1    
    54   27   28 1    
    55   27   29 1    
    56   27  150 1    
    57   28  151 1    
    58   28  152 1    
    59   28  153 1    
    60   29   30 am   BACKBONE|DICT|INTERRES
    61   29  154 1    
    62   30   31 2    
    63   30   32 1    
    64   32   33 1    
    65   32   34 1    
    66   32  155 1    
    67   33  156 1    
    68   33  157 1    
    69   33  158 1    
    70   34   35 am   BACKBONE|DICT|INTERRES
    71   34  159 1    
    72   35   36 2    
    73   35   37 1    
    74   37   38 1    
    75   37   39 1    
    76   37  160 1    
    77   38  161 1    
    78   38  162 1    
    79   38  163 1    
    80   39   40 am   BACKBONE|DICT|INTERRES
    81   39  164 1    
    82   40   41 2    
    83   40   42 1    
    84   42   43 1    
    85   42   44 1    
    86   42  165 1    
    87   43  166 1    
    88   43  167 1    
    89   43  168 1    
    90   44   45 am   BACKBONE|DICT|INTERRES
    91   44  169 1    
    92   45   46 2    
    93   45   47 1    
    94   47   48 1    
    95   47   49 1    
    96   47  170 1    
    97   48  171 1    
    98   48  172 1    
    99   48  173 1    
   100   49   50 am   BACKBONE|DICT|INTERRES
   101   49  174 1    
   102   50   51 2    
   103   50   52 1    
   104   52   53 1    
   105   52   54 1    
   106   52  175 1    
   107   53  176 1    
   108   53  177 1    
   109   53  178 1    
   110   54   55 am   BACKBONE|DICT|INTERRES
   111   54  179 1    
   112   55   56 2    
   113   55   57 1    
   114   57   58 1    
   115   57   59 1    
   116   57  180 1    
   117   58  181 1    
   118   58  182 1    
   119   58  183 1    
   120   59   60 am   BACKBONE|DICT|INTERRES
   121   59  184 1    
   122   60   61 2    
   123   60   62 1    
   124   62   63 1    
   125   62   64 1    
   126   62  185 1    
   127   63  186 1    
   128   63  187 1    
   129   63  188 1    
   130   64   65 am   BACKBONE|DICT|INTERRES
   131   64  189 1    
   132   65   66 2    
   133   67   68 2    
   134   67   69 am   BACKBONE|DICT|INTERRES
   135   69   70 1    
   136   69  190 1    
   137   70   71 1    
   138   70   72 1    
   139   70  191 1    
   140   71  192 1    
   141   71  193 1    
   142   71  194 1    
   143   72   73 2    
   144   72   74 am   BACKBONE|DICT|INTERRES
   145   74   75 1    
   146   74  195 1    
   147   75   76 1    
   148   75   77 1    
   149   75  196 1    
   150   76  197 1    
   151   76  198 1    
   152   76  199 1    
   153   77   78 2    
   154   77   79 am   BACKBONE|DICT|INTERRES
   155   79   80 1    
   156   79  200 1    
   157   80   81 1    
   158   80   82 1    
   159   80  201 1    
   160   81  202 1    
   161   81  203 1    
   162   81  204 1    
   163   82   83 2    
   164   82   84 am   BACKBONE|DICT|INTERRES
   165   84   85 1    
   166   84  205 1    
   167   85   86 1    
   168   85   87 1    
   169   85  206 1    
   170   86  207 1    
   171   86  208 1    
   172   86  209 1    
   173   87   88 2    
   174   87   89 am   BACKBONE|DICT|INTERRES
   175   89   90 1    
   176   89  210 1    
   177   90   91 1    
   178   90   92 1    
   179   90  211 1    
   180   91  212 1    
   181   91  213 1    
   182   91  214 1    
   183   92   93 2    
   184   92   94 am   BACKBONE|DICT|INTERRES
   185   94   95 1    
   186   94  215 1    
   187   95   96 1    
   188   95   97 1    
   189   95  216 1    
   190   96  217 1    
   191   96  218 1    
   192   96  219 1    
   193   97   98 2    
   194   97   99 am   BACKBONE|DICT|INTERRES
   195   99  100 1    
   196   99  220 1    
   197  100  101 1    
   198  100  102 1    
   199  100  221 1    
   200  101  222 1    
   201  101  223 1    
   202  101  224 1    
   203  102  103 2    
   204  102  104 am   BACKBONE|DICT|INTERRES
   205  104  105 1    
   206  104  225 1    
   207  105  106 1    
   208  105  107 1    
   209  105  226 1    
   210  106  227 1    
   211  106  228 1    
   212  106  229 1    
   213  107  108 2    
   214  107  109 am   BACKBONE|DICT|INTERRES
   215  109  110 1    
   216  109  230 1    
   217  110  111 1    
   218  110  112 1    
   219  110  231 1    
   220  111  232 1    
   221  111  233 1    
   222  111  234 1    
   223  112  113 2    
   224  112  114 am   BACKBONE|DICT|INTERRES
   225  114  115 1    
   226  114  235 1    
   227  115  116 1    
   228  115  117 1    
   229  115  236 1    
   230  116  237 1    
   231  116  238 1    
   232  116  239 1    
   233  117  118 2    
   234  117  119 am   BACKBONE|DICT|INTERRES
   235  119  120 1    
   236  119  240 1    
   237  120  121 1    
   238  120  124 1    
   239  120  241 1    
   240  121  122 am   BACKBONE|DICT|INTERRES
   241  121  123 2    
   242  122  242 1    
   243  122  243 1    
   244  124  125 1    
   245  124  244 1    
   246  124  245 1    
   247  125  126 1    
   248  126  246 1    
   249  126  247 1    
@<TRIPOS>SUBSTRUCTURE
     1 UNK         1 GROUP             0       ****    0 ROOT    
