@<TRIPOS>MOLECULE
3R540
247   249    1
SMALL
USER_CHARGES


@<TRIPOS>ATOM
      1 CA          7.4322  -10.4158  -44.9759 C.3       0 UNK        -0.1800 
      2 C           6.7222  -11.2065  -46.0652 C.2       0 UNK         0.5000 
      3 O           7.0566  -11.0653  -47.2411 O.2       0 UNK        -0.5000 
      4 N           5.7309  -12.0227  -45.6827 N.am      1 UNK        -0.5000 
      5 CA          4.9102  -12.9094  -46.5238 C.3       1 UNK         0.1400 
      6 C6          5.7466  -13.9276  -47.3436 C.3       23 UNK        -0.0398 
      7 S7          4.8340  -15.4707  -47.6804 S.3       23 UNK        -0.2404 
      8 C8          4.4216  -15.2549  -49.4404 C.3       23 UNK        -0.0205 
      9 C9          3.5637  -16.3882  -49.9904 C.ar      23 UNK        -0.0193 
     10 C10         2.3830  -16.1027  -50.6845 C.ar      23 UNK        -0.1150 
     11 C11         1.6330  -17.1277  -51.2715 C.ar      23 UNK        -0.0193 
     12 C12         2.0720  -18.4505  -51.1479 C.ar      23 UNK        -0.1150 
     13 C13         3.2176  -18.7556  -50.4103 C.ar      23 UNK        -0.0193 
     14 C14         3.9692  -17.7193  -49.8513 C.ar      23 UNK        -0.1150 
     15 C15         3.6539  -20.2003  -50.2220 C.3       23 UNK        -0.0205 
     16 S16         3.0828  -20.8646  -48.6239 S.3       23 UNK        -0.2404 
     17 C17         1.3715  -21.3838  -48.9964 C.3       23 UNK        -0.0398 
     18 CA          0.9208  -22.5219  -48.0471 C.3       11 UNK         0.1400 
     19 N           0.6954  -22.0536  -46.6752 N.am      11 UNK        -0.5000 
     20 C           0.4944  -22.8618  -45.6246 C.2       10 UNK         0.5000 
     21 O           0.5467  -24.0914  -45.6881 O.2       10 UNK        -0.5000 
     22 CA          0.1134  -22.1871  -44.2940 C.3       10 UNK         0.1400 
     23 CB          1.3513  -21.6102  -43.5914 C.3       10 UNK        -0.1800 
     24 N          -0.9014  -21.1439  -44.4662 N.am      10 UNK        -0.5000 
     25 C          -2.1568  -21.3804  -44.8737 C.2       9 UNK         0.5000 
     26 O          -2.5936  -22.5079  -45.0943 O.2       9 UNK        -0.5000 
     27 CA         -3.0774  -20.1684  -45.1058 C.3       9 UNK         0.1400 
     28 CB         -3.7478  -19.7375  -43.7938 C.3       9 UNK        -0.1800 
     29 N          -2.3929  -19.0283  -45.7130 N.am      9 UNK        -0.5000 
     30 C          -1.8379  -19.0292  -46.9341 C.2       8 UNK         0.5000 
     31 O          -1.8697  -19.9913  -47.7001 O.2       8 UNK        -0.5000 
     32 CA         -1.0535  -17.7674  -47.3375 C.3       8 UNK         0.1400 
     33 CB         -2.0039  -16.6273  -47.7288 C.3       8 UNK        -0.1800 
     34 N          -0.1575  -17.3132  -46.2750 N.am      8 UNK        -0.5000 
     35 C           0.8399  -18.0452  -45.7578 C.2       7 UNK         0.5000 
     36 O           1.1518  -19.1657  -46.1608 O.2       7 UNK        -0.5000 
     37 CA          1.5612  -17.4507  -44.5378 C.3       7 UNK         0.1400 
     38 CB          2.6215  -16.4291  -44.9687 C.3       7 UNK        -0.1800 
     39 N           0.6180  -16.8282  -43.6082 N.am      7 UNK        -0.5000 
     40 C          -0.2250  -17.5175  -42.8262 C.2       6 UNK         0.5000 
     41 O          -0.2718  -18.7466  -42.7916 O.2       6 UNK        -0.5000 
     42 CA         -1.2007  -16.6985  -41.9612 C.3       6 UNK         0.1400 
     43 CB         -0.5226  -16.2486  -40.6586 C.3       6 UNK        -0.1800 
     44 N          -1.7336  -15.5284  -42.6597 N.am      6 UNK        -0.5000 
     45 C          -2.5453  -15.5874  -43.7248 C.2       5 UNK         0.5000 
     46 O          -2.9532  -16.6385  -44.2148 O.2       5 UNK        -0.5000 
     47 CA         -2.9305  -14.2492  -44.3814 C.3       5 UNK         0.1400 
     48 CB         -4.1907  -13.6689  -43.7230 C.3       5 UNK        -0.1800 
     49 N          -1.8614  -13.2474  -44.3506 N.am      5 UNK        -0.5000 
     50 C          -0.6518  -13.4011  -44.9038 C.2       4 UNK         0.5000 
     51 O          -0.2852  -14.4298  -45.4770 O.2       4 UNK        -0.5000 
     52 CA          0.3011  -12.2006  -44.8035 C.3       4 UNK         0.1400 
     53 CB          1.7028  -12.6306  -44.3439 C.3       4 UNK        -0.1800 
     54 N           0.3882  -11.5438  -46.1045 N.am      4 UNK        -0.5000 
     55 C          -0.5088  -10.6571  -46.5606 C.2       3 UNK         0.5000 
     56 O          -1.4666  -10.2687  -45.8887 O.2       3 UNK        -0.5000 
     57 CA         -0.3315  -10.1304  -48.0037 C.3       3 UNK         0.1400 
     58 CB         -0.8344   -8.6809  -48.1738 C.3       3 UNK        -0.1800 
     59 N           1.0267  -10.2802  -48.5391 N.am      3 UNK        -0.5000 
     60 C           2.1494   -9.6968  -48.0963 C.2       2 UNK         0.5000 
     61 O           2.2001   -8.8959  -47.1606 O.2       2 UNK        -0.5000 
     62 CA          3.4485  -10.1307  -48.8025 C.3       2 UNK         0.1400 
     63 CB          4.2925   -8.9160  -49.2212 C.3       2 UNK        -0.1800 
     64 N           4.2640  -11.0076  -47.9626 N.am      2 UNK        -0.5000 
     65 C           3.8813  -12.1648  -47.4072 C.2       1 UNK         0.5000 
     66 O           2.7577  -12.6466  -47.5571 O.2       1 UNK        -0.5000 
     67 C          -0.3087  -23.2770  -48.5945 C.2       11 UNK         0.5000 
     68 O          -0.1437  -24.3345  -49.2022 O.2       11 UNK        -0.5000 
     69 N          -1.5159  -22.7679  -48.3151 N.am      12 UNK        -0.5000 
     70 CA         -2.7825  -23.3951  -48.6873 C.3       12 UNK         0.1400 
     71 CB         -3.9318  -22.4292  -48.4019 C.3       12 UNK        -0.1800 
     72 C          -3.0287  -24.7426  -47.9953 C.2       12 UNK         0.5000 
     73 O          -3.5121  -25.6673  -48.6455 O.2       12 UNK        -0.5000 
     74 N          -2.6674  -24.8485  -46.7102 N.am      13 UNK        -0.5000 
     75 CA         -2.7340  -26.0847  -45.9315 C.3       13 UNK         0.1400 
     76 CB         -2.4476  -25.7820  -44.4531 C.3       13 UNK        -0.1800 
     77 C          -1.7796  -27.1677  -46.4651 C.2       13 UNK         0.5000 
     78 O          -2.1598  -28.3379  -46.5114 O.2       13 UNK        -0.5000 
     79 N          -0.5772  -26.7557  -46.8920 N.am      14 UNK        -0.5000 
     80 CA          0.4098  -27.6220  -47.5373 C.3       14 UNK         0.1400 
     81 CB          1.7663  -26.9024  -47.5900 C.3       14 UNK        -0.1800 
     82 C          -0.0324  -28.0746  -48.9429 C.2       14 UNK         0.5000 
     83 O           0.1465  -29.2427  -49.2895 O.2       14 UNK        -0.5000 
     84 N          -0.6140  -27.1493  -49.7184 N.am      15 UNK        -0.5000 
     85 CA         -1.1299  -27.3905  -51.0680 C.3       15 UNK         0.1400 
     86 CB         -1.3157  -26.0375  -51.7734 C.3       15 UNK        -0.1800 
     87 C          -2.4503  -28.1865  -51.1022 C.2       15 UNK         0.5000 
     88 O          -2.7684  -28.7662  -52.1411 O.2       15 UNK        -0.5000 
     89 N          -3.1968  -28.1735  -49.9877 N.am      16 UNK        -0.5000 
     90 CA         -4.5722  -28.6563  -49.8214 C.3       16 UNK         0.1400 
     91 CB         -4.6655  -30.1828  -50.0268 C.3       16 UNK        -0.1800 
     92 C          -5.5531  -27.8485  -50.6984 C.2       16 UNK         0.5000 
     93 O          -6.3279  -28.4201  -51.4683 O.2       16 UNK        -0.5000 
     94 N          -5.4615  -26.5198  -50.5804 N.am      17 UNK        -0.5000 
     95 CA         -6.1833  -25.5279  -51.3735 C.3       17 UNK         0.1400 
     96 CB         -5.1955  -24.9367  -52.3949 C.3       17 UNK        -0.1800 
     97 C          -6.8022  -24.4472  -50.4648 C.2       17 UNK         0.5000 
     98 O          -6.7181  -24.5466  -49.2385 O.2       17 UNK        -0.5000 
     99 N          -7.4405  -23.4426  -51.0801 N.am      18 UNK        -0.5000 
    100 CA        -8.0659  -22.3079  -50.3988 C.3       18 UNK         0.1400 
    101 CB        -9.1317  -21.6984  -51.3225 C.3       18 UNK        -0.1800 
    102 C         -7.0275  -21.2374  -50.0234 C.2       18 UNK         0.5000 
    103 O         -6.1628  -20.9164  -50.8437 O.2       18 UNK        -0.5000 
    104 N         -7.1605  -20.6674  -48.8170 N.am      19 UNK        -0.5000 
    105 CA        -6.2730  -19.6387  -48.2588 C.3       19 UNK         0.1400 
    106 CB        -6.6794  -19.3400  -46.8083 C.3       19 UNK        -0.1800 
    107 C         -6.2118  -18.3434  -49.0861 C.2       19 UNK         0.5000 
    108 O         -5.1501  -17.7285  -49.1668 O.2       19 UNK        -0.5000 
    109 N         -7.3321  -17.9815  -49.7260 N.am      20 UNK        -0.5000 
    110 CA        -7.4556  -16.8142  -50.6033 C.3       20 UNK         0.1400 
    111 CB        -8.9383  -16.6120  -50.9517 C.3       20 UNK        -0.1800 
    112 C         -6.6097  -16.9075  -51.8904 C.2       20 UNK         0.5000 
    113 O         -6.2598  -15.8717  -52.4571 O.2       20 UNK        -0.5000 
    114 N         -6.2989  -18.1360  -52.3233 N.am      21 UNK        -0.5000 
    115 CA        -5.4810  -18.4342  -53.4996 C.3       21 UNK         0.1400 
    116 CB        -6.1988  -19.5302  -54.3063 C.3       21 UNK        -0.1800 
    117 C         -4.0583  -18.8937  -53.1222 C.2       21 UNK         0.5000 
    118 O         -3.2608  -19.1643  -54.0213 O.2       21 UNK        -0.5000 
    119 N         -3.7774  -19.0147  -51.8168 N.am      22 UNK        -0.5000 
    120 CA        -2.6068  -19.6996  -51.2420 C.3       22 UNK         0.1400 
    121 C         -2.5557  -21.2226  -51.5834 C.2       22 UNK         0.5000 
    122 N         -3.6882  -21.8823  -51.7891 N.am      22 UNK        -0.7600 
    123 O         -1.4862  -21.8207  -51.6663 O.2       22 UNK        -0.5000 
    124 C124       -1.2466  -19.0145  -51.5373 C.3       23 UNK        -0.0398 
    125 S125       -1.1604  -17.2279  -51.1898 S.3       23 UNK        -0.2404 
    126 C126        0.3774  -16.7950  -52.0714 C.3       23 UNK        -0.0205 
    127 H127        8.4952  -10.6567  -44.9707 H         1 UNK         0.0600 
    128 H128        7.0290  -10.6345  -43.9869 H         1 UNK         0.0600 
    129 H129        7.3247   -9.3465  -45.1584 H         1 UNK         0.0600 
    130 H130        5.4996  -12.0544  -44.6993 H         1 UNK         0.3000 
    131 H131        4.3281  -13.4802  -45.7995 H         1 UNK         0.0600 
    132 H132        6.1200  -13.4890  -48.2708 H         1 UNK         0.0800 
    133 H133        6.6339  -14.2144  -46.7776 H         1 UNK         0.0800 
    134 H134        5.3433  -15.2005  -50.0212 H         1 UNK         0.0800 
    135 H135        3.9138  -14.2982  -49.5699 H         1 UNK         0.0800 
    136 H136        2.0610  -15.0764  -50.7927 H         1 UNK         0.1150 
    137 H137        1.5268  -19.2503  -51.6244 H         1 UNK         0.1150 
    138 H138        4.8730  -17.9502  -49.3049 H         1 UNK         0.1150 
    139 H139        3.2994  -20.8261  -51.0422 H         1 UNK         0.0800 
    140 H140        4.7432  -20.2545  -50.2519 H         1 UNK         0.0800 
    141 H141        1.3287  -21.7126  -50.0365 H         1 UNK         0.0800 
    142 H142        0.7081  -20.5209  -48.9155 H         1 UNK         0.0800 
    143 H143        1.7277  -23.2572  -48.0049 H         1 UNK         0.0600 
    144 H144        0.6823  -21.0471  -46.5331 H         1 UNK         0.3000 
    145 H145       -0.3099  -22.9565  -43.6448 H         1 UNK         0.0600 
    146 H146        1.0939  -21.1973  -42.6160 H         1 UNK         0.0600 
    147 H147        2.1021  -22.3844  -43.4288 H         1 UNK         0.0600 
    148 H148        1.8190  -20.8191  -44.1768 H         1 UNK         0.0600 
    149 H149       -0.6241  -20.1938  -44.2463 H         1 UNK         0.3000 
    150 H150       -3.8653  -20.4784  -45.7937 H         1 UNK         0.0600 
    151 H151       -4.2719  -20.5736  -43.3291 H         1 UNK         0.0600 
    152 H152       -4.4824  -18.9510  -43.9674 H         1 UNK         0.0600 
    153 H153       -3.0195  -19.3637  -43.0738 H         1 UNK         0.0600 
    154 H154       -2.3635  -18.1756  -45.1600 H         1 UNK         0.3000 
    155 H155       -0.4394  -18.0166  -48.2055 H         1 UNK         0.0600 
    156 H156       -2.6468  -16.3315  -46.9008 H         1 UNK         0.0600 
    157 H157       -1.4504  -15.7473  -48.0569 H         1 UNK         0.0600 
    158 H158       -2.6521  -16.9295  -48.5515 H         1 UNK         0.0600 
    159 H159       -0.3199  -16.3820  -45.9040 H         1 UNK         0.3000 
    160 H160        2.0704  -18.2631  -44.0149 H         1 UNK         0.0600 
    161 H161        2.2001  -15.6482  -45.6022 H         1 UNK         0.0600 
    162 H162        3.4081  -16.9224  -45.5396 H         1 UNK         0.0600 
    163 H163        3.0932  -15.9528  -44.1093 H         1 UNK         0.0600 
    164 H164        0.5499  -15.8215  -43.6342 H         1 UNK         0.3000 
    165 H165       -2.0393  -17.3482  -41.7019 H         1 UNK         0.0600 
    166 H166       -1.2281  -15.7376  -40.0031 H         1 UNK         0.0600 
    167 H167       -0.1303  -17.1045  -40.1078 H         1 UNK         0.0600 
    168 H168        0.3106  -15.5711  -40.8495 H         1 UNK         0.0600 
    169 H169       -1.4471  -14.6215  -42.3221 H         1 UNK         0.3000 
    170 H170       -3.1585  -14.4522  -45.4294 H         1 UNK         0.0600 
    171 H171       -5.0118  -14.3868  -43.7514 H         1 UNK         0.0600 
    172 H172       -4.0169  -13.4099  -42.6778 H         1 UNK         0.0600 
    173 H173       -4.5285  -12.7709  -44.2406 H         1 UNK         0.0600 
    174 H174       -2.0920  -12.3581  -43.9305 H         1 UNK         0.3000 
    175 H175       -0.0832  -11.4942  -44.0644 H         1 UNK         0.0600 
    176 H176        2.1357  -13.3694  -45.0158 H         1 UNK         0.0600 
    177 H177        2.3821  -11.7792  -44.2984 H         1 UNK         0.0600 
    178 H178        1.6673  -13.0755  -43.3489 H         1 UNK         0.0600 
    179 H179        1.1282  -11.8641  -46.7223 H         1 UNK         0.3000 
    180 H180       -0.9644  -10.7661  -48.6243 H         1 UNK         0.0600 
    181 H181       -0.3049   -7.9880  -47.5195 H         1 UNK         0.0600 
    182 H182       -1.8962   -8.6039  -47.9373 H         1 UNK         0.0600 
    183 H183       -0.7081   -8.3370  -49.2004 H         1 UNK         0.0600 
    184 H184        1.1165  -10.9617  -49.2801 H         1 UNK         0.3000 
    185 H185        3.1901  -10.6863  -49.7062 H         1 UNK         0.0600 
    186 H186        3.7149   -8.2373  -49.8501 H         1 UNK         0.0600 
    187 H187        4.6399   -8.3486  -48.3567 H         1 UNK         0.0600 
    188 H188        5.1685   -9.2229  -49.7930 H         1 UNK         0.0600 
    189 H189        5.2195  -10.7121  -47.7911 H         1 UNK         0.3000 
    190 H190       -1.5757  -21.8639  -47.8543 H         1 UNK         0.3000 
    191 H191       -2.7538  -23.5848  -49.7607 H         1 UNK         0.0600 
    192 H192       -4.0342  -22.2176  -47.3392 H         1 UNK         0.0600 
    193 H193       -4.8786  -22.8381  -48.7453 H         1 UNK         0.0600 
    194 H194       -3.7766  -21.4891  -48.9249 H         1 UNK         0.0600 
    195 H195       -2.3566  -24.0149  -46.2182 H         1 UNK         0.3000 
    196 H196       -3.7520  -26.4724  -46.0077 H         1 UNK         0.0600 
    197 H197       -2.5048  -26.6890  -43.8501 H         1 UNK         0.0600 
    198 H198       -3.1733  -25.0763  -44.0486 H         1 UNK         0.0600 
    199 H199       -1.4540  -25.3558  -44.3134 H         1 UNK         0.0600 
    200 H200       -0.3311  -25.7782  -46.7846 H         1 UNK         0.3000 
    201 H201        0.5278  -28.5164  -46.9220 H         1 UNK         0.0600 
    202 H202        2.1074  -26.6321  -46.5905 H         1 UNK         0.0600 
    203 H203        1.7186  -25.9892  -48.1833 H         1 UNK         0.0600 
    204 H204        2.5300  -27.5423  -48.0336 H         1 UNK         0.0600 
    205 H205       -0.6523  -26.1894  -49.3855 H         1 UNK         0.3000 
    206 H206       -0.3853  -27.9647  -51.6231 H         1 UNK         0.0600 
    207 H207       -0.3749  -25.4900  -51.8334 H         1 UNK         0.0600 
    208 H208       -1.6804  -26.1705  -52.7927 H         1 UNK         0.0600 
    209 H209       -2.0339  -25.4084  -51.2472 H         1 UNK         0.0600 
    210 H210       -2.8620  -27.5909  -49.2297 H         1 UNK         0.3000 
    211 H211       -4.8431  -28.4487  -48.7851 H         1 UNK         0.0600 
    212 H212       -4.4651  -30.4720  -51.0586 H         1 UNK         0.0600 
    213 H213       -5.6625  -30.5464  -49.7760 H         1 UNK         0.0600 
    214 H214       -3.9570  -30.7091  -49.3870 H         1 UNK         0.0600 
    215 H215       -4.8367  -26.1409  -49.8708 H         1 UNK         0.3000 
    216 H216       -7.0093  -25.9985  -51.9103 H         1 UNK         0.0600 
    217 H217       -5.6473  -24.1493  -52.9987 H         1 UNK         0.0600 
    218 H218       -4.8445  -25.7060  -53.0832 H         1 UNK         0.0600 
    219 H219       -4.3202  -24.5228  -51.8967 H         1 UNK         0.0600 
    220 H220       -7.4457  -23.4102  -52.0888 H         1 UNK         0.3000 
    221 H221       -8.5583  -22.6652  -49.4917 H         1 UNK         0.0600 
    222 H222       -8.6962  -21.3242  -52.2503 H         1 UNK         0.0600 
    223 H223       -9.8943  -22.4328  -51.5827 H         1 UNK         0.0600 
    224 H224       -9.6389  -20.8629  -50.8384 H         1 UNK         0.0600 
    225 H225       -7.9079  -20.9805  -48.2142 H         1 UNK         0.3000 
    226 H226       -5.2615  -20.0382  -48.2359 H         1 UNK         0.0600 
    227 H227       -6.6180  -20.2354  -46.1894 H         1 UNK         0.0600 
    228 H228       -6.0176  -18.5954  -46.3630 H         1 UNK         0.0600 
    229 H229       -7.6980  -18.9552  -46.7457 H         1 UNK         0.0600 
    230 H230       -8.1571  -18.5509  -49.6083 H         1 UNK         0.3000 
    231 H231       -7.1108  -15.9390  -50.0487 H         1 UNK         0.0600 
    232 H232       -9.0755  -15.7331  -51.5831 H         1 UNK         0.0600 
    233 H233       -9.5382  -16.4615  -50.0540 H         1 UNK         0.0600 
    234 H234       -9.3455  -17.4693  -51.4894 H         1 UNK         0.0600 
    235 H235       -6.6015  -18.9361  -51.7820 H         1 UNK         0.3000 
    236 H236       -5.3814  -17.5513  -54.1340 H         1 UNK         0.0600 
    237 H237       -7.1992  -19.2121  -54.6001 H         1 UNK         0.0600 
    238 H238       -5.6535  -19.7678  -55.2205 H         1 UNK         0.0600 
    239 H239       -6.2953  -20.4530  -53.7322 H         1 UNK         0.0600 
    240 H240       -4.4796  -18.7265  -51.1501 H         1 UNK         0.3000 
    241 H241       -2.7557  -19.6543  -50.1641 H         1 UNK         0.0600 
    242 H242       -4.5883  -21.4360  -51.6277 H         1 UNK         0.3800 
    243 H243       -3.6427  -22.8494  -52.0546 H         1 UNK         0.3800 
    244 H244       -0.4918  -19.4939  -50.9157 H         1 UNK         0.0800 
    245 H245       -0.9568  -19.1856  -52.5752 H         1 UNK         0.0800 
    246 H246        0.4106  -17.2989  -53.0383 H         1 UNK         0.0800 
    247 H247        0.3499  -15.7276  -52.2951 H         1 UNK         0.0800 
@<TRIPOS>BOND
     1    1    2 1    
     2    1  127 1    
     3    1  128 1    
     4    1  129 1    
     5    2    3 2    
     6    2    4 am   BACKBONE|DICT|INTERRES
     7    4    5 1    
     8    4  130 1    
     9    5    6 1    
    10    5   65 1    
    11    5  131 1    
    12    6    7 1    
    13    6  132 1    
    14    6  133 1    
    15    7    8 1    
    16    8    9 1    
    17    8  134 1    
    18    8  135 1    
    19    9   10 ar   
    20    9   14 ar   
    21   10   11 ar   
    22   10  136 1    
    23   11   12 ar   
    24   11  126 1    
    25   12   13 ar   
    26   12  137 1    
    27   13   14 ar   
    28   13   15 1    
    29   14  138 1    
    30   15   16 1    
    31   15  139 1    
    32   15  140 1    
    33   16   17 1    
    34   17   18 1    
    35   17  141 1    
    36   17  142 1    
    37   18   19 1    
    38   18   67 1    
    39   18  143 1    
    40   19   20 am   BACKBONE|DICT|INTERRES
    41   19  144 1    
    42   20   21 2    
    43   20   22 1    
    44   22   23 1    
    45   22   24 1    
    46   22  145 1    
    47   23  146 1    
    48   23  147 1    
    49   23  148 1    
    50   24   25 am   BACKBONE|DICT|INTERRES
    51   24  149 1    
    52   25   26 2    
    53   25   27 1    
    54   27   28 1    
    55   27   29 1    
    56   27  150 1    
    57   28  151 1    
    58   28  152 1    
    59   28  153 1    
    60   29   30 am   BACKBONE|DICT|INTERRES
    61   29  154 1    
    62   30   31 2    
    63   30   32 1    
    64   32   33 1    
    65   32   34 1    
    66   32  155 1    
    67   33  156 1    
    68   33  157 1    
    69   33  158 1    
    70   34   35 am   BACKBONE|DICT|INTERRES
    71   34  159 1    
    72   35   36 2    
    73   35   37 1    
    74   37   38 1    
    75   37   39 1    
    76   37  160 1    
    77   38  161 1    
    78   38  162 1    
    79   38  163 1    
    80   39   40 am   BACKBONE|DICT|INTERRES
    81   39  164 1    
    82   40   41 2    
    83   40   42 1    
    84   42   43 1    
    85   42   44 1    
    86   42  165 1    
    87   43  166 1    
    88   43  167 1    
    89   43  168 1    
    90   44   45 am   BACKBONE|DICT|INTERRES
    91   44  169 1    
    92   45   46 2    
    93   45   47 1    
    94   47   48 1    
    95   47   49 1    
    96   47  170 1    
    97   48  171 1    
    98   48  172 1    
    99   48  173 1    
   100   49   50 am   BACKBONE|DICT|INTERRES
   101   49  174 1    
   102   50   51 2    
   103   50   52 1    
   104   52   53 1    
   105   52   54 1    
   106   52  175 1    
   107   53  176 1    
   108   53  177 1    
   109   53  178 1    
   110   54   55 am   BACKBONE|DICT|INTERRES
   111   54  179 1    
   112   55   56 2    
   113   55   57 1    
   114   57   58 1    
   115   57   59 1    
   116   57  180 1    
   117   58  181 1    
   118   58  182 1    
   119   58  183 1    
   120   59   60 am   BACKBONE|DICT|INTERRES
   121   59  184 1    
   122   60   61 2    
   123   60   62 1    
   124   62   63 1    
   125   62   64 1    
   126   62  185 1    
   127   63  186 1    
   128   63  187 1    
   129   63  188 1    
   130   64   65 am   BACKBONE|DICT|INTERRES
   131   64  189 1    
   132   65   66 2    
   133   67   68 2    
   134   67   69 am   BACKBONE|DICT|INTERRES
   135   69   70 1    
   136   69  190 1    
   137   70   71 1    
   138   70   72 1    
   139   70  191 1    
   140   71  192 1    
   141   71  193 1    
   142   71  194 1    
   143   72   73 2    
   144   72   74 am   BACKBONE|DICT|INTERRES
   145   74   75 1    
   146   74  195 1    
   147   75   76 1    
   148   75   77 1    
   149   75  196 1    
   150   76  197 1    
   151   76  198 1    
   152   76  199 1    
   153   77   78 2    
   154   77   79 am   BACKBONE|DICT|INTERRES
   155   79   80 1    
   156   79  200 1    
   157   80   81 1    
   158   80   82 1    
   159   80  201 1    
   160   81  202 1    
   161   81  203 1    
   162   81  204 1    
   163   82   83 2    
   164   82   84 am   BACKBONE|DICT|INTERRES
   165   84   85 1    
   166   84  205 1    
   167   85   86 1    
   168   85   87 1    
   169   85  206 1    
   170   86  207 1    
   171   86  208 1    
   172   86  209 1    
   173   87   88 2    
   174   87   89 am   BACKBONE|DICT|INTERRES
   175   89   90 1    
   176   89  210 1    
   177   90   91 1    
   178   90   92 1    
   179   90  211 1    
   180   91  212 1    
   181   91  213 1    
   182   91  214 1    
   183   92   93 2    
   184   92   94 am   BACKBONE|DICT|INTERRES
   185   94   95 1    
   186   94  215 1    
   187   95   96 1    
   188   95   97 1    
   189   95  216 1    
   190   96  217 1    
   191   96  218 1    
   192   96  219 1    
   193   97   98 2    
   194   97   99 am   BACKBONE|DICT|INTERRES
   195   99  100 1    
   196   99  220 1    
   197  100  101 1    
   198  100  102 1    
   199  100  221 1    
   200  101  222 1    
   201  101  223 1    
   202  101  224 1    
   203  102  103 2    
   204  102  104 am   BACKBONE|DICT|INTERRES
   205  104  105 1    
   206  104  225 1    
   207  105  106 1    
   208  105  107 1    
   209  105  226 1    
   210  106  227 1    
   211  106  228 1    
   212  106  229 1    
   213  107  108 2    
   214  107  109 am   BACKBONE|DICT|INTERRES
   215  109  110 1    
   216  109  230 1    
   217  110  111 1    
   218  110  112 1    
   219  110  231 1    
   220  111  232 1    
   221  111  233 1    
   222  111  234 1    
   223  112  113 2    
   224  112  114 am   BACKBONE|DICT|INTERRES
   225  114  115 1    
   226  114  235 1    
   227  115  116 1    
   228  115  117 1    
   229  115  236 1    
   230  116  237 1    
   231  116  238 1    
   232  116  239 1    
   233  117  118 2    
   234  117  119 am   BACKBONE|DICT|INTERRES
   235  119  120 1    
   236  119  240 1    
   237  120  121 1    
   238  120  124 1    
   239  120  241 1    
   240  121  122 am   BACKBONE|DICT|INTERRES
   241  121  123 2    
   242  122  242 1    
   243  122  243 1    
   244  124  125 1    
   245  124  244 1    
   246  124  245 1    
   247  125  126 1    
   248  126  246 1    
   249  126  247 1    
@<TRIPOS>SUBSTRUCTURE
     1 UNK         1 GROUP             0       ****    0 ROOT    
