@<TRIPOS>MOLECULE
3R540
247   249    1
SMALL
USER_CHARGES


@<TRIPOS>ATOM
      1 CA          4.2893  -13.6281  -50.6041 C.3       0 UNK        -0.1800 
      2 C           3.4019  -14.5152  -49.7441 C.2       0 UNK         0.5000 
      3 O           2.2243  -14.6879  -50.0583 O.2       0 UNK        -0.5000 
      4 N           3.9576  -15.0634  -48.6530 N.am      1 UNK        -0.5000 
      5 CA          3.3143  -16.0100  -47.7249 C.3       1 UNK         0.1400 
      6 C6          3.0648  -17.4020  -48.3684 C.3       23 UNK        -0.0398 
      7 S7          4.6338  -18.2308  -48.7972 S.3       23 UNK        -0.2404 
      8 C8          4.6051  -18.1950  -50.6202 C.3       23 UNK        -0.0205 
      9 C9          3.5845  -19.1622  -51.2054 C.ar      23 UNK        -0.0193 
     10 C10         2.5967  -18.7045  -52.0822 C.ar      23 UNK        -0.1150 
     11 C11         1.6735  -19.5981  -52.6309 C.ar      23 UNK        -0.0193 
     12 C12         1.7163  -20.9449  -52.2609 C.ar      23 UNK        -0.1150 
     13 C13         2.6939  -21.4231  -51.3836 C.ar      23 UNK        -0.0193 
     14 C14         3.6454  -20.5229  -50.8867 C.ar      23 UNK        -0.1150 
     15 C15         2.6522  -22.9090  -51.0131 C.3       23 UNK        -0.0205 
     16 S16         4.0796  -23.5908  -50.0925 S.3       23 UNK        -0.2404 
     17 C17         3.9034  -22.8681  -48.4251 C.3       23 UNK        -0.0398 
     18 CA          3.0542  -23.7230  -47.4490 C.3       11 UNK         0.1400 
     19 N           3.5166  -23.5572  -46.0684 N.am      11 UNK        -0.5000 
     20 C           3.0374  -24.2000  -44.9935 C.2       10 UNK         0.5000 
     21 O           2.1832  -25.0831  -45.0427 O.2       10 UNK        -0.5000 
     22 CA          3.5588  -23.7190  -43.6251 C.3       10 UNK         0.1400 
     23 CB          4.8288  -24.4864  -43.2298 C.3       10 UNK        -0.1800 
     24 N           3.8295  -22.2770  -43.5960 N.am      10 UNK        -0.5000 
     25 C           2.9013  -21.3317  -43.7946 C.2       9 UNK         0.5000 
     26 O           1.7097  -21.5761  -43.9999 O.2       9 UNK        -0.5000 
     27 CA          3.4048  -19.8839  -43.8764 C.3       9 UNK         0.1400 
     28 CB          3.7683  -19.5388  -45.3291 C.3       9 UNK        -0.1800 
     29 N           2.3640  -18.9666  -43.4258 N.am      9 UNK        -0.5000 
     30 C           2.1980  -18.5730  -42.1583 C.2       8 UNK         0.5000 
     31 O           2.9602  -18.8719  -41.2379 O.2       8 UNK        -0.5000 
     32 CA          0.9689  -17.6931  -41.8740 C.3       8 UNK         0.1400 
     33 CB          1.2973  -16.2141  -42.1301 C.3       8 UNK        -0.1800 
     34 N          -0.2016  -18.0650  -42.6707 N.am      8 UNK        -0.5000 
     35 C          -0.9344  -19.1733  -42.4835 C.2       7 UNK         0.5000 
     36 O          -0.6494  -20.0475  -41.6637 O.2       7 UNK        -0.5000 
     37 CA         -2.2199  -19.2914  -43.3354 C.3       7 UNK         0.1400 
     38 CB         -3.2354  -20.2964  -42.7560 C.3       7 UNK        -0.1800 
     39 N          -2.8596  -17.9928  -43.5960 N.am      7 UNK        -0.5000 
     40 C          -3.2924  -17.1021  -42.6858 C.2       6 UNK         0.5000 
     41 O          -3.2789  -17.3027  -41.4709 O.2       6 UNK        -0.5000 
     42 CA         -3.7811  -15.7331  -43.2023 C.3       6 UNK         0.1400 
     43 CB         -2.7222  -14.6550  -42.9208 C.3       6 UNK        -0.1800 
     44 N          -4.0831  -15.7199  -44.6331 N.am      6 UNK        -0.5000 
     45 C          -5.2007  -16.2144  -45.1803 C.2       5 UNK         0.5000 
     46 O          -6.1240  -16.7050  -44.5305 O.2       5 UNK        -0.5000 
     47 CA         -5.2940  -16.1635  -46.7180 C.3       5 UNK         0.1400 
     48 CB         -5.9610  -14.8501  -47.1573 C.3       5 UNK        -0.1800 
     49 N          -4.0067  -16.2987  -47.4097 N.am      5 UNK        -0.5000 
     50 C          -3.1362  -17.3071  -47.2802 C.2       4 UNK         0.5000 
     51 O          -3.3020  -18.2389  -46.4958 O.2       4 UNK        -0.5000 
     52 CA         -1.8536  -17.2906  -48.1347 C.3       4 UNK         0.1400 
     53 CB         -1.9803  -18.2370  -49.3392 C.3       4 UNK        -0.1800 
     54 N          -1.3489  -15.9759  -48.5402 N.am      4 UNK        -0.5000 
     55 C          -1.9165  -15.0259  -49.2972 C.2       3 UNK         0.5000 
     56 O          -3.0425  -15.1288  -49.7784 O.2       3 UNK        -0.5000 
     57 CA         -1.1000  -13.7351  -49.5236 C.3       3 UNK         0.1400 
     58 CB         -1.9932  -12.4918  -49.7156 C.3       3 UNK        -0.1800 
     59 N          -0.0879  -13.5053  -48.4851 N.am      3 UNK        -0.5000 
     60 C          -0.2935  -13.3097  -47.1712 C.2       2 UNK         0.5000 
     61 O          -1.4101  -13.2013  -46.6617 O.2       2 UNK        -0.5000 
     62 CA          0.9681  -13.2808  -46.2770 C.3       2 UNK         0.1400 
     63 CB          0.6641  -13.6570  -44.8121 C.3       2 UNK        -0.1800 
     64 N           2.0696  -14.1026  -46.8002 N.am      2 UNK        -0.5000 
     65 C           2.0483  -15.4215  -47.0570 C.2       1 UNK         0.5000 
     66 O           1.0761  -16.1426  -46.8274 O.2       1 UNK        -0.5000 
     67 C           1.5580  -23.3724  -47.5840 C.2       11 UNK         0.5000 
     68 O           0.7873  -24.1552  -48.1368 O.2       11 UNK        -0.5000 
     69 N           1.1776  -22.2050  -47.0465 N.am      12 UNK        -0.5000 
     70 CA         -0.1868  -21.6848  -47.0686 C.3       12 UNK         0.1400 
     71 CB         -0.1758  -20.2147  -46.6363 C.3       12 UNK        -0.1800 
     72 C          -1.1447  -22.5047  -46.1910 C.2       12 UNK         0.5000 
     73 O          -2.2907  -22.7199  -46.5857 O.2       12 UNK        -0.5000 
     74 N          -0.6490  -22.9730  -45.0380 N.am      13 UNK        -0.5000 
     75 CA         -1.3578  -23.8844  -44.1426 C.3       13 UNK         0.1400 
     76 CB         -0.5765  -24.0281  -42.8289 C.3       13 UNK        -0.1800 
     77 C          -1.6170  -25.2557  -44.7946 C.2       13 UNK         0.5000 
     78 O          -2.7424  -25.7497  -44.7283 O.2       13 UNK        -0.5000 
     79 N          -0.5977  -25.8188  -45.4614 N.am      14 UNK        -0.5000 
     80 CA         -0.6897  -27.0654  -46.2287 C.3       14 UNK         0.1400 
     81 CB          0.7147  -27.5078  -46.6662 C.3       14 UNK        -0.1800 
     82 C          -1.6290  -26.9560  -47.4452 C.2       14 UNK         0.5000 
     83 O          -2.3471  -27.9094  -47.7473 O.2       14 UNK        -0.5000 
     84 N          -1.6400  -25.7823  -48.0915 N.am      15 UNK        -0.5000 
     85 CA         -2.5503  -25.4245  -49.1820 C.3       15 UNK         0.1400 
     86 CB         -1.9520  -24.2410  -49.9589 C.3       15 UNK        -0.1800 
     87 C          -3.9873  -25.1017  -48.7138 C.2       15 UNK         0.5000 
     88 O          -4.8520  -24.8791  -49.5618 O.2       15 UNK        -0.5000 
     89 N          -4.2174  -25.0798  -47.3917 N.am      16 UNK        -0.5000 
     90 CA         -5.4827  -24.8110  -46.7039 C.3       16 UNK         0.1400 
     91 CB         -6.5180  -25.9151  -47.0060 C.3       16 UNK        -0.1800 
     92 C          -6.0132  -23.3850  -46.9567 C.2       16 UNK         0.5000 
     93 O          -7.2117  -23.2051  -47.1795 O.2       16 UNK        -0.5000 
     94 N          -5.0998  -22.4038  -46.8968 N.am      17 UNK        -0.5000 
     95 CA         -5.3115  -20.9673  -47.0881 C.3       17 UNK         0.1400 
     96 CB         -6.2157  -20.3829  -45.9834 C.3       17 UNK        -0.1800 
     97 C          -5.8115  -20.6483  -48.5096 C.2       17 UNK         0.5000 
     98 O          -6.9830  -20.3213  -48.7052 O.2       17 UNK        -0.5000 
     99 N          -4.8970  -20.7752  -49.4813 N.am      18 UNK        -0.5000 
    100 CA        -5.1372  -20.6193  -50.9218 C.3       18 UNK         0.1400 
    101 CB        -3.8428  -20.9743  -51.6651 C.3       18 UNK        -0.1800 
    102 C         -5.6588  -19.2334  -51.3648 C.2       18 UNK         0.5000 
    103 O         -6.2745  -19.1366  -52.4278 O.2       18 UNK        -0.5000 
    104 N         -5.4251  -18.2054  -50.5357 N.am      19 UNK        -0.5000 
    105 CA        -5.9651  -16.8463  -50.6149 C.3       19 UNK         0.1400 
    106 CB        -7.4393  -16.8466  -50.1553 C.3       19 UNK        -0.1800 
    107 C         -5.7355  -16.1706  -51.9818 C.2       19 UNK         0.5000 
    108 O         -4.5929  -15.8592  -52.3164 O.2       19 UNK        -0.5000 
    109 N         -6.8105  -15.9641  -52.7554 N.am      20 UNK        -0.5000 
    110 CA        -6.8298  -15.2750  -54.0505 C.3       20 UNK         0.1400 
    111 CB        -8.2786  -15.2256  -54.5597 C.3       20 UNK        -0.1800 
    112 C         -5.9002  -15.8687  -55.1297 C.2       20 UNK         0.5000 
    113 O         -5.5436  -15.1576  -56.0700 O.2       20 UNK        -0.5000 
    114 N         -5.5076  -17.1406  -54.9753 N.am      21 UNK        -0.5000 
    115 CA        -4.5120  -17.8025  -55.8180 C.3       21 UNK         0.1400 
    116 CB        -4.6053  -19.3187  -55.5965 C.3       21 UNK        -0.1800 
    117 C         -3.0700  -17.3112  -55.5667 C.2       21 UNK         0.5000 
    118 O         -2.2312  -17.4577  -56.4572 O.2       21 UNK        -0.5000 
    119 N         -2.8033  -16.7556  -54.3769 N.am      22 UNK        -0.5000 
    120 CA        -1.4812  -16.2764  -53.9395 C.3       22 UNK         0.1400 
    121 C         -1.4605  -14.7470  -53.6787 C.2       22 UNK         0.5000 
    122 N         -2.5410  -14.1462  -53.1968 N.am      22 UNK        -0.7600 
    123 O         -0.4517  -14.0934  -53.9276 O.2       22 UNK        -0.5000 
    124 C124       -0.9709  -17.0327  -52.6858 C.3       23 UNK        -0.0398 
    125 S125       -0.9779  -18.8451  -52.8984 S.3       23 UNK        -0.2404 
    126 C126        0.6491  -19.1316  -53.6524 C.3       23 UNK        -0.0205 
    127 H127        5.3014  -13.5573  -50.2050 H         1 UNK         0.0600 
    128 H128        3.8731  -12.6223  -50.6594 H         1 UNK         0.0600 
    129 H129        4.3498  -14.0295  -51.6156 H         1 UNK         0.0600 
    130 H130        4.9291  -14.8681  -48.4542 H         1 UNK         0.3000 
    131 H131        4.0184  -16.1522  -46.9035 H         1 UNK         0.0600 
    132 H132        2.5380  -18.0626  -47.6798 H         1 UNK         0.0800 
    133 H133        2.4244  -17.3181  -49.2478 H         1 UNK         0.0800 
    134 H134        4.4195  -17.1743  -50.9573 H         1 UNK         0.0800 
    135 H135        5.5942  -18.4663  -50.9911 H         1 UNK         0.0800 
    136 H136        2.5577  -17.6587  -52.3532 H         1 UNK         0.1150 
    137 H137        0.9852  -21.6286  -52.6700 H         1 UNK         0.1150 
    138 H138        4.4379  -20.8582  -50.2366 H         1 UNK         0.1150 
    139 H139        1.7360  -23.1050  -50.4568 H         1 UNK         0.0800 
    140 H140        2.5668  -23.4845  -51.9360 H         1 UNK         0.0800 
    141 H141        4.9227  -22.7832  -48.0454 H         1 UNK         0.0800 
    142 H142        3.5381  -21.8421  -48.4790 H         1 UNK         0.0800 
    143 H143        3.1763  -24.7795  -47.6975 H         1 UNK         0.0600 
    144 H144        4.2260  -22.8571  -45.9134 H         1 UNK         0.3000 
    145 H145        2.7866  -23.9298  -42.8827 H         1 UNK         0.0600 
    146 H146        5.1614  -24.2098  -42.2292 H         1 UNK         0.0600 
    147 H147        4.6482  -25.5623  -43.2247 H         1 UNK         0.0600 
    148 H148        5.6492  -24.2945  -43.9224 H         1 UNK         0.0600 
    149 H149        4.7889  -22.0018  -43.4410 H         1 UNK         0.3000 
    150 H150        4.2961  -19.7738  -43.2549 H         1 UNK         0.0600 
    151 H151        4.5809  -20.1686  -45.6930 H         1 UNK         0.0600 
    152 H152        4.0994  -18.5039  -45.4173 H         1 UNK         0.0600 
    153 H153        2.9206  -19.6773  -46.0001 H         1 UNK         0.0600 
    154 H154        1.6541  -18.7214  -44.0986 H         1 UNK         0.3000 
    155 H155        0.7119  -17.8080  -40.8188 H         1 UNK         0.0600 
    156 H156        0.4466  -15.5722  -41.8997 H         1 UNK         0.0600 
    157 H157        1.5804  -16.0405  -43.1688 H         1 UNK         0.0600 
    158 H158        2.1295  -15.8863  -41.5057 H         1 UNK         0.0600 
    159 H159       -0.5161  -17.3945  -43.3554 H         1 UNK         0.3000 
    160 H160       -1.9053  -19.6757  -44.3053 H         1 UNK         0.0600 
    161 H161       -3.5673  -20.0078  -41.7585 H         1 UNK         0.0600 
    162 H162       -2.7999  -21.2932  -42.6808 H         1 UNK         0.0600 
    163 H163       -4.1152  -20.3757  -43.3927 H         1 UNK         0.0600 
    164 H164       -2.9813  -17.7699  -44.5784 H         1 UNK         0.3000 
    165 H165       -4.6866  -15.4756  -42.6486 H         1 UNK         0.0600 
    166 H166       -1.7892  -14.8636  -43.4440 H         1 UNK         0.0600 
    167 H167       -3.0681  -13.6692  -43.2326 H         1 UNK         0.0600 
    168 H168       -2.4944  -14.5964  -41.8556 H         1 UNK         0.0600 
    169 H169       -3.3859  -15.3203  -45.2451 H         1 UNK         0.3000 
    170 H170       -5.9248  -16.9952  -47.0370 H         1 UNK         0.0600 
    171 H171       -6.9348  -14.7278  -46.6812 H         1 UNK         0.0600 
    172 H172       -5.3534  -13.9847  -46.8894 H         1 UNK         0.0600 
    173 H173       -6.1242  -14.8192  -48.2333 H         1 UNK         0.0600 
    174 H174       -3.7932  -15.6048  -48.1208 H         1 UNK         0.3000 
    175 H175       -1.0707  -17.6854  -47.4894 H         1 UNK         0.0600 
    176 H176       -2.2985  -19.2321  -49.0270 H         1 UNK         0.0600 
    177 H177       -2.7037  -17.8722  -50.0671 H         1 UNK         0.0600 
    178 H178       -1.0216  -18.3523  -49.8448 H         1 UNK         0.0600 
    179 H179       -0.4422  -15.7583  -48.1407 H         1 UNK         0.3000 
    180 H180       -0.5502  -13.8911  -50.4529 H         1 UNK         0.0600 
    181 H181       -2.6357  -12.3148  -48.8528 H         1 UNK         0.0600 
    182 H182       -2.6428  -12.6084  -50.5836 H         1 UNK         0.0600 
    183 H183       -1.3935  -11.5966  -49.8788 H         1 UNK         0.0600 
    184 H184        0.8665  -13.6397  -48.8002 H         1 UNK         0.3000 
    185 H185        1.3211  -12.2487  -46.2872 H         1 UNK         0.0600 
    186 H186        1.5648  -13.6190  -44.1996 H         1 UNK         0.0600 
    187 H187       -0.0562  -12.9680  -44.3695 H         1 UNK         0.0600 
    188 H188        0.2466  -14.6606  -44.7345 H         1 UNK         0.0600 
    189 H189        2.9107  -13.5976  -47.0431 H         1 UNK         0.3000 
    190 H190        1.8575  -21.6578  -46.5422 H         1 UNK         0.3000 
    191 H191       -0.5529  -21.7331  -48.0961 H         1 UNK         0.0600 
    192 H192        0.4117  -19.6061  -47.3239 H         1 UNK         0.0600 
    193 H193       -1.1903  -19.8200  -46.6269 H         1 UNK         0.0600 
    194 H194        0.2343  -20.0844  -45.6352 H         1 UNK         0.0600 
    195 H195        0.2841  -22.6857  -44.7573 H         1 UNK         0.3000 
    196 H196       -2.3272  -23.4376  -43.9124 H         1 UNK         0.0600 
    197 H197       -1.1174  -24.6568  -42.1208 H         1 UNK         0.0600 
    198 H198       -0.4232  -23.0581  -42.3544 H         1 UNK         0.0600 
    199 H199        0.4020  -24.4804  -42.9888 H         1 UNK         0.0600 
    200 H200        0.3156  -25.3732  -45.4362 H         1 UNK         0.3000 
    201 H201       -1.0958  -27.8336  -45.5674 H         1 UNK         0.0600 
    202 H202        1.3598  -27.6781  -45.8041 H         1 UNK         0.0600 
    203 H203        1.1937  -26.7601  -47.2992 H         1 UNK         0.0600 
    204 H204        0.6737  -28.4400  -47.2307 H         1 UNK         0.0600 
    205 H205       -0.9535  -25.0811  -47.8309 H         1 UNK         0.3000 
    206 H206       -2.6168  -26.2748  -49.8635 H         1 UNK         0.0600 
    207 H207       -0.9372  -24.4577  -50.2932 H         1 UNK         0.0600 
    208 H208       -2.5424  -24.0246  -50.8490 H         1 UNK         0.0600 
    209 H209       -1.9208  -23.3359  -49.3524 H         1 UNK         0.0600 
    210 H210       -3.4310  -25.2547  -46.7788 H         1 UNK         0.3000 
    211 H211       -5.2600  -24.8606  -45.6373 H         1 UNK         0.0600 
    212 H212       -6.8395  -25.8979  -48.0477 H         1 UNK         0.0600 
    213 H213       -7.4084  -25.7945  -46.3879 H         1 UNK         0.0600 
    214 H214       -6.1105  -26.9041  -46.7965 H         1 UNK         0.0600 
    215 H215       -4.1286  -22.6713  -46.7439 H         1 UNK         0.3000 
    216 H216       -4.3286  -20.5097  -46.9813 H         1 UNK         0.0600 
    217 H217       -5.8263  -20.6127  -44.9928 H         1 UNK         0.0600 
    218 H218       -7.2344  -20.7675  -46.0379 H         1 UNK         0.0600 
    219 H219       -6.2719  -19.2972  -46.0653 H         1 UNK         0.0600 
    220 H220       -3.9722  -21.0845  -49.2223 H         1 UNK         0.3000 
    221 H221       -5.9002  -21.3482  -51.2021 H         1 UNK         0.0600 
    222 H222       -3.0255  -20.3119  -51.3816 H         1 UNK         0.0600 
    223 H223       -3.5353  -21.9968  -51.4517 H         1 UNK         0.0600 
    224 H224       -3.9714  -20.9001  -52.7441 H         1 UNK         0.0600 
    225 H225       -4.8818  -18.4049  -49.7109 H         1 UNK         0.3000 
    226 H226       -5.3993  -16.2548  -49.8983 H         1 UNK         0.0600 
    227 H227       -7.5257  -17.2237  -49.1360 H         1 UNK         0.0600 
    228 H228       -7.8566  -15.8388  -50.1585 H         1 UNK         0.0600 
    229 H229       -8.0675  -17.4750  -50.7877 H         1 UNK         0.0600 
    230 H230       -7.7028  -16.2914  -52.4154 H         1 UNK         0.3000 
    231 H231       -6.4952  -14.2508  -53.8742 H         1 UNK         0.0600 
    232 H232       -8.3434  -14.6906  -55.5082 H         1 UNK         0.0600 
    233 H233       -8.9291  -14.7093  -53.8534 H         1 UNK         0.0600 
    234 H234       -8.6813  -16.2267  -54.7193 H         1 UNK         0.0600 
    235 H235       -5.8451  -17.6589  -54.1731 H         1 UNK         0.3000 
    236 H236       -4.7532  -17.5970  -56.8631 H         1 UNK         0.0600 
    237 H237       -5.6045  -19.6921  -55.8212 H         1 UNK         0.0600 
    238 H238       -3.9041  -19.8533  -56.2386 H         1 UNK         0.0600 
    239 H239       -4.3722  -19.5810  -54.5655 H         1 UNK         0.0600 
    240 H240       -3.5571  -16.6259  -53.7095 H         1 UNK         0.3000 
    241 H241       -0.7533  -16.4513  -54.7336 H         1 UNK         0.0600 
    242 H242       -3.3471  -14.6926  -52.8992 H         1 UNK         0.3800 
    243 H243       -2.5301  -13.1506  -53.0502 H         1 UNK         0.3800 
    244 H244       -1.6069  -16.7970  -51.8324 H         1 UNK         0.0800 
    245 H245        0.0349  -16.7076  -52.4130 H         1 UNK         0.0800 
    246 H246        0.5406  -19.8932  -54.4260 H         1 UNK         0.0800 
    247 H247        0.9955  -18.2339  -54.1665 H         1 UNK         0.0800 
@<TRIPOS>BOND
     1    1    2 1    
     2    1  127 1    
     3    1  128 1    
     4    1  129 1    
     5    2    3 2    
     6    2    4 am   BACKBONE|DICT|INTERRES
     7    4    5 1    
     8    4  130 1    
     9    5    6 1    
    10    5   65 1    
    11    5  131 1    
    12    6    7 1    
    13    6  132 1    
    14    6  133 1    
    15    7    8 1    
    16    8    9 1    
    17    8  134 1    
    18    8  135 1    
    19    9   10 ar   
    20    9   14 ar   
    21   10   11 ar   
    22   10  136 1    
    23   11   12 ar   
    24   11  126 1    
    25   12   13 ar   
    26   12  137 1    
    27   13   14 ar   
    28   13   15 1    
    29   14  138 1    
    30   15   16 1    
    31   15  139 1    
    32   15  140 1    
    33   16   17 1    
    34   17   18 1    
    35   17  141 1    
    36   17  142 1    
    37   18   19 1    
    38   18   67 1    
    39   18  143 1    
    40   19   20 am   BACKBONE|DICT|INTERRES
    41   19  144 1    
    42   20   21 2    
    43   20   22 1    
    44   22   23 1    
    45   22   24 1    
    46   22  145 1    
    47   23  146 1    
    48   23  147 1    
    49   23  148 1    
    50   24   25 am   BACKBONE|DICT|INTERRES
    51   24  149 1    
    52   25   26 2    
    53   25   27 1    
    54   27   28 1    
    55   27   29 1    
    56   27  150 1    
    57   28  151 1    
    58   28  152 1    
    59   28  153 1    
    60   29   30 am   BACKBONE|DICT|INTERRES
    61   29  154 1    
    62   30   31 2    
    63   30   32 1    
    64   32   33 1    
    65   32   34 1    
    66   32  155 1    
    67   33  156 1    
    68   33  157 1    
    69   33  158 1    
    70   34   35 am   BACKBONE|DICT|INTERRES
    71   34  159 1    
    72   35   36 2    
    73   35   37 1    
    74   37   38 1    
    75   37   39 1    
    76   37  160 1    
    77   38  161 1    
    78   38  162 1    
    79   38  163 1    
    80   39   40 am   BACKBONE|DICT|INTERRES
    81   39  164 1    
    82   40   41 2    
    83   40   42 1    
    84   42   43 1    
    85   42   44 1    
    86   42  165 1    
    87   43  166 1    
    88   43  167 1    
    89   43  168 1    
    90   44   45 am   BACKBONE|DICT|INTERRES
    91   44  169 1    
    92   45   46 2    
    93   45   47 1    
    94   47   48 1    
    95   47   49 1    
    96   47  170 1    
    97   48  171 1    
    98   48  172 1    
    99   48  173 1    
   100   49   50 am   BACKBONE|DICT|INTERRES
   101   49  174 1    
   102   50   51 2    
   103   50   52 1    
   104   52   53 1    
   105   52   54 1    
   106   52  175 1    
   107   53  176 1    
   108   53  177 1    
   109   53  178 1    
   110   54   55 am   BACKBONE|DICT|INTERRES
   111   54  179 1    
   112   55   56 2    
   113   55   57 1    
   114   57   58 1    
   115   57   59 1    
   116   57  180 1    
   117   58  181 1    
   118   58  182 1    
   119   58  183 1    
   120   59   60 am   BACKBONE|DICT|INTERRES
   121   59  184 1    
   122   60   61 2    
   123   60   62 1    
   124   62   63 1    
   125   62   64 1    
   126   62  185 1    
   127   63  186 1    
   128   63  187 1    
   129   63  188 1    
   130   64   65 am   BACKBONE|DICT|INTERRES
   131   64  189 1    
   132   65   66 2    
   133   67   68 2    
   134   67   69 am   BACKBONE|DICT|INTERRES
   135   69   70 1    
   136   69  190 1    
   137   70   71 1    
   138   70   72 1    
   139   70  191 1    
   140   71  192 1    
   141   71  193 1    
   142   71  194 1    
   143   72   73 2    
   144   72   74 am   BACKBONE|DICT|INTERRES
   145   74   75 1    
   146   74  195 1    
   147   75   76 1    
   148   75   77 1    
   149   75  196 1    
   150   76  197 1    
   151   76  198 1    
   152   76  199 1    
   153   77   78 2    
   154   77   79 am   BACKBONE|DICT|INTERRES
   155   79   80 1    
   156   79  200 1    
   157   80   81 1    
   158   80   82 1    
   159   80  201 1    
   160   81  202 1    
   161   81  203 1    
   162   81  204 1    
   163   82   83 2    
   164   82   84 am   BACKBONE|DICT|INTERRES
   165   84   85 1    
   166   84  205 1    
   167   85   86 1    
   168   85   87 1    
   169   85  206 1    
   170   86  207 1    
   171   86  208 1    
   172   86  209 1    
   173   87   88 2    
   174   87   89 am   BACKBONE|DICT|INTERRES
   175   89   90 1    
   176   89  210 1    
   177   90   91 1    
   178   90   92 1    
   179   90  211 1    
   180   91  212 1    
   181   91  213 1    
   182   91  214 1    
   183   92   93 2    
   184   92   94 am   BACKBONE|DICT|INTERRES
   185   94   95 1    
   186   94  215 1    
   187   95   96 1    
   188   95   97 1    
   189   95  216 1    
   190   96  217 1    
   191   96  218 1    
   192   96  219 1    
   193   97   98 2    
   194   97   99 am   BACKBONE|DICT|INTERRES
   195   99  100 1    
   196   99  220 1    
   197  100  101 1    
   198  100  102 1    
   199  100  221 1    
   200  101  222 1    
   201  101  223 1    
   202  101  224 1    
   203  102  103 2    
   204  102  104 am   BACKBONE|DICT|INTERRES
   205  104  105 1    
   206  104  225 1    
   207  105  106 1    
   208  105  107 1    
   209  105  226 1    
   210  106  227 1    
   211  106  228 1    
   212  106  229 1    
   213  107  108 2    
   214  107  109 am   BACKBONE|DICT|INTERRES
   215  109  110 1    
   216  109  230 1    
   217  110  111 1    
   218  110  112 1    
   219  110  231 1    
   220  111  232 1    
   221  111  233 1    
   222  111  234 1    
   223  112  113 2    
   224  112  114 am   BACKBONE|DICT|INTERRES
   225  114  115 1    
   226  114  235 1    
   227  115  116 1    
   228  115  117 1    
   229  115  236 1    
   230  116  237 1    
   231  116  238 1    
   232  116  239 1    
   233  117  118 2    
   234  117  119 am   BACKBONE|DICT|INTERRES
   235  119  120 1    
   236  119  240 1    
   237  120  121 1    
   238  120  124 1    
   239  120  241 1    
   240  121  122 am   BACKBONE|DICT|INTERRES
   241  121  123 2    
   242  122  242 1    
   243  122  243 1    
   244  124  125 1    
   245  124  244 1    
   246  124  245 1    
   247  125  126 1    
   248  126  246 1    
   249  126  247 1    
@<TRIPOS>SUBSTRUCTURE
     1 UNK         1 GROUP             0       ****    0 ROOT    
