@<TRIPOS>MOLECULE
3R540
247   249    1
SMALL
USER_CHARGES


@<TRIPOS>ATOM
      1 CA         -2.0104  -10.1728  -48.8338 C.3       0 UNK        -0.1800 
      2 C          -1.0812  -11.0073  -47.9667 C.2       0 UNK         0.5000 
      3 O           0.1371  -10.8554  -48.0469 O.2       0 UNK        -0.5000 
      4 N          -1.6469  -11.8857  -47.1296 N.am      1 UNK        -0.5000 
      5 CA         -0.9431  -12.8189  -46.2346 C.3       1 UNK         0.1400 
      6 C6         -1.8986  -13.8785  -45.6333 C.3       23 UNK        -0.0398 
      7 S7         -3.4317  -13.1793  -44.9235 S.3       23 UNK        -0.2404 
      8 C8         -4.5050  -14.6536  -44.8282 C.3       23 UNK        -0.0205 
      9 C9         -4.6480  -15.4006  -46.1511 C.ar      23 UNK        -0.0193 
     10 C10        -4.8991  -14.7133  -47.3430 C.ar      23 UNK        -0.1150 
     11 C11        -4.9715  -15.3988  -48.5583 C.ar      23 UNK        -0.0193 
     12 C12        -4.8549  -16.7914  -48.5663 C.ar      23 UNK        -0.1150 
     13 C13        -4.6529  -17.5017  -47.3792 C.ar      23 UNK        -0.0193 
     14 C14        -4.5218  -16.7926  -46.1786 C.ar      23 UNK        -0.1150 
     15 C15        -4.5781  -19.0268  -47.4363 C.3       23 UNK        -0.0205 
     16 S16        -5.2469  -19.8702  -45.9590 S.3       23 UNK        -0.2404 
     17 C17        -3.7063  -20.2911  -45.0769 C.3       23 UNK        -0.0398 
     18 CA         -3.2437  -21.7291  -45.4320 C.3       11 UNK         0.1400 
     19 N          -1.8317  -21.7926  -45.8227 N.am      11 UNK        -0.5000 
     20 C          -1.2216  -22.8652  -46.3474 C.2       10 UNK         0.5000 
     21 O          -1.7959  -23.9346  -46.5568 O.2       10 UNK        -0.5000 
     22 CA          0.2724  -22.7374  -46.6875 C.3       10 UNK         0.1400 
     23 CB          0.4400  -22.3454  -48.1622 C.3       10 UNK        -0.1800 
     24 N           0.9842  -21.7821  -45.8355 N.am      10 UNK        -0.5000 
     25 C           1.1399  -21.9149  -44.5095 C.2       9 UNK         0.5000 
     26 O           0.7190  -22.8765  -43.8660 O.2       9 UNK        -0.5000 
     27 CA          1.8400  -20.7604  -43.7717 C.3       9 UNK         0.1400 
     28 CB          3.3641  -20.8468  -43.9427 C.3       9 UNK        -0.1800 
     29 N           1.3723  -19.4457  -44.2099 N.am      9 UNK        -0.5000 
     30 C           0.1260  -18.9775  -44.0461 C.2       8 UNK         0.5000 
     31 O          -0.7726  -19.5940  -43.4732 O.2       8 UNK        -0.5000 
     32 CA         -0.1753  -17.6046  -44.6775 C.3       8 UNK         0.1400 
     33 CB          0.4437  -16.4746  -43.8371 C.3       8 UNK        -0.1800 
     34 N           0.3075  -17.5170  -46.0574 N.am      8 UNK        -0.5000 
     35 C          -0.0912  -18.3158  -47.0592 C.2       7 UNK         0.5000 
     36 O          -0.9607  -19.1780  -46.9478 O.2       7 UNK        -0.5000 
     37 CA          0.6490  -18.1660  -48.3970 C.3       7 UNK         0.1400 
     38 CB          0.0269  -17.0458  -49.2428 C.3       7 UNK        -0.1800 
     39 N           2.0783  -17.9202  -48.1971 N.am      7 UNK        -0.5000 
     40 C           2.9412  -18.8444  -47.7474 C.2       6 UNK         0.5000 
     41 O           2.6260  -20.0076  -47.5001 O.2       6 UNK        -0.5000 
     42 CA          4.3863  -18.3823  -47.4825 C.3       6 UNK         0.1400 
     43 CB          5.2015  -18.3785  -48.7839 C.3       6 UNK        -0.1800 
     44 N           4.4471  -17.0568  -46.8667 N.am      6 UNK        -0.5000 
     45 C           3.9827  -16.7653  -45.6431 C.2       5 UNK         0.5000 
     46 O           3.5262  -17.6081  -44.8718 O.2       5 UNK        -0.5000 
     47 CA          3.9780  -15.2784  -45.2339 C.3       5 UNK         0.1400 
     48 CB          5.2595  -14.9244  -44.4663 C.3       5 UNK        -0.1800 
     49 N           3.8246  -14.3595  -46.3654 N.am      5 UNK        -0.5000 
     50 C           2.7770  -14.3318  -47.1980 C.2       4 UNK         0.5000 
     51 O           1.8062  -15.0844  -47.0929 O.2       4 UNK        -0.5000 
     52 CA          2.8465  -13.3014  -48.3397 C.3       4 UNK         0.1400 
     53 CB          1.7729  -13.5393  -49.4168 C.3       4 UNK        -0.1800 
     54 N           2.7181  -11.9389  -47.8295 N.am      4 UNK        -0.5000 
     55 C           3.6982  -11.2247  -47.2593 C.2       3 UNK         0.5000 
     56 O           4.8429  -11.6500  -47.0950 O.2       3 UNK        -0.5000 
     57 CA          3.3316   -9.8131  -46.7747 C.3       3 UNK         0.1400 
     58 CB          3.1877   -8.8498  -47.9637 C.3       3 UNK        -0.1800 
     59 N           2.0782   -9.8436  -46.0240 N.am      3 UNK        -0.5000 
     60 C           1.9824   -9.8041  -44.6875 C.2       2 UNK         0.5000 
     61 O           2.9429   -9.6392  -43.9345 O.2       2 UNK        -0.5000 
     62 CA          0.5751   -9.9961  -44.0829 C.3       2 UNK         0.1400 
     63 CB         -0.1096   -8.6379  -43.8681 C.3       2 UNK        -0.1800 
     64 N          -0.2880  -10.8402  -44.9105 N.am      2 UNK        -0.5000 
     65 C          -0.0764  -12.1423  -45.1487 C.2       1 UNK         0.5000 
     66 O           0.7937  -12.7996  -44.5778 O.2       1 UNK        -0.5000 
     67 C          -3.6288  -22.7557  -44.3441 C.2       11 UNK         0.5000 
     68 O          -4.7614  -23.2387  -44.3458 O.2       11 UNK        -0.5000 
     69 N          -2.6656  -23.1356  -43.4909 N.am      12 UNK        -0.5000 
     70 CA         -2.8032  -24.2077  -42.5002 C.3       12 UNK         0.1400 
     71 CB         -1.6029  -24.1611  -41.5431 C.3       12 UNK        -0.1800 
     72 C          -2.9412  -25.6131  -43.1264 C.2       12 UNK         0.5000 
     73 O          -3.4585  -26.5166  -42.4696 O.2       12 UNK        -0.5000 
     74 N          -2.5043  -25.7663  -44.3835 N.am      13 UNK        -0.5000 
     75 CA         -2.6185  -26.9753  -45.1978 C.3       13 UNK         0.1400 
     76 CB         -1.2319  -27.3056  -45.7808 C.3       13 UNK        -0.1800 
     77 C          -3.6822  -26.7928  -46.3006 C.2       13 UNK         0.5000 
     78 O          -3.5400  -27.3575  -47.3863 O.2       13 UNK        -0.5000 
     79 N          -4.7166  -25.9832  -46.0203 N.am      14 UNK        -0.5000 
     80 CA         -5.8346  -25.6363  -46.9073 C.3       14 UNK         0.1400 
     81 CB         -6.7238  -26.8692  -47.1737 C.3       14 UNK        -0.1800 
     82 C          -5.3630  -24.9441  -48.2022 C.2       14 UNK         0.5000 
     83 O          -5.7926  -25.3082  -49.2975 O.2       14 UNK        -0.5000 
     84 N          -4.4415  -23.9844  -48.0411 N.am      15 UNK        -0.5000 
     85 CA         -3.7326  -23.2495  -49.0944 C.3       15 UNK         0.1400 
     86 CB         -4.7015  -22.3690  -49.9089 C.3       15 UNK        -0.1800 
     87 C          -2.8799  -24.1966  -49.9590 C.2       15 UNK         0.5000 
     88 O          -2.9220  -24.1189  -51.1863 O.2       15 UNK        -0.5000 
     89 N          -2.1510  -25.1026  -49.2900 N.am      16 UNK        -0.5000 
     90 CA         -1.3636  -26.2001  -49.8654 C.3       16 UNK         0.1400 
     91 CB         -0.1005  -25.6497  -50.5603 C.3       16 UNK        -0.1800 
     92 C          -2.2131  -27.1110  -50.7799 C.2       16 UNK         0.5000 
     93 O          -1.8067  -27.4175  -51.9011 O.2       16 UNK        -0.5000 
     94 N          -3.4006  -27.4865  -50.2825 N.am      17 UNK        -0.5000 
     95 CA         -4.4758  -28.1929  -50.9859 C.3       17 UNK         0.1400 
     96 CB         -4.0600  -29.6426  -51.3119 C.3       17 UNK        -0.1800 
     97 C          -4.9848  -27.4081  -52.2162 C.2       17 UNK         0.5000 
     98 O          -5.0513  -27.9524  -53.3203 O.2       17 UNK        -0.5000 
     99 N          -5.3334  -26.1341  -51.9838 N.am      18 UNK        -0.5000 
    100 CA        -5.8605  -25.1553  -52.9412 C.3       18 UNK         0.1400 
    101 CB        -7.2840  -25.5522  -53.3849 C.3       18 UNK        -0.1800 
    102 C         -4.9149  -24.8634  -54.1280 C.2       18 UNK         0.5000 
    103 O         -5.3775  -24.7084  -55.2605 O.2       18 UNK        -0.5000 
    104 N         -3.6093  -24.7882  -53.8466 N.am      19 UNK        -0.5000 
    105 CA        -2.5560  -24.4905  -54.8176 C.3       19 UNK         0.1400 
    106 CB        -1.4639  -25.5657  -54.7156 C.3       19 UNK        -0.1800 
    107 C         -1.9454  -23.0955  -54.5973 C.2       19 UNK         0.5000 
    108 O         -1.5403  -22.4580  -55.5708 O.2       19 UNK        -0.5000 
    109 N         -1.8730  -22.6456  -53.3381 N.am      20 UNK        -0.5000 
    110 CA        -1.3309  -21.3453  -52.9501 C.3       20 UNK         0.1400 
    111 CB        -0.8168  -21.4309  -51.5022 C.3       20 UNK        -0.1800 
    112 C         -2.3855  -20.2326  -53.0786 C.2       20 UNK         0.5000 
    113 O         -3.5887  -20.5016  -53.0405 O.2       20 UNK        -0.5000 
    114 N         -1.9036  -18.9920  -53.1785 N.am      21 UNK        -0.5000 
    115 CA        -2.6891  -17.7648  -53.1536 C.3       21 UNK         0.1400 
    116 CB        -3.1985  -17.4300  -54.5657 C.3       21 UNK        -0.1800 
    117 C         -1.7876  -16.6517  -52.6049 C.2       21 UNK         0.5000 
    118 O         -0.5720  -16.6985  -52.8151 O.2       21 UNK        -0.5000 
    119 N         -2.3894  -15.6885  -51.9022 N.am      22 UNK        -0.5000 
    120 CA        -1.6956  -14.5335  -51.3180 C.3       22 UNK         0.1400 
    121 C         -1.4915  -13.3627  -52.3242 C.2       22 UNK         0.5000 
    122 N         -0.6718  -12.3772  -51.9814 N.am      22 UNK        -0.7600 
    123 O         -2.0706  -13.3282  -53.4083 O.2       22 UNK        -0.5000 
    124 C124       -2.3592  -14.1041  -49.9840 C.3       23 UNK        -0.0398 
    125 S125       -3.9906  -13.2863  -50.1305 S.3       23 UNK        -0.2404 
    126 C126       -5.1821  -14.6453  -49.8659 C.3       23 UNK        -0.0205 
    127 H127       -1.8187  -10.3745  -49.8876 H         1 UNK         0.0600 
    128 H128       -1.8423   -9.1117  -48.6512 H         1 UNK         0.0600 
    129 H129       -3.0589  -10.3934  -48.6320 H         1 UNK         0.0600 
    130 H130       -2.6551  -11.9440  -47.0859 H         1 UNK         0.3000 
    131 H131       -0.2339  -13.3616  -46.8604 H         1 UNK         0.0600 
    132 H132       -2.1566  -14.5825  -46.4241 H         1 UNK         0.0800 
    133 H133       -1.4091  -14.4760  -44.8659 H         1 UNK         0.0800 
    134 H134       -4.1079  -15.3146  -44.0562 H         1 UNK         0.0800 
    135 H135       -5.4957  -14.3463  -44.4915 H         1 UNK         0.0800 
    136 H136       -5.0049  -13.6378  -47.3312 H         1 UNK         0.1150 
    137 H137       -4.9317  -17.3286  -49.5013 H         1 UNK         0.1150 
    138 H138       -4.3351  -17.3240  -45.2569 H         1 UNK         0.1150 
    139 H139       -5.1521  -19.3819  -48.2932 H         1 UNK         0.0800 
    140 H140       -3.5475  -19.3320  -47.6195 H         1 UNK         0.0800 
    141 H141       -3.8680  -20.1635  -44.0048 H         1 UNK         0.0800 
    142 H142       -2.9479  -19.5517  -45.3325 H         1 UNK         0.0800 
    143 H143       -3.7825  -22.0415  -46.3254 H         1 UNK         0.0600 
    144 H144       -1.3030  -20.9310  -45.7482 H         1 UNK         0.3000 
    145 H145        0.7250  -23.7201  -46.5408 H         1 UNK         0.0600 
    146 H146        1.4896  -22.3481  -48.4560 H         1 UNK         0.0600 
    147 H147       -0.0813  -23.0438  -48.8162 H         1 UNK         0.0600 
    148 H148        0.0367  -21.3532  -48.3617 H         1 UNK         0.0600 
    149 H149        1.4081  -20.9869  -46.3044 H         1 UNK         0.3000 
    150 H150        1.6112  -20.8585  -42.7085 H         1 UNK         0.0600 
    151 H151        3.7413  -21.8140  -43.6084 H         1 UNK         0.0600 
    152 H152        3.8696  -20.0795  -43.3560 H         1 UNK         0.0600 
    153 H153        3.6612  -20.7191  -44.9841 H         1 UNK         0.0600 
    154 H154        2.0635  -18.8440  -44.6495 H         1 UNK         0.3000 
    155 H155       -1.2580  -17.4636  -44.7038 H         1 UNK         0.0600 
    156 H156       -0.1452  -16.2983  -42.9366 H         1 UNK         0.0600 
    157 H157        0.4936  -15.5378  -44.3892 H         1 UNK         0.0600 
    158 H158        1.4581  -16.7086  -43.5151 H         1 UNK         0.0600 
    159 H159        1.0037  -16.8080  -46.2597 H         1 UNK         0.3000 
    160 H160        0.5395  -19.1003  -48.9508 H         1 UNK         0.0600 
    161 H161        0.0429  -16.0857  -48.7279 H         1 UNK         0.0600 
    162 H162       -1.0150  -17.2715  -49.4742 H         1 UNK         0.0600 
    163 H163        0.5525  -16.9302  -50.1906 H         1 UNK         0.0600 
    164 H164        2.3906  -16.9653  -48.2987 H         1 UNK         0.3000 
    165 H165        4.8434  -19.0967  -46.7944 H         1 UNK         0.0600 
    166 H166        6.2451  -18.1266  -48.5945 H         1 UNK         0.0600 
    167 H167        5.1863  -19.3618  -49.2559 H         1 UNK         0.0600 
    168 H168        4.8082  -17.6617  -49.5059 H         1 UNK         0.0600 
    169 H169        4.8169  -16.3059  -47.4302 H         1 UNK         0.3000 
    170 H170        3.1266  -15.1232  -44.5685 H         1 UNK         0.0600 
    171 H171        5.3885  -15.5752  -43.6004 H         1 UNK         0.0600 
    172 H172        6.1461  -15.0299  -45.0928 H         1 UNK         0.0600 
    173 H173        5.2276  -13.8985  -44.0988 H         1 UNK         0.0600 
    174 H174        4.5503  -13.6638  -46.4963 H         1 UNK         0.3000 
    175 H175        3.8209  -13.4092  -48.8210 H         1 UNK         0.0600 
    176 H176        0.7652  -13.4456  -49.0138 H         1 UNK         0.0600 
    177 H177        1.8766  -12.8258  -50.2341 H         1 UNK         0.0600 
    178 H178        1.8644  -14.5378  -49.8458 H         1 UNK         0.0600 
    179 H179        1.7958  -11.5177  -47.9185 H         1 UNK         0.3000 
    180 H180        4.1473   -9.4510  -46.1455 H         1 UNK         0.0600 
    181 H181        2.3801   -9.1478  -48.6337 H         1 UNK         0.0600 
    182 H182        4.1064   -8.8143  -48.5506 H         1 UNK         0.0600 
    183 H183        2.9802   -7.8355  -47.6227 H         1 UNK         0.0600 
    184 H184        1.2400  -10.0204  -46.5662 H         1 UNK         0.3000 
    185 H185        0.6934  -10.4797  -43.1109 H         1 UNK         0.0600 
    186 H186        0.4973   -7.9912  -43.2332 H         1 UNK         0.0600 
    187 H187       -0.2708   -8.1144  -44.8114 H         1 UNK         0.0600 
    188 H188       -1.0768   -8.7564  -43.3793 H         1 UNK         0.0600 
    189 H189       -1.0333  -10.3797  -45.4119 H         1 UNK         0.3000 
    190 H190       -1.7488  -22.7154  -43.5758 H         1 UNK         0.3000 
    191 H191       -3.7090  -24.0166  -41.9212 H         1 UNK         0.0600 
    192 H192       -0.6669  -24.3694  -42.0624 H         1 UNK         0.0600 
    193 H193       -1.5133  -23.1845  -41.0670 H         1 UNK         0.0600 
    194 H194       -1.7080  -24.9014  -40.7490 H         1 UNK         0.0600 
    195 H195       -2.1285  -24.9597  -44.8702 H         1 UNK         0.3000 
    196 H196       -2.9382  -27.8204  -44.5855 H         1 UNK         0.0600 
    197 H197       -0.4937  -27.4319  -44.9889 H         1 UNK         0.0600 
    198 H198       -0.8758  -26.5183  -46.4458 H         1 UNK         0.0600 
    199 H199       -1.2544  -28.2348  -46.3515 H         1 UNK         0.0600 
    200 H200       -4.7266  -25.5310  -45.1155 H         1 UNK         0.3000 
    201 H201       -6.4385  -24.9026  -46.3713 H         1 UNK         0.0600 
    202 H202       -7.6162  -26.5918  -47.7360 H         1 UNK         0.0600 
    203 H203       -7.0573  -27.3231  -46.2407 H         1 UNK         0.0600 
    204 H204       -6.2006  -27.6328  -47.7498 H         1 UNK         0.0600 
    205 H205       -4.0945  -23.8387  -47.1041 H         1 UNK         0.3000 
    206 H206       -3.0320  -22.5752  -48.6032 H         1 UNK         0.0600 
    207 H207       -5.2643  -21.7008  -49.2578 H         1 UNK         0.0600 
    208 H208       -5.4180  -22.9624  -50.4749 H         1 UNK         0.0600 
    209 H209       -4.1596  -21.7471  -50.6216 H         1 UNK         0.0600 
    210 H210       -2.1800  -25.0659  -48.2775 H         1 UNK         0.3000 
    211 H211       -1.0389  -26.8237  -49.0313 H         1 UNK         0.0600 
    212 H212        0.5216  -25.0925  -49.8611 H         1 UNK         0.0600 
    213 H213        0.5126  -26.4592  -50.9578 H         1 UNK         0.0600 
    214 H214       -0.3478  -24.9881  -51.3908 H         1 UNK         0.0600 
    215 H215       -3.6067  -27.2255  -49.3215 H         1 UNK         0.3000 
    216 H216       -5.3128  -28.2421  -50.2877 H         1 UNK         0.0600 
    217 H217       -4.8968  -30.2019  -51.7315 H         1 UNK         0.0600 
    218 H218       -3.2464  -29.6807  -52.0368 H         1 UNK         0.0600 
    219 H219       -3.7349  -30.1694  -50.4148 H         1 UNK         0.0600 
    220 H220       -5.2772  -25.8010  -51.0235 H         1 UNK         0.3000 
    221 H221       -5.9432  -24.2165  -52.3938 H         1 UNK         0.0600 
    222 H222       -7.2819  -26.4644  -53.9823 H         1 UNK         0.0600 
    223 H223       -7.9327  -25.7158  -52.5243 H         1 UNK         0.0600 
    224 H224       -7.7405  -24.7665  -53.9879 H         1 UNK         0.0600 
    225 H225       -3.3242  -24.8697  -52.8744 H         1 UNK         0.3000 
    226 H226       -2.9547  -24.5166  -55.8336 H         1 UNK         0.0600 
    227 H227       -1.8754  -26.5621  -54.8784 H         1 UNK         0.0600 
    228 H228       -0.6864  -25.4061  -55.4636 H         1 UNK         0.0600 
    229 H229       -0.9841  -25.5595  -53.7366 H         1 UNK         0.0600 
    230 H230       -2.2782  -23.2016  -52.5888 H         1 UNK         0.3000 
    231 H231       -0.4866  -21.1048  -53.5999 H         1 UNK         0.0600 
    232 H232       -0.3025  -20.5135  -51.2133 H         1 UNK         0.0600 
    233 H233       -0.1085  -22.2507  -51.3810 H         1 UNK         0.0600 
    234 H234       -1.6301  -21.5827  -50.7930 H         1 UNK         0.0600 
    235 H235       -0.9036  -18.8309  -53.1666 H         1 UNK         0.3000 
    236 H236       -3.5382  -17.8912  -52.4782 H         1 UNK         0.0600 
    237 H237       -3.8504  -18.2159  -54.9475 H         1 UNK         0.0600 
    238 H238       -3.7726  -16.5027  -54.5642 H         1 UNK         0.0600 
    239 H239       -2.3747  -17.3063  -55.2698 H         1 UNK         0.0600 
    240 H240       -3.3949  -15.6798  -51.8285 H         1 UNK         0.3000 
    241 H241       -0.6868  -14.8612  -51.0599 H         1 UNK         0.0600 
    242 H242       -0.5386  -11.6160  -52.6290 H         1 UNK         0.3800 
    243 H243       -0.1754  -12.3704  -51.1065 H         1 UNK         0.3800 
    244 H244       -2.4326  -14.9629  -49.3168 H         1 UNK         0.0800 
    245 H245       -1.6984  -13.4110  -49.4676 H         1 UNK         0.0800 
    246 H246       -6.1899  -14.2283  -49.8668 H         1 UNK         0.0800 
    247 H247       -5.1350  -15.3249  -50.7172 H         1 UNK         0.0800 
@<TRIPOS>BOND
     1    1    2 1    
     2    1  127 1    
     3    1  128 1    
     4    1  129 1    
     5    2    3 2    
     6    2    4 am   BACKBONE|DICT|INTERRES
     7    4    5 1    
     8    4  130 1    
     9    5    6 1    
    10    5   65 1    
    11    5  131 1    
    12    6    7 1    
    13    6  132 1    
    14    6  133 1    
    15    7    8 1    
    16    8    9 1    
    17    8  134 1    
    18    8  135 1    
    19    9   10 ar   
    20    9   14 ar   
    21   10   11 ar   
    22   10  136 1    
    23   11   12 ar   
    24   11  126 1    
    25   12   13 ar   
    26   12  137 1    
    27   13   14 ar   
    28   13   15 1    
    29   14  138 1    
    30   15   16 1    
    31   15  139 1    
    32   15  140 1    
    33   16   17 1    
    34   17   18 1    
    35   17  141 1    
    36   17  142 1    
    37   18   19 1    
    38   18   67 1    
    39   18  143 1    
    40   19   20 am   BACKBONE|DICT|INTERRES
    41   19  144 1    
    42   20   21 2    
    43   20   22 1    
    44   22   23 1    
    45   22   24 1    
    46   22  145 1    
    47   23  146 1    
    48   23  147 1    
    49   23  148 1    
    50   24   25 am   BACKBONE|DICT|INTERRES
    51   24  149 1    
    52   25   26 2    
    53   25   27 1    
    54   27   28 1    
    55   27   29 1    
    56   27  150 1    
    57   28  151 1    
    58   28  152 1    
    59   28  153 1    
    60   29   30 am   BACKBONE|DICT|INTERRES
    61   29  154 1    
    62   30   31 2    
    63   30   32 1    
    64   32   33 1    
    65   32   34 1    
    66   32  155 1    
    67   33  156 1    
    68   33  157 1    
    69   33  158 1    
    70   34   35 am   BACKBONE|DICT|INTERRES
    71   34  159 1    
    72   35   36 2    
    73   35   37 1    
    74   37   38 1    
    75   37   39 1    
    76   37  160 1    
    77   38  161 1    
    78   38  162 1    
    79   38  163 1    
    80   39   40 am   BACKBONE|DICT|INTERRES
    81   39  164 1    
    82   40   41 2    
    83   40   42 1    
    84   42   43 1    
    85   42   44 1    
    86   42  165 1    
    87   43  166 1    
    88   43  167 1    
    89   43  168 1    
    90   44   45 am   BACKBONE|DICT|INTERRES
    91   44  169 1    
    92   45   46 2    
    93   45   47 1    
    94   47   48 1    
    95   47   49 1    
    96   47  170 1    
    97   48  171 1    
    98   48  172 1    
    99   48  173 1    
   100   49   50 am   BACKBONE|DICT|INTERRES
   101   49  174 1    
   102   50   51 2    
   103   50   52 1    
   104   52   53 1    
   105   52   54 1    
   106   52  175 1    
   107   53  176 1    
   108   53  177 1    
   109   53  178 1    
   110   54   55 am   BACKBONE|DICT|INTERRES
   111   54  179 1    
   112   55   56 2    
   113   55   57 1    
   114   57   58 1    
   115   57   59 1    
   116   57  180 1    
   117   58  181 1    
   118   58  182 1    
   119   58  183 1    
   120   59   60 am   BACKBONE|DICT|INTERRES
   121   59  184 1    
   122   60   61 2    
   123   60   62 1    
   124   62   63 1    
   125   62   64 1    
   126   62  185 1    
   127   63  186 1    
   128   63  187 1    
   129   63  188 1    
   130   64   65 am   BACKBONE|DICT|INTERRES
   131   64  189 1    
   132   65   66 2    
   133   67   68 2    
   134   67   69 am   BACKBONE|DICT|INTERRES
   135   69   70 1    
   136   69  190 1    
   137   70   71 1    
   138   70   72 1    
   139   70  191 1    
   140   71  192 1    
   141   71  193 1    
   142   71  194 1    
   143   72   73 2    
   144   72   74 am   BACKBONE|DICT|INTERRES
   145   74   75 1    
   146   74  195 1    
   147   75   76 1    
   148   75   77 1    
   149   75  196 1    
   150   76  197 1    
   151   76  198 1    
   152   76  199 1    
   153   77   78 2    
   154   77   79 am   BACKBONE|DICT|INTERRES
   155   79   80 1    
   156   79  200 1    
   157   80   81 1    
   158   80   82 1    
   159   80  201 1    
   160   81  202 1    
   161   81  203 1    
   162   81  204 1    
   163   82   83 2    
   164   82   84 am   BACKBONE|DICT|INTERRES
   165   84   85 1    
   166   84  205 1    
   167   85   86 1    
   168   85   87 1    
   169   85  206 1    
   170   86  207 1    
   171   86  208 1    
   172   86  209 1    
   173   87   88 2    
   174   87   89 am   BACKBONE|DICT|INTERRES
   175   89   90 1    
   176   89  210 1    
   177   90   91 1    
   178   90   92 1    
   179   90  211 1    
   180   91  212 1    
   181   91  213 1    
   182   91  214 1    
   183   92   93 2    
   184   92   94 am   BACKBONE|DICT|INTERRES
   185   94   95 1    
   186   94  215 1    
   187   95   96 1    
   188   95   97 1    
   189   95  216 1    
   190   96  217 1    
   191   96  218 1    
   192   96  219 1    
   193   97   98 2    
   194   97   99 am   BACKBONE|DICT|INTERRES
   195   99  100 1    
   196   99  220 1    
   197  100  101 1    
   198  100  102 1    
   199  100  221 1    
   200  101  222 1    
   201  101  223 1    
   202  101  224 1    
   203  102  103 2    
   204  102  104 am   BACKBONE|DICT|INTERRES
   205  104  105 1    
   206  104  225 1    
   207  105  106 1    
   208  105  107 1    
   209  105  226 1    
   210  106  227 1    
   211  106  228 1    
   212  106  229 1    
   213  107  108 2    
   214  107  109 am   BACKBONE|DICT|INTERRES
   215  109  110 1    
   216  109  230 1    
   217  110  111 1    
   218  110  112 1    
   219  110  231 1    
   220  111  232 1    
   221  111  233 1    
   222  111  234 1    
   223  112  113 2    
   224  112  114 am   BACKBONE|DICT|INTERRES
   225  114  115 1    
   226  114  235 1    
   227  115  116 1    
   228  115  117 1    
   229  115  236 1    
   230  116  237 1    
   231  116  238 1    
   232  116  239 1    
   233  117  118 2    
   234  117  119 am   BACKBONE|DICT|INTERRES
   235  119  120 1    
   236  119  240 1    
   237  120  121 1    
   238  120  124 1    
   239  120  241 1    
   240  121  122 am   BACKBONE|DICT|INTERRES
   241  121  123 2    
   242  122  242 1    
   243  122  243 1    
   244  124  125 1    
   245  124  244 1    
   246  124  245 1    
   247  125  126 1    
   248  126  246 1    
   249  126  247 1    
@<TRIPOS>SUBSTRUCTURE
     1 UNK         1 GROUP             0       ****    0 ROOT    
