@<TRIPOS>MOLECULE
3R540
247   249    1
SMALL
USER_CHARGES


@<TRIPOS>ATOM
      1 CA         -1.9102  -13.3102  -51.7403 C.3       0 UNK        -0.1800 
      2 C          -0.9894  -12.9321  -50.5897 C.2       0 UNK         0.5000 
      3 O          -1.2156  -11.9159  -49.9332 O.2       0 UNK        -0.5000 
      4 N           0.0444  -13.7453  -50.3293 N.am      1 UNK        -0.5000 
      5 CA          1.0796  -13.5002  -49.3112 C.3       1 UNK         0.1400 
      6 C6          2.3283  -14.4023  -49.5266 C.3       23 UNK        -0.0398 
      7 S7          2.3121  -16.0273  -48.6886 S.3       23 UNK        -0.2404 
      8 C8          1.5308  -17.0656  -49.9540 C.3       23 UNK        -0.0205 
      9 C9          0.9694  -18.3320  -49.3353 C.ar      23 UNK        -0.0193 
     10 C10        -0.2353  -18.2798  -48.6287 C.ar      23 UNK        -0.1150 
     11 C11        -0.7845  -19.4389  -48.0778 C.ar      23 UNK        -0.0193 
     12 C12        -0.1218  -20.6543  -48.2473 C.ar      23 UNK        -0.1150 
     13 C13         1.0902  -20.7205  -48.9389 C.ar      23 UNK        -0.0193 
     14 C14         1.6344  -19.5530  -49.4806 C.ar      23 UNK        -0.1150 
     15 C15         1.7849  -22.0598  -49.1349 C.3       23 UNK        -0.0205 
     16 S16         3.0842  -22.3776  -47.8991 S.3       23 UNK        -0.2404 
     17 C17         2.1617  -22.4629  -46.3265 C.3       23 UNK        -0.0398 
     18 CA          1.5097  -23.8478  -46.0577 C.3       11 UNK         0.1400 
     19 N           1.6427  -24.2445  -44.6562 N.am      11 UNK        -0.5000 
     20 C           1.5757  -25.5035  -44.2034 C.2       10 UNK         0.5000 
     21 O           1.4806  -26.4899  -44.9329 O.2       10 UNK        -0.5000 
     22 CA          1.5956  -25.6880  -42.6732 C.3       10 UNK         0.1400 
     23 CB          3.0314  -25.9166  -42.1775 C.3       10 UNK        -0.1800 
     24 N           1.0172  -24.5489  -41.9562 N.am      10 UNK        -0.5000 
     25 C          -0.2811  -24.2162  -41.9825 C.2       9 UNK         0.5000 
     26 O          -1.1411  -24.8681  -42.5738 O.2       9 UNK        -0.5000 
     27 CA         -0.6729  -22.9078  -41.2695 C.3       9 UNK         0.1400 
     28 CB         -1.0018  -23.1782  -39.7939 C.3       9 UNK        -0.1800 
     29 N           0.3470  -21.8557  -41.3541 N.am      9 UNK        -0.5000 
     30 C           0.7920  -21.3039  -42.4906 C.2       8 UNK         0.5000 
     31 O           0.4393  -21.6682  -43.6162 O.2       8 UNK        -0.5000 
     32 CA          1.8393  -20.1930  -42.3498 C.3       8 UNK         0.1400 
     33 CB          3.2504  -20.7904  -42.2233 C.3       8 UNK        -0.1800 
     34 N           1.7795  -19.3398  -43.5324 N.am      8 UNK        -0.5000 
     35 C           1.9261  -18.0116  -43.5364 C.2       7 UNK         0.5000 
     36 O           2.1625  -17.3464  -42.5243 O.2       7 UNK        -0.5000 
     37 CA          1.7270  -17.3153  -44.8983 C.3       7 UNK         0.1400 
     38 CB          0.2322  -17.2272  -45.2373 C.3       7 UNK        -0.1800 
     39 N           2.2853  -15.9638  -44.9254 N.am      7 UNK        -0.5000 
     40 C           3.5901  -15.6613  -44.9051 C.2       6 UNK         0.5000 
     41 O           4.4872  -16.5057  -44.9263 O.2       6 UNK        -0.5000 
     42 CA          3.9625  -14.1657  -44.8565 C.3       6 UNK         0.1400 
     43 CB          4.5490  -13.7033  -46.1976 C.3       6 UNK        -0.1800 
     44 N           2.8215  -13.3081  -44.5273 N.am      6 UNK        -0.5000 
     45 C           2.4542  -12.9783  -43.2811 C.2       5 UNK         0.5000 
     46 O           3.0498  -13.3667  -42.2748 O.2       5 UNK        -0.5000 
     47 CA          1.2091  -12.0753  -43.1374 C.3       5 UNK         0.1400 
     48 CB          1.1915  -11.2740  -41.8189 C.3       5 UNK        -0.1800 
     49 N           0.9912  -11.1949  -44.2899 N.am      5 UNK        -0.5000 
     50 C           1.7859  -10.2103  -44.7407 C.2       4 UNK         0.5000 
     51 O           2.8296   -9.8646  -44.1862 O.2       4 UNK        -0.5000 
     52 CA          1.3591   -9.5021  -46.0447 C.3       4 UNK         0.1400 
     53 CB          2.4278   -9.6813  -47.1368 C.3       4 UNK        -0.1800 
     54 N           0.0825  -10.0030  -46.5575 N.am      4 UNK        -0.5000 
     55 C          -1.1254   -9.5227  -46.2314 C.2       3 UNK         0.5000 
     56 O          -1.2992   -8.5292  -45.5254 O.2       3 UNK        -0.5000 
     57 CA         -2.3453  -10.3076  -46.7543 C.3       3 UNK         0.1400 
     58 CB         -2.8802   -9.6756  -48.0480 C.3       3 UNK        -0.1800 
     59 N          -2.0478  -11.7253  -46.9870 N.am      3 UNK        -0.5000 
     60 C          -1.8446  -12.6200  -46.0064 C.2       2 UNK         0.5000 
     61 O          -1.9258  -12.3420  -44.8106 O.2       2 UNK        -0.5000 
     62 CA         -1.4149  -14.0437  -46.4114 C.3       2 UNK         0.1400 
     63 CB         -2.6325  -14.9714  -46.5261 C.3       2 UNK        -0.1800 
     64 N          -0.6578  -14.0860  -47.6610 N.am      2 UNK        -0.5000 
     65 C           0.5348  -13.5064  -47.8606 C.2       1 UNK         0.5000 
     66 O           1.1729  -12.9518  -46.9637 O.2       1 UNK        -0.5000 
     67 C           0.0223  -23.8728  -46.4640 C.2       11 UNK         0.5000 
     68 O          -0.3221  -24.4294  -47.5051 O.2       11 UNK        -0.5000 
     69 N          -0.8409  -23.2961  -45.6133 N.am      12 UNK        -0.5000 
     70 CA         -2.2931  -23.1939  -45.8006 C.3       12 UNK         0.1400 
     71 CB         -2.8816  -22.3462  -44.6624 C.3       12 UNK        -0.1800 
     72 C          -3.0238  -24.5494  -45.8855 C.2       12 UNK         0.5000 
     73 O          -4.1254  -24.6080  -46.4296 O.2       12 UNK        -0.5000 
     74 N          -2.4010  -25.6110  -45.3580 N.am      13 UNK        -0.5000 
     75 CA         -2.8619  -26.9951  -45.4578 C.3       13 UNK         0.1400 
     76 CB         -2.0592  -27.8501  -44.4648 C.3       13 UNK        -0.1800 
     77 C          -2.7607  -27.5832  -46.8826 C.2       13 UNK         0.5000 
     78 O          -3.4334  -28.5757  -47.1672 O.2       13 UNK        -0.5000 
     79 N          -1.9246  -26.9868  -47.7444 N.am      14 UNK        -0.5000 
     80 CA         -1.7552  -27.3686  -49.1458 C.3       14 UNK         0.1400 
     81 CB         -0.3369  -26.9669  -49.5930 C.3       14 UNK        -0.1800 
     82 C          -2.8298  -26.7267  -50.0489 C.2       14 UNK         0.5000 
     83 O          -3.7070  -26.0005  -49.5750 O.2       14 UNK        -0.5000 
     84 N          -2.7131  -26.9719  -51.3621 N.am      15 UNK        -0.5000 
     85 CA         -3.5823  -26.4372  -52.4194 C.3       15 UNK         0.1400 
     86 CB         -3.2233  -27.1202  -53.7478 C.3       15 UNK        -0.1800 
     87 C          -3.5445  -24.9011  -52.5777 C.2       15 UNK         0.5000 
     88 O          -4.3875  -24.3463  -53.2825 O.2       15 UNK        -0.5000 
     89 N          -2.6007  -24.2326  -51.9014 N.am      16 UNK        -0.5000 
     90 CA         -2.4450  -22.7791  -51.8235 C.3       16 UNK         0.1400 
     91 CB         -1.2778  -22.4692  -50.8803 C.3       16 UNK        -0.1800 
     92 C          -3.7107  -22.0219  -51.3717 C.2       16 UNK         0.5000 
     93 O          -3.9256  -20.8949  -51.8155 O.2       16 UNK        -0.5000 
     94 N          -4.5339  -22.6686  -50.5341 N.am      17 UNK        -0.5000 
     95 CA         -5.8210  -22.1528  -50.0676 C.3       17 UNK         0.1400 
     96 CB         -6.2493  -22.9460  -48.8248 C.3       17 UNK        -0.1800 
     97 C          -6.9284  -22.1800  -51.1419 C.2       17 UNK         0.5000 
     98 O          -7.9012  -21.4344  -51.0165 O.2       17 UNK        -0.5000 
     99 N          -6.7785  -23.0283  -52.1685 N.am      18 UNK        -0.5000 
    100 CA        -7.6603  -23.0715  -53.3364 C.3       18 UNK         0.1400 
    101 CB        -7.7979  -24.5245  -53.8189 C.3       18 UNK        -0.1800 
    102 C         -7.1265  -22.1700  -54.4640 C.2       18 UNK         0.5000 
    103 O         -7.9193  -21.5671  -55.1892 O.2       18 UNK        -0.5000 
    104 N         -5.7950  -22.0940  -54.5878 N.am      19 UNK        -0.5000 
    105 CA        -5.0737  -21.2243  -55.5140 C.3       19 UNK         0.1400 
    106 CB        -3.6329  -21.7477  -55.6419 C.3       19 UNK        -0.1800 
    107 C         -5.0832  -19.7473  -55.0667 C.2       19 UNK         0.5000 
    108 O         -5.5641  -19.4137  -53.9824 O.2       19 UNK        -0.5000 
    109 N         -4.5072  -18.8781  -55.9061 N.am      20 UNK        -0.5000 
    110 CA        -4.4038  -17.4311  -55.6854 C.3       20 UNK         0.1400 
    111 CB        -3.9586  -16.7696  -57.0000 C.3       20 UNK        -0.1800 
    112 C         -3.4723  -17.0116  -54.5251 C.2       20 UNK         0.5000 
    113 O         -3.4661  -15.8342  -54.1637 O.2       20 UNK        -0.5000 
    114 N         -2.6959  -17.9575  -53.9756 N.am      21 UNK        -0.5000 
    115 CA        -1.7799  -17.7540  -52.8521 C.3       21 UNK         0.1400 
    116 CB        -0.9373  -19.0205  -52.6490 C.3       21 UNK        -0.1800 
    117 C         -2.4937  -17.3326  -51.5530 C.2       21 UNK         0.5000 
    118 O         -2.0267  -16.4050  -50.8901 O.2       21 UNK        -0.5000 
    119 N         -3.6246  -17.9774  -51.2397 N.am      22 UNK        -0.5000 
    120 CA        -4.5194  -17.5910  -50.1381 C.3       22 UNK         0.1400 
    121 C         -5.9836  -18.0999  -50.2717 C.2       22 UNK         0.5000 
    122 N         -6.4014  -18.7090  -51.3729 N.am      22 UNK        -0.7600 
    123 O         -6.7829  -17.9152  -49.3578 O.2       22 UNK        -0.5000 
    124 C124       -3.9162  -17.8371  -48.7277 C.3       23 UNK        -0.0398 
    125 S125       -3.5378  -19.5833  -48.3505 S.3       23 UNK        -0.2404 
    126 C126       -2.0797  -19.3918  -47.2845 C.3       23 UNK        -0.0205 
    127 H127       -2.8724  -13.6480  -51.3554 H         1 UNK         0.0600 
    128 H128       -1.4881  -14.1092  -52.3503 H         1 UNK         0.0600 
    129 H129       -2.0819  -12.4485  -52.3850 H         1 UNK         0.0600 
    130 H130        0.1457  -14.5893  -50.8737 H         1 UNK         0.3000 
    131 H131        1.4149  -12.4746  -49.4815 H         1 UNK         0.0600 
    132 H132        2.5180  -14.5474  -50.5911 H         1 UNK         0.0800 
    133 H133        3.2084  -13.8712  -49.1648 H         1 UNK         0.0800 
    134 H134        0.7196  -16.5218  -50.4376 H         1 UNK         0.0800 
    135 H135        2.2575  -17.2998  -50.7332 H         1 UNK         0.0800 
    136 H136       -0.7395  -17.3320  -48.5108 H         1 UNK         0.1150 
    137 H137       -0.5610  -21.5534  -47.8466 H         1 UNK         0.1150 
    138 H138        2.5671  -19.5982  -50.0249 H         1 UNK         0.1150 
    139 H139        1.0613  -22.8741  -49.1188 H         1 UNK         0.0800 
    140 H140        2.2368  -22.0879  -50.1274 H         1 UNK         0.0800 
    141 H141        1.4513  -21.6394  -46.2518 H         1 UNK         0.0800 
    142 H142        2.9025  -22.2517  -45.5541 H         1 UNK         0.0800 
    143 H143        2.0264  -24.5988  -46.6598 H         1 UNK         0.0600 
    144 H144        1.6543  -23.4929  -43.9812 H         1 UNK         0.3000 
    145 H145        1.0049  -26.5763  -42.4387 H         1 UNK         0.0600 
    146 H146        3.0515  -26.1182  -41.1063 H         1 UNK         0.0600 
    147 H147        3.4847  -26.7741  -42.6768 H         1 UNK         0.0600 
    148 H148        3.6669  -25.0511  -42.3692 H         1 UNK         0.0600 
    149 H149        1.6544  -23.9622  -41.4381 H         1 UNK         0.3000 
    150 H150       -1.5751  -22.5284  -41.7519 H         1 UNK         0.0600 
    151 H151       -0.1274  -23.5266  -39.2430 H         1 UNK         0.0600 
    152 H152       -1.7752  -23.9419  -39.6997 H         1 UNK         0.0600 
    153 H153       -1.3739  -22.2796  -39.3013 H         1 UNK         0.0600 
    154 H154        0.7015  -21.5095  -40.4739 H         1 UNK         0.3000 
    155 H155        1.6042  -19.6146  -41.4537 H         1 UNK         0.0600 
    156 H156        3.5148  -21.3885  -43.0963 H         1 UNK         0.0600 
    157 H157        3.3294  -21.4336  -41.3461 H         1 UNK         0.0600 
    158 H158        4.0000  -20.0059  -42.1178 H         1 UNK         0.0600 
    159 H159        1.4938  -19.8187  -44.3760 H         1 UNK         0.3000 
    160 H160        2.2272  -17.9072  -45.6682 H         1 UNK         0.0600 
    161 H161       -0.3175  -16.6478  -44.4946 H         1 UNK         0.0600 
    162 H162       -0.2173  -18.2194  -45.2765 H         1 UNK         0.0600 
    163 H163        0.0801  -16.7613  -46.2103 H         1 UNK         0.0600 
    164 H164        1.6287  -15.2009  -44.8845 H         1 UNK         0.3000 
    165 H165        4.7378  -14.0490  -44.0964 H         1 UNK         0.0600 
    166 H166        4.8788  -12.6654  -46.1471 H         1 UNK         0.0600 
    167 H167        5.4110  -14.3080  -46.4816 H         1 UNK         0.0600 
    168 H168        3.8136  -13.7818  -46.9951 H         1 UNK         0.0600 
    169 H169        2.2707  -12.9705  -45.3117 H         1 UNK         0.3000 
    170 H170        0.3547  -12.7531  -43.1155 H         1 UNK         0.0600 
    171 H171        1.1896  -11.9407  -40.9558 H         1 UNK         0.0600 
    172 H172        2.0621  -10.6243  -41.7264 H         1 UNK         0.0600 
    173 H173        0.2990  -10.6524  -41.7479 H         1 UNK         0.0600 
    174 H174        0.1505  -11.3875  -44.8171 H         1 UNK         0.3000 
    175 H175        1.2731   -8.4359  -45.8256 H         1 UNK         0.0600 
    176 H176        2.1367   -9.1797  -48.0598 H         1 UNK         0.0600 
    177 H177        3.3816   -9.2545  -46.8243 H         1 UNK         0.0600 
    178 H178        2.6015  -10.7328  -47.3665 H         1 UNK         0.0600 
    179 H179        0.1309  -10.8388  -47.1235 H         1 UNK         0.3000 
    180 H180       -3.1302  -10.2432  -45.9976 H         1 UNK         0.0600 
    181 H181       -2.1229   -9.6590  -48.8322 H         1 UNK         0.0600 
    182 H182       -3.1936   -8.6452  -47.8761 H         1 UNK         0.0600 
    183 H183       -3.7453  -10.2200  -48.4269 H         1 UNK         0.0600 
    184 H184       -1.9176  -12.0049  -47.9536 H         1 UNK         0.3000 
    185 H185       -0.7694  -14.4217  -45.6167 H         1 UNK         0.0600 
    186 H186       -3.2285  -14.9510  -45.6127 H         1 UNK         0.0600 
    187 H187       -3.2840  -14.6830  -47.3519 H         1 UNK         0.0600 
    188 H188       -2.3227  -16.0033  -46.6841 H         1 UNK         0.0600 
    189 H189       -1.1122  -14.5104  -48.4568 H         1 UNK         0.3000 
    190 H190       -0.4642  -22.8322  -44.7909 H         1 UNK         0.3000 
    191 H191       -2.4659  -22.6732  -46.7445 H         1 UNK         0.0600 
    192 H192       -2.3455  -21.4054  -44.5386 H         1 UNK         0.0600 
    193 H193       -3.9264  -22.1041  -44.8604 H         1 UNK         0.0600 
    194 H194       -2.8449  -22.8780  -43.7120 H         1 UNK         0.0600 
    195 H195       -1.5337  -25.4545  -44.8628 H         1 UNK         0.3000 
    196 H196       -3.9131  -27.0249  -45.1644 H         1 UNK         0.0600 
    197 H197       -2.4005  -28.8860  -44.4743 H         1 UNK         0.0600 
    198 H198       -2.1708  -27.4805  -43.4451 H         1 UNK         0.0600 
    199 H199       -0.9955  -27.8519  -44.7059 H         1 UNK         0.0600 
    200 H200       -1.4456  -26.1402  -47.4566 H         1 UNK         0.3000 
    201 H201       -1.8470  -28.4532  -49.2327 H         1 UNK         0.0600 
    202 H202       -0.0862  -27.4017  -50.5609 H         1 UNK         0.0600 
    203 H203       -0.2317  -25.8854  -49.6843 H         1 UNK         0.0600 
    204 H204        0.4148  -27.3151  -48.8841 H         1 UNK         0.0600 
    205 H205       -1.9629  -27.5714  -51.6746 H         1 UNK         0.3000 
    206 H206       -4.6111  -26.7020  -52.1673 H         1 UNK         0.0600 
    207 H207       -3.3361  -28.2024  -53.6792 H         1 UNK         0.0600 
    208 H208       -3.8752  -26.7793  -54.5535 H         1 UNK         0.0600 
    209 H209       -2.1958  -26.9062  -54.0447 H         1 UNK         0.0600 
    210 H210       -1.9595  -24.7771  -51.3454 H         1 UNK         0.3000 
    211 H211       -2.1814  -22.4230  -52.8191 H         1 UNK         0.0600 
    212 H212       -1.4471  -22.8813  -49.8843 H         1 UNK         0.0600 
    213 H213       -1.1404  -21.3938  -50.7691 H         1 UNK         0.0600 
    214 H214       -0.3423  -22.8784  -51.2615 H         1 UNK         0.0600 
    215 H215       -4.2736  -23.5934  -50.2174 H         1 UNK         0.3000 
    216 H216       -5.6863  -21.1111  -49.7726 H         1 UNK         0.0600 
    217 H217       -7.2099  -22.5948  -48.4459 H         1 UNK         0.0600 
    218 H218       -5.5232  -22.8308  -48.0199 H         1 UNK         0.0600 
    219 H219       -6.3467  -24.0109  -49.0396 H         1 UNK         0.0600 
    220 H220       -5.9323  -23.5821  -52.2272 H         1 UNK         0.3000 
    221 H221       -8.6565  -22.7156  -53.0655 H         1 UNK         0.0600 
    222 H222       -6.8426  -24.9402  -54.1403 H         1 UNK         0.0600 
    223 H223       -8.1937  -25.1650  -53.0307 H         1 UNK         0.0600 
    224 H224       -8.4829  -24.5888  -54.6651 H         1 UNK         0.0600 
    225 H225       -5.2259  -22.6583  -53.9681 H         1 UNK         0.3000 
    226 H226       -5.5571  -21.2868  -56.4910 H         1 UNK         0.0600 
    227 H227       -3.0968  -21.2452  -56.4475 H         1 UNK         0.0600 
    228 H228       -3.0685  -21.5867  -54.7245 H         1 UNK         0.0600 
    229 H229       -3.6157  -22.8154  -55.8628 H         1 UNK         0.0600 
    230 H230       -4.1199  -19.2220  -56.7730 H         1 UNK         0.3000 
    231 H231       -5.4008  -17.0596  -55.4396 H         1 UNK         0.0600 
    232 H232       -2.9697  -17.1123  -57.3068 H         1 UNK         0.0600 
    233 H233       -3.9127  -15.6844  -56.8986 H         1 UNK         0.0600 
    234 H234       -4.6568  -16.9873  -57.8085 H         1 UNK         0.0600 
    235 H235       -2.7807  -18.8989  -54.3265 H         1 UNK         0.3000 
    236 H236       -1.1015  -16.9422  -53.1226 H         1 UNK         0.0600 
    237 H237       -0.2911  -19.2053  -53.5070 H         1 UNK         0.0600 
    238 H238       -0.2965  -18.9334  -51.7723 H         1 UNK         0.0600 
    239 H239       -1.5661  -19.8977  -52.5115 H         1 UNK         0.0600 
    240 H240       -3.8947  -18.8036  -51.7626 H         1 UNK         0.3000 
    241 H241       -4.6367  -16.5094  -50.2293 H         1 UNK         0.0600 
    242 H242       -5.8171  -18.8864  -52.1848 H         1 UNK         0.3800 
    243 H243       -7.3489  -19.0522  -51.3907 H         1 UNK         0.3800 
    244 H244       -4.5845  -17.4591  -47.9526 H         1 UNK         0.0800 
    245 H245       -3.0084  -17.2470  -48.6254 H         1 UNK         0.0800 
    246 H246       -2.1498  -18.4643  -46.7162 H         1 UNK         0.0800 
    247 H247       -2.0830  -20.1920  -46.5458 H         1 UNK         0.0800 
@<TRIPOS>BOND
     1    1    2 1    
     2    1  127 1    
     3    1  128 1    
     4    1  129 1    
     5    2    3 2    
     6    2    4 am   BACKBONE|DICT|INTERRES
     7    4    5 1    
     8    4  130 1    
     9    5    6 1    
    10    5   65 1    
    11    5  131 1    
    12    6    7 1    
    13    6  132 1    
    14    6  133 1    
    15    7    8 1    
    16    8    9 1    
    17    8  134 1    
    18    8  135 1    
    19    9   10 ar   
    20    9   14 ar   
    21   10   11 ar   
    22   10  136 1    
    23   11   12 ar   
    24   11  126 1    
    25   12   13 ar   
    26   12  137 1    
    27   13   14 ar   
    28   13   15 1    
    29   14  138 1    
    30   15   16 1    
    31   15  139 1    
    32   15  140 1    
    33   16   17 1    
    34   17   18 1    
    35   17  141 1    
    36   17  142 1    
    37   18   19 1    
    38   18   67 1    
    39   18  143 1    
    40   19   20 am   BACKBONE|DICT|INTERRES
    41   19  144 1    
    42   20   21 2    
    43   20   22 1    
    44   22   23 1    
    45   22   24 1    
    46   22  145 1    
    47   23  146 1    
    48   23  147 1    
    49   23  148 1    
    50   24   25 am   BACKBONE|DICT|INTERRES
    51   24  149 1    
    52   25   26 2    
    53   25   27 1    
    54   27   28 1    
    55   27   29 1    
    56   27  150 1    
    57   28  151 1    
    58   28  152 1    
    59   28  153 1    
    60   29   30 am   BACKBONE|DICT|INTERRES
    61   29  154 1    
    62   30   31 2    
    63   30   32 1    
    64   32   33 1    
    65   32   34 1    
    66   32  155 1    
    67   33  156 1    
    68   33  157 1    
    69   33  158 1    
    70   34   35 am   BACKBONE|DICT|INTERRES
    71   34  159 1    
    72   35   36 2    
    73   35   37 1    
    74   37   38 1    
    75   37   39 1    
    76   37  160 1    
    77   38  161 1    
    78   38  162 1    
    79   38  163 1    
    80   39   40 am   BACKBONE|DICT|INTERRES
    81   39  164 1    
    82   40   41 2    
    83   40   42 1    
    84   42   43 1    
    85   42   44 1    
    86   42  165 1    
    87   43  166 1    
    88   43  167 1    
    89   43  168 1    
    90   44   45 am   BACKBONE|DICT|INTERRES
    91   44  169 1    
    92   45   46 2    
    93   45   47 1    
    94   47   48 1    
    95   47   49 1    
    96   47  170 1    
    97   48  171 1    
    98   48  172 1    
    99   48  173 1    
   100   49   50 am   BACKBONE|DICT|INTERRES
   101   49  174 1    
   102   50   51 2    
   103   50   52 1    
   104   52   53 1    
   105   52   54 1    
   106   52  175 1    
   107   53  176 1    
   108   53  177 1    
   109   53  178 1    
   110   54   55 am   BACKBONE|DICT|INTERRES
   111   54  179 1    
   112   55   56 2    
   113   55   57 1    
   114   57   58 1    
   115   57   59 1    
   116   57  180 1    
   117   58  181 1    
   118   58  182 1    
   119   58  183 1    
   120   59   60 am   BACKBONE|DICT|INTERRES
   121   59  184 1    
   122   60   61 2    
   123   60   62 1    
   124   62   63 1    
   125   62   64 1    
   126   62  185 1    
   127   63  186 1    
   128   63  187 1    
   129   63  188 1    
   130   64   65 am   BACKBONE|DICT|INTERRES
   131   64  189 1    
   132   65   66 2    
   133   67   68 2    
   134   67   69 am   BACKBONE|DICT|INTERRES
   135   69   70 1    
   136   69  190 1    
   137   70   71 1    
   138   70   72 1    
   139   70  191 1    
   140   71  192 1    
   141   71  193 1    
   142   71  194 1    
   143   72   73 2    
   144   72   74 am   BACKBONE|DICT|INTERRES
   145   74   75 1    
   146   74  195 1    
   147   75   76 1    
   148   75   77 1    
   149   75  196 1    
   150   76  197 1    
   151   76  198 1    
   152   76  199 1    
   153   77   78 2    
   154   77   79 am   BACKBONE|DICT|INTERRES
   155   79   80 1    
   156   79  200 1    
   157   80   81 1    
   158   80   82 1    
   159   80  201 1    
   160   81  202 1    
   161   81  203 1    
   162   81  204 1    
   163   82   83 2    
   164   82   84 am   BACKBONE|DICT|INTERRES
   165   84   85 1    
   166   84  205 1    
   167   85   86 1    
   168   85   87 1    
   169   85  206 1    
   170   86  207 1    
   171   86  208 1    
   172   86  209 1    
   173   87   88 2    
   174   87   89 am   BACKBONE|DICT|INTERRES
   175   89   90 1    
   176   89  210 1    
   177   90   91 1    
   178   90   92 1    
   179   90  211 1    
   180   91  212 1    
   181   91  213 1    
   182   91  214 1    
   183   92   93 2    
   184   92   94 am   BACKBONE|DICT|INTERRES
   185   94   95 1    
   186   94  215 1    
   187   95   96 1    
   188   95   97 1    
   189   95  216 1    
   190   96  217 1    
   191   96  218 1    
   192   96  219 1    
   193   97   98 2    
   194   97   99 am   BACKBONE|DICT|INTERRES
   195   99  100 1    
   196   99  220 1    
   197  100  101 1    
   198  100  102 1    
   199  100  221 1    
   200  101  222 1    
   201  101  223 1    
   202  101  224 1    
   203  102  103 2    
   204  102  104 am   BACKBONE|DICT|INTERRES
   205  104  105 1    
   206  104  225 1    
   207  105  106 1    
   208  105  107 1    
   209  105  226 1    
   210  106  227 1    
   211  106  228 1    
   212  106  229 1    
   213  107  108 2    
   214  107  109 am   BACKBONE|DICT|INTERRES
   215  109  110 1    
   216  109  230 1    
   217  110  111 1    
   218  110  112 1    
   219  110  231 1    
   220  111  232 1    
   221  111  233 1    
   222  111  234 1    
   223  112  113 2    
   224  112  114 am   BACKBONE|DICT|INTERRES
   225  114  115 1    
   226  114  235 1    
   227  115  116 1    
   228  115  117 1    
   229  115  236 1    
   230  116  237 1    
   231  116  238 1    
   232  116  239 1    
   233  117  118 2    
   234  117  119 am   BACKBONE|DICT|INTERRES
   235  119  120 1    
   236  119  240 1    
   237  120  121 1    
   238  120  124 1    
   239  120  241 1    
   240  121  122 am   BACKBONE|DICT|INTERRES
   241  121  123 2    
   242  122  242 1    
   243  122  243 1    
   244  124  125 1    
   245  124  244 1    
   246  124  245 1    
   247  125  126 1    
   248  126  246 1    
   249  126  247 1    
@<TRIPOS>SUBSTRUCTURE
     1 UNK         1 GROUP             0       ****    0 ROOT    
