@<TRIPOS>MOLECULE
3R540
247   249    1
SMALL
USER_CHARGES


@<TRIPOS>ATOM
      1 CA         -2.6749  -13.7507  -51.5004 C.3       0 UNK        -0.1800 
      2 C          -1.4236  -12.8939  -51.3652 C.2       0 UNK         0.5000 
      3 O          -1.5168  -11.6667  -51.3749 O.2       0 UNK        -0.5000 
      4 N          -0.2553  -13.5369  -51.2413 N.am      1 UNK        -0.5000 
      5 CA          1.0564  -12.9005  -51.0596 C.3       1 UNK         0.1400 
      6 C6          2.2245  -13.8976  -51.2839 C.3       23 UNK        -0.0398 
      7 S7          2.1276  -15.4053  -50.2506 S.3       23 UNK        -0.2404 
      8 C8          1.3206  -16.5655  -51.4011 C.3       23 UNK        -0.0205 
      9 C9          0.4365  -17.5592  -50.6640 C.ar      23 UNK        -0.0193 
     10 C10        -0.7115  -17.1184  -49.9975 C.ar      23 UNK        -0.1150 
     11 C11        -1.5424  -18.0236  -49.3334 C.ar      23 UNK        -0.0193 
     12 C12        -1.2187  -19.3829  -49.3417 C.ar      23 UNK        -0.1150 
     13 C13        -0.0802  -19.8382  -50.0141 C.ar      23 UNK        -0.0193 
     14 C14         0.7456  -18.9218  -50.6702 C.ar      23 UNK        -0.1150 
     15 C15         0.2446  -21.3224  -50.0571 C.3       23 UNK        -0.0205 
     16 S16         1.5738  -21.7843  -48.9030 S.3       23 UNK        -0.2404 
     17 C17         0.8636  -21.3635  -47.2790 C.3       23 UNK        -0.0398 
     18 CA          0.1299  -22.5359  -46.5871 C.3       11 UNK         0.1400 
     19 N           0.0370  -22.3151  -45.1438 N.am      11 UNK        -0.5000 
     20 C          -0.4046  -23.2075  -44.2487 C.2       10 UNK         0.5000 
     21 O          -0.7587  -24.3509  -44.5373 O.2       10 UNK        -0.5000 
     22 CA         -0.5119  -22.7181  -42.7930 C.3       10 UNK         0.1400 
     23 CB          0.8621  -22.7366  -42.1072 C.3       10 UNK        -0.1800 
     24 N          -1.0944  -21.3777  -42.6934 N.am      10 UNK        -0.5000 
     25 C          -2.3488  -21.0742  -43.0581 C.2       9 UNK         0.5000 
     26 O          -3.1543  -21.9020  -43.4827 O.2       9 UNK        -0.5000 
     27 CA         -2.7646  -19.5946  -42.9778 C.3       9 UNK         0.1400 
     28 CB         -3.0788  -19.1946  -41.5287 C.3       9 UNK        -0.1800 
     29 N          -1.7632  -18.6872  -43.5404 N.am      9 UNK        -0.5000 
     30 C          -1.3637  -18.7001  -44.8209 C.2       8 UNK         0.5000 
     31 O          -1.8135  -19.4670  -45.6696 O.2       8 UNK        -0.5000 
     32 CA         -0.2279  -17.7398  -45.2116 C.3       8 UNK         0.1400 
     33 CB         -0.7513  -16.3083  -45.4059 C.3       8 UNK        -0.1800 
     34 N           0.8589  -17.7379  -44.2347 N.am      8 UNK        -0.5000 
     35 C           1.5975  -18.8086  -43.9100 C.2       7 UNK         0.5000 
     36 O           1.4619  -19.9198  -44.4192 O.2       7 UNK        -0.5000 
     37 CA          2.6231  -18.6179  -42.7835 C.3       7 UNK         0.1400 
     38 CB          3.8531  -17.8472  -43.2864 C.3       7 UNK        -0.1800 
     39 N           2.0372  -17.9332  -41.6320 N.am      7 UNK        -0.5000 
     40 C           1.0812  -18.4549  -40.8492 C.2       6 UNK         0.5000 
     41 O           0.6081  -19.5817  -40.9995 O.2       6 UNK        -0.5000 
     42 CA          0.5392  -17.5475  -39.7310 C.3       6 UNK         0.1400 
     43 CB          1.4452  -17.6124  -38.4924 C.3       6 UNK        -0.1800 
     44 N           0.3967  -16.1547  -40.1573 N.am      6 UNK        -0.5000 
     45 C          -0.4877  -15.7336  -41.0719 C.2       5 UNK         0.5000 
     46 O          -1.2790  -16.4742  -41.6549 O.2       5 UNK        -0.5000 
     47 CA         -0.4434  -14.2374  -41.4275 C.3       5 UNK         0.1400 
     48 CB         -1.1591  -13.4001  -40.3567 C.3       5 UNK        -0.1800 
     49 N           0.9173  -13.7264  -41.6231 N.am      5 UNK        -0.5000 
     50 C           1.7528  -14.1634  -42.5729 C.2       4 UNK         0.5000 
     51 O           1.4974  -15.1031  -43.3310 O.2       4 UNK        -0.5000 
     52 CA          3.0944  -13.4376  -42.7162 C.3       4 UNK         0.1400 
     53 CB          4.1996  -14.1263  -41.8970 C.3       4 UNK        -0.1800 
     54 N           3.4101  -13.4483  -44.1372 N.am      4 UNK        -0.5000 
     55 C           4.2644  -12.6473  -44.7786 C.2       3 UNK         0.5000 
     56 O           5.0376  -11.8694  -44.2183 O.2       3 UNK        -0.5000 
     57 CA          4.1973  -12.6931  -46.3188 C.3       3 UNK         0.1400 
     58 CB          5.0459  -13.8507  -46.8672 C.3       3 UNK        -0.1800 
     59 N           2.8276  -12.8138  -46.8346 N.am      3 UNK        -0.5000 
     60 C           1.8510  -11.9126  -46.6436 C.2       2 UNK         0.5000 
     61 O           2.0027  -10.8676  -46.0079 O.2       2 UNK        -0.5000 
     62 CA          0.4826  -12.2397  -47.2820 C.3       2 UNK         0.1400 
     63 CB         -0.5045  -11.0554  -47.2317 C.3       2 UNK        -0.1800 
     64 N           0.5815  -12.7528  -48.6533 N.am      2 UNK        -0.5000 
     65 C           1.1803  -12.1681  -49.7049 C.2       1 UNK         0.5000 
     66 O           1.7900  -11.0991  -49.6521 O.2       1 UNK        -0.5000 
     67 C          -1.2540  -22.8047  -47.2157 C.2       11 UNK         0.5000 
     68 O          -1.3843  -23.7295  -48.0190 O.2       11 UNK        -0.5000 
     69 N          -2.2648  -22.0172  -46.8203 N.am      12 UNK        -0.5000 
     70 CA         -3.6557  -22.1584  -47.2505 C.3       12 UNK         0.1400 
     71 CB         -4.4650  -20.9366  -46.7928 C.3       12 UNK        -0.1800 
     72 C          -4.3078  -23.4552  -46.7424 C.2       12 UNK         0.5000 
     73 O          -5.0368  -24.0955  -47.4991 O.2       12 UNK        -0.5000 
     74 N          -4.0146  -23.8350  -45.4898 N.am      13 UNK        -0.5000 
     75 CA         -4.4666  -25.0837  -44.8719 C.3       13 UNK         0.1400 
     76 CB         -4.1440  -25.0662  -43.3701 C.3       13 UNK        -0.1800 
     77 C          -3.8646  -26.3293  -45.5475 C.2       13 UNK         0.5000 
     78 O          -4.5750  -27.3157  -45.7462 O.2       13 UNK        -0.5000 
     79 N          -2.5790  -26.2496  -45.9186 N.am      14 UNK        -0.5000 
     80 CA         -1.8825  -27.2627  -46.7139 C.3       14 UNK         0.1400 
     81 CB         -0.3694  -27.0048  -46.6340 C.3       14 UNK        -0.1800 
     82 C          -2.3405  -27.2901  -48.1865 C.2       14 UNK         0.5000 
     83 O          -2.2378  -28.3344  -48.8308 O.2       14 UNK        -0.5000 
     84 N          -2.8132  -26.1373  -48.6846 N.am      15 UNK        -0.5000 
     85 CA         -3.1943  -25.8306  -50.0667 C.3       15 UNK         0.1400 
     86 CB         -4.4387  -26.6356  -50.4918 C.3       15 UNK        -0.1800 
     87 C          -2.0059  -25.9855  -51.0368 C.2       15 UNK         0.5000 
     88 O          -2.1712  -26.4767  -52.1546 O.2       15 UNK        -0.5000 
     89 N          -0.8148  -25.5732  -50.5791 N.am      16 UNK        -0.5000 
     90 CA          0.4715  -25.8384  -51.2312 C.3       16 UNK         0.1400 
     91 CB          1.6055  -25.4615  -50.2684 C.3       16 UNK        -0.1800 
     92 C           0.6592  -25.1519  -52.5991 C.2       16 UNK         0.5000 
     93 O           1.4498  -25.6379  -53.4087 O.2       16 UNK        -0.5000 
     94 N          -0.0784  -24.0605  -52.8403 N.am      17 UNK        -0.5000 
     95 CA         -0.1258  -23.3426  -54.1175 C.3       17 UNK         0.1400 
     96 CB          0.2225  -21.8623  -53.8786 C.3       17 UNK        -0.1800 
     97 C          -1.4899  -23.5082  -54.8197 C.2       17 UNK         0.5000 
     98 O          -1.7835  -22.7482  -55.7434 O.2       17 UNK        -0.5000 
     99 N          -2.2970  -24.4894  -54.3807 N.am      18 UNK        -0.5000 
    100 CA        -3.6516  -24.8021  -54.8460 C.3       18 UNK         0.1400 
    101 CB        -3.6193  -25.3701  -56.2831 C.3       18 UNK        -0.1800 
    102 C         -4.5986  -23.5996  -54.6553 C.2       18 UNK         0.5000 
    103 O         -4.8559  -23.2166  -53.5118 O.2       18 UNK        -0.5000 
    104 N         -5.0806  -23.0103  -55.7575 N.am      19 UNK        -0.5000 
    105 CA        -5.8879  -21.7904  -55.7941 C.3       19 UNK         0.1400 
    106 CB        -6.6161  -21.7204  -57.1482 C.3       19 UNK        -0.1800 
    107 C         -5.0214  -20.5424  -55.5198 C.2       19 UNK         0.5000 
    108 O         -4.7686  -19.7432  -56.4230 O.2       19 UNK        -0.5000 
    109 N         -4.5570  -20.4232  -54.2707 N.am      20 UNK        -0.5000 
    110 CA        -3.6410  -19.3872  -53.7906 C.3       20 UNK         0.1400 
    111 CB        -3.0962  -19.8277  -52.4254 C.3       20 UNK        -0.1800 
    112 C         -4.2589  -17.9746  -53.7078 C.2       20 UNK         0.5000 
    113 O         -3.5086  -16.9986  -53.6789 O.2       20 UNK        -0.5000 
    114 N         -5.6001  -17.8935  -53.6882 N.am      21 UNK        -0.5000 
    115 CA        -6.4191  -16.6732  -53.6743 C.3       21 UNK         0.1400 
    116 CB        -6.2622  -15.8967  -54.9988 C.3       21 UNK        -0.1800 
    117 C         -6.1721  -15.8007  -52.4250 C.2       21 UNK         0.5000 
    118 O         -5.9656  -14.5907  -52.5334 O.2       21 UNK        -0.5000 
    119 N         -6.1879  -16.4520  -51.2563 N.am      22 UNK        -0.5000 
    120 CA        -5.8797  -15.8609  -49.9415 C.3       22 UNK         0.1400 
    121 C         -6.9443  -14.8686  -49.3869 C.2       22 UNK         0.5000 
    122 N         -8.1381  -14.7789  -49.9600 N.am      22 UNK        -0.7600 
    123 O         -6.6789  -14.1636  -48.4173 O.2       22 UNK        -0.5000 
    124 C124       -5.5533  -16.9511  -48.8869 C.3       23 UNK        -0.0398 
    125 S125       -4.2903  -18.1279  -49.4731 S.3       23 UNK        -0.2404 
    126 C126       -2.7969  -17.5338  -48.6271 C.3       23 UNK        -0.0205 
    127 H127       -3.3517  -13.5550  -50.6692 H         1 UNK         0.0600 
    128 H128       -2.4464  -14.8168  -51.5113 H         1 UNK         0.0600 
    129 H129       -3.1973  -13.5111  -52.4267 H         1 UNK         0.0600 
    130 H130       -0.2432  -14.5449  -51.2557 H         1 UNK         0.3000 
    131 H131        1.1427  -12.1316  -51.8306 H         1 UNK         0.0600 
    132 H132        2.2602  -14.1878  -52.3348 H         1 UNK         0.0800 
    133 H133        3.1825  -13.4110  -51.0916 H         1 UNK         0.0800 
    134 H134        0.7080  -16.0312  -52.1277 H         1 UNK         0.0800 
    135 H135        2.0914  -17.0803  -51.9767 H         1 UNK         0.0800 
    136 H136       -0.9593  -16.0682  -49.9935 H         1 UNK         0.1150 
    137 H137       -1.8674  -20.0845  -48.8374 H         1 UNK         0.1150 
    138 H138        1.6250  -19.2743  -51.1907 H         1 UNK         0.1150 
    139 H139       -0.6478  -21.9179  -49.8672 H         1 UNK         0.0800 
    140 H140        0.5693  -21.5884  -51.0618 H         1 UNK         0.0800 
    141 H141        0.2393  -20.4723  -47.3333 H         1 UNK         0.0800 
    142 H142        1.7216  -21.0729  -46.6733 H         1 UNK         0.0800 
    143 H143        0.7284  -23.4392  -46.7235 H         1 UNK         0.0600 
    144 H144        0.3439  -21.4046  -44.8100 H         1 UNK         0.3000 
    145 H145       -1.1673  -23.4088  -42.2585 H         1 UNK         0.0600 
    146 H146        0.7780  -22.4756  -41.0521 H         1 UNK         0.0600 
    147 H147        1.5538  -22.0319  -42.5701 H         1 UNK         0.0600 
    148 H148        1.3140  -23.7277  -42.1627 H         1 UNK         0.0600 
    149 H149       -0.4952  -20.6459  -42.3242 H         1 UNK         0.3000 
    150 H150       -3.6782  -19.4786  -43.5644 H         1 UNK         0.0600 
    151 H151       -3.8240  -19.8604  -41.0916 H         1 UNK         0.0600 
    152 H152       -3.4793  -18.1820  -41.4784 H         1 UNK         0.0600 
    153 H153       -2.1906  -19.2347  -40.8977 H         1 UNK         0.0600 
    154 H154       -1.3687  -17.9980  -42.9070 H         1 UNK         0.3000 
    155 H155        0.1818  -18.0825  -46.1643 H         1 UNK         0.0600 
    156 H156       -1.5629  -16.2808  -46.1329 H         1 UNK         0.0600 
    157 H157        0.0360  -15.6497  -45.7728 H         1 UNK         0.0600 
    158 H158       -1.1296  -15.8884  -44.4732 H         1 UNK         0.0600 
    159 H159        1.0506  -16.8503  -43.7761 H         1 UNK         0.3000 
    160 H160        2.9521  -19.6067  -42.4565 H         1 UNK         0.0600 
    161 H161        3.5867  -16.8618  -43.6689 H         1 UNK         0.0600 
    162 H162        4.3420  -18.3878  -44.0978 H         1 UNK         0.0600 
    163 H163        4.5899  -17.7161  -42.4940 H         1 UNK         0.0600 
    164 H164        2.3339  -16.9841  -41.4647 H         1 UNK         0.3000 
    165 H165       -0.4484  -17.9198  -39.4505 H         1 UNK         0.0600 
    166 H166        1.0276  -17.0341  -37.6681 H         1 UNK         0.0600 
    167 H167        1.5555  -18.6401  -38.1438 H         1 UNK         0.0600 
    168 H168        2.4442  -17.2274  -38.7011 H         1 UNK         0.0600 
    169 H169        1.0161  -15.4785  -39.7356 H         1 UNK         0.3000 
    170 H170       -0.9817  -14.1112  -42.3695 H         1 UNK         0.0600 
    171 H171       -0.6451  -13.4466  -39.3958 H         1 UNK         0.0600 
    172 H172       -1.2231  -12.3530  -40.6529 H         1 UNK         0.0600 
    173 H173       -2.1789  -13.7549  -40.2011 H         1 UNK         0.0600 
    174 H174        1.1992  -12.9559  -41.0342 H         1 UNK         0.3000 
    175 H175        2.9776  -12.4038  -42.3848 H         1 UNK         0.0600 
    176 H176        4.3718  -15.1494  -42.2285 H         1 UNK         0.0600 
    177 H177        5.1444  -13.5888  -41.9773 H         1 UNK         0.0600 
    178 H178        3.9374  -14.1620  -40.8391 H         1 UNK         0.0600 
    179 H179        2.8052  -14.0556  -44.6761 H         1 UNK         0.3000 
    180 H180        4.6123  -11.7561  -46.6960 H         1 UNK         0.0600 
    181 H181        5.0690  -13.8412  -47.9572 H         1 UNK         0.0600 
    182 H182        4.6606  -14.8200  -46.5481 H         1 UNK         0.0600 
    183 H183        6.0774  -13.7767  -46.5201 H         1 UNK         0.0600 
    184 H184        2.6233  -13.6322  -47.3895 H         1 UNK         0.3000 
    185 H185        0.0569  -13.0455  -46.6822 H         1 UNK         0.0600 
    186 H186       -1.4700  -11.3295  -47.6570 H         1 UNK         0.0600 
    187 H187       -0.6827  -10.7355  -46.2044 H         1 UNK         0.0600 
    188 H188       -0.1289  -10.1935  -47.7842 H         1 UNK         0.0600 
    189 H189        0.1267  -13.6386  -48.8197 H         1 UNK         0.3000 
    190 H190       -2.0673  -21.2366  -46.1978 H         1 UNK         0.3000 
    191 H191       -3.6659  -22.1830  -48.3422 H         1 UNK         0.0600 
    192 H192       -4.4872  -20.8510  -45.7061 H         1 UNK         0.0600 
    193 H193       -5.4966  -20.9964  -47.1415 H         1 UNK         0.0600 
    194 H194       -4.0418  -20.0150  -47.1884 H         1 UNK         0.0600 
    195 H195       -3.4607  -23.2141  -44.9066 H         1 UNK         0.3000 
    196 H196       -5.5514  -25.1378  -44.9839 H         1 UNK         0.0600 
    197 H197       -4.6378  -24.2321  -42.8714 H         1 UNK         0.0600 
    198 H198       -3.0729  -24.9773  -43.1882 H         1 UNK         0.0600 
    199 H199       -4.4850  -25.9823  -42.8863 H         1 UNK         0.0600 
    200 H200       -2.0417  -25.4312  -45.6485 H         1 UNK         0.3000 
    201 H201       -2.0872  -28.2442  -46.2816 H         1 UNK         0.0600 
    202 H202       -0.0168  -27.0462  -45.6033 H         1 UNK         0.0600 
    203 H203       -0.1059  -26.0263  -47.0371 H         1 UNK         0.0600 
    204 H204        0.1865  -27.7537  -47.1994 H         1 UNK         0.0600 
    205 H205       -2.7843  -25.3333  -48.0697 H         1 UNK         0.3000 
    206 H206       -3.4645  -24.7737  -50.0804 H         1 UNK         0.0600 
    207 H207       -5.2549  -26.4981  -49.7824 H         1 UNK         0.0600 
    208 H208       -4.7988  -26.3090  -51.4681 H         1 UNK         0.0600 
    209 H209       -4.2288  -27.7033  -50.5605 H         1 UNK         0.0600 
    210 H210       -0.7835  -25.1417  -49.6628 H         1 UNK         0.3000 
    211 H211        0.5281  -26.9147  -51.4070 H         1 UNK         0.0600 
    212 H212        1.5995  -24.3961  -50.0471 H         1 UNK         0.0600 
    213 H213        2.5796  -25.7018  -50.6963 H         1 UNK         0.0600 
    214 H214        1.5221  -26.0021  -49.3253 H         1 UNK         0.0600 
    215 H215       -0.7116  -23.7460  -52.1198 H         1 UNK         0.3000 
    216 H216        0.6175  -23.7448  -54.8084 H         1 UNK         0.0600 
    217 H217        0.2390  -21.3031  -54.8148 H         1 UNK         0.0600 
    218 H218        1.2105  -21.7602  -53.4295 H         1 UNK         0.0600 
    219 H219       -0.4974  -21.3776  -53.2214 H         1 UNK         0.0600 
    220 H220       -1.9718  -25.0738  -53.6181 H         1 UNK         0.3000 
    221 H221       -4.0277  -25.5898  -54.1914 H         1 UNK         0.0600 
    222 H222       -3.2215  -24.6571  -57.0058 H         1 UNK         0.0600 
    223 H223       -2.9973  -26.2640  -56.3303 H         1 UNK         0.0600 
    224 H224       -4.6177  -25.6592  -56.6139 H         1 UNK         0.0600 
    225 H225       -4.7719  -23.3629  -56.6517 H         1 UNK         0.3000 
    226 H226       -6.6472  -21.8457  -55.0110 H         1 UNK         0.0600 
    227 H227       -7.2704  -22.5811  -57.2881 H         1 UNK         0.0600 
    228 H228       -7.2386  -20.8270  -57.2110 H         1 UNK         0.0600 
    229 H229       -5.9155  -21.6932  -57.9837 H         1 UNK         0.0600 
    230 H230       -4.7648  -21.1785  -53.6259 H         1 UNK         0.3000 
    231 H231       -2.8025  -19.3328  -54.4880 H         1 UNK         0.0600 
    232 H232       -2.3851  -19.0995  -52.0338 H         1 UNK         0.0600 
    233 H233       -2.5827  -20.7856  -52.4922 H         1 UNK         0.0600 
    234 H234       -3.8970  -19.9389  -51.6951 H         1 UNK         0.0600 
    235 H235       -6.1110  -18.7642  -53.7035 H         1 UNK         0.3000 
    236 H236       -7.4575  -17.0018  -53.6131 H         1 UNK         0.0600 
    237 H237       -5.2567  -15.4913  -55.1161 H         1 UNK         0.0600 
    238 H238       -6.4670  -16.5368  -55.8570 H         1 UNK         0.0600 
    239 H239       -6.9590  -15.0590  -55.0450 H         1 UNK         0.0600 
    240 H240       -6.3407  -17.4494  -51.2621 H         1 UNK         0.3000 
    241 H241       -4.9734  -15.2683  -50.0751 H         1 UNK         0.0600 
    242 H242       -8.8176  -14.1301  -49.5947 H         1 UNK         0.3800 
    243 H243       -8.3667  -15.3471  -50.7596 H         1 UNK         0.3800 
    244 H244       -6.4513  -17.5213  -48.6436 H         1 UNK         0.0800 
    245 H245       -5.2187  -16.5004  -47.9508 H         1 UNK         0.0800 
    246 H246       -2.8097  -16.4435  -48.5875 H         1 UNK         0.0800 
    247 H247       -2.8025  -17.8857  -47.5958 H         1 UNK         0.0800 
@<TRIPOS>BOND
     1    1    2 1    
     2    1  127 1    
     3    1  128 1    
     4    1  129 1    
     5    2    3 2    
     6    2    4 am   BACKBONE|DICT|INTERRES
     7    4    5 1    
     8    4  130 1    
     9    5    6 1    
    10    5   65 1    
    11    5  131 1    
    12    6    7 1    
    13    6  132 1    
    14    6  133 1    
    15    7    8 1    
    16    8    9 1    
    17    8  134 1    
    18    8  135 1    
    19    9   10 ar   
    20    9   14 ar   
    21   10   11 ar   
    22   10  136 1    
    23   11   12 ar   
    24   11  126 1    
    25   12   13 ar   
    26   12  137 1    
    27   13   14 ar   
    28   13   15 1    
    29   14  138 1    
    30   15   16 1    
    31   15  139 1    
    32   15  140 1    
    33   16   17 1    
    34   17   18 1    
    35   17  141 1    
    36   17  142 1    
    37   18   19 1    
    38   18   67 1    
    39   18  143 1    
    40   19   20 am   BACKBONE|DICT|INTERRES
    41   19  144 1    
    42   20   21 2    
    43   20   22 1    
    44   22   23 1    
    45   22   24 1    
    46   22  145 1    
    47   23  146 1    
    48   23  147 1    
    49   23  148 1    
    50   24   25 am   BACKBONE|DICT|INTERRES
    51   24  149 1    
    52   25   26 2    
    53   25   27 1    
    54   27   28 1    
    55   27   29 1    
    56   27  150 1    
    57   28  151 1    
    58   28  152 1    
    59   28  153 1    
    60   29   30 am   BACKBONE|DICT|INTERRES
    61   29  154 1    
    62   30   31 2    
    63   30   32 1    
    64   32   33 1    
    65   32   34 1    
    66   32  155 1    
    67   33  156 1    
    68   33  157 1    
    69   33  158 1    
    70   34   35 am   BACKBONE|DICT|INTERRES
    71   34  159 1    
    72   35   36 2    
    73   35   37 1    
    74   37   38 1    
    75   37   39 1    
    76   37  160 1    
    77   38  161 1    
    78   38  162 1    
    79   38  163 1    
    80   39   40 am   BACKBONE|DICT|INTERRES
    81   39  164 1    
    82   40   41 2    
    83   40   42 1    
    84   42   43 1    
    85   42   44 1    
    86   42  165 1    
    87   43  166 1    
    88   43  167 1    
    89   43  168 1    
    90   44   45 am   BACKBONE|DICT|INTERRES
    91   44  169 1    
    92   45   46 2    
    93   45   47 1    
    94   47   48 1    
    95   47   49 1    
    96   47  170 1    
    97   48  171 1    
    98   48  172 1    
    99   48  173 1    
   100   49   50 am   BACKBONE|DICT|INTERRES
   101   49  174 1    
   102   50   51 2    
   103   50   52 1    
   104   52   53 1    
   105   52   54 1    
   106   52  175 1    
   107   53  176 1    
   108   53  177 1    
   109   53  178 1    
   110   54   55 am   BACKBONE|DICT|INTERRES
   111   54  179 1    
   112   55   56 2    
   113   55   57 1    
   114   57   58 1    
   115   57   59 1    
   116   57  180 1    
   117   58  181 1    
   118   58  182 1    
   119   58  183 1    
   120   59   60 am   BACKBONE|DICT|INTERRES
   121   59  184 1    
   122   60   61 2    
   123   60   62 1    
   124   62   63 1    
   125   62   64 1    
   126   62  185 1    
   127   63  186 1    
   128   63  187 1    
   129   63  188 1    
   130   64   65 am   BACKBONE|DICT|INTERRES
   131   64  189 1    
   132   65   66 2    
   133   67   68 2    
   134   67   69 am   BACKBONE|DICT|INTERRES
   135   69   70 1    
   136   69  190 1    
   137   70   71 1    
   138   70   72 1    
   139   70  191 1    
   140   71  192 1    
   141   71  193 1    
   142   71  194 1    
   143   72   73 2    
   144   72   74 am   BACKBONE|DICT|INTERRES
   145   74   75 1    
   146   74  195 1    
   147   75   76 1    
   148   75   77 1    
   149   75  196 1    
   150   76  197 1    
   151   76  198 1    
   152   76  199 1    
   153   77   78 2    
   154   77   79 am   BACKBONE|DICT|INTERRES
   155   79   80 1    
   156   79  200 1    
   157   80   81 1    
   158   80   82 1    
   159   80  201 1    
   160   81  202 1    
   161   81  203 1    
   162   81  204 1    
   163   82   83 2    
   164   82   84 am   BACKBONE|DICT|INTERRES
   165   84   85 1    
   166   84  205 1    
   167   85   86 1    
   168   85   87 1    
   169   85  206 1    
   170   86  207 1    
   171   86  208 1    
   172   86  209 1    
   173   87   88 2    
   174   87   89 am   BACKBONE|DICT|INTERRES
   175   89   90 1    
   176   89  210 1    
   177   90   91 1    
   178   90   92 1    
   179   90  211 1    
   180   91  212 1    
   181   91  213 1    
   182   91  214 1    
   183   92   93 2    
   184   92   94 am   BACKBONE|DICT|INTERRES
   185   94   95 1    
   186   94  215 1    
   187   95   96 1    
   188   95   97 1    
   189   95  216 1    
   190   96  217 1    
   191   96  218 1    
   192   96  219 1    
   193   97   98 2    
   194   97   99 am   BACKBONE|DICT|INTERRES
   195   99  100 1    
   196   99  220 1    
   197  100  101 1    
   198  100  102 1    
   199  100  221 1    
   200  101  222 1    
   201  101  223 1    
   202  101  224 1    
   203  102  103 2    
   204  102  104 am   BACKBONE|DICT|INTERRES
   205  104  105 1    
   206  104  225 1    
   207  105  106 1    
   208  105  107 1    
   209  105  226 1    
   210  106  227 1    
   211  106  228 1    
   212  106  229 1    
   213  107  108 2    
   214  107  109 am   BACKBONE|DICT|INTERRES
   215  109  110 1    
   216  109  230 1    
   217  110  111 1    
   218  110  112 1    
   219  110  231 1    
   220  111  232 1    
   221  111  233 1    
   222  111  234 1    
   223  112  113 2    
   224  112  114 am   BACKBONE|DICT|INTERRES
   225  114  115 1    
   226  114  235 1    
   227  115  116 1    
   228  115  117 1    
   229  115  236 1    
   230  116  237 1    
   231  116  238 1    
   232  116  239 1    
   233  117  118 2    
   234  117  119 am   BACKBONE|DICT|INTERRES
   235  119  120 1    
   236  119  240 1    
   237  120  121 1    
   238  120  124 1    
   239  120  241 1    
   240  121  122 am   BACKBONE|DICT|INTERRES
   241  121  123 2    
   242  122  242 1    
   243  122  243 1    
   244  124  125 1    
   245  124  244 1    
   246  124  245 1    
   247  125  126 1    
   248  126  246 1    
   249  126  247 1    
@<TRIPOS>SUBSTRUCTURE
     1 UNK         1 GROUP             0       ****    0 ROOT    
