@<TRIPOS>MOLECULE
3R540
247   249    1
SMALL
USER_CHARGES


@<TRIPOS>ATOM
      1 CA         -4.2928  -13.2318  -45.3134 C.3       0 UNK        -0.1800 
      2 C          -2.8326  -13.6480  -45.2163 C.2       0 UNK         0.5000 
      3 O          -2.0817  -13.0740  -44.4301 O.2       0 UNK        -0.5000 
      4 N          -2.4284  -14.6586  -45.9952 N.am      1 UNK        -0.5000 
      5 CA         -1.0613  -15.1974  -46.0596 C.3       1 UNK         0.1400 
      6 C6         -0.8786  -16.1431  -47.2729 C.3       23 UNK        -0.0398 
      7 S7         -2.0782  -17.5220  -47.3120 S.3       23 UNK        -0.2404 
      8 C8         -2.5228  -17.5972  -49.0805 C.3       23 UNK        -0.0205 
      9 C9         -1.3722  -17.9765  -50.0117 C.ar      23 UNK        -0.0193 
     10 C10        -1.3586  -17.4848  -51.3205 C.ar      23 UNK        -0.1150 
     11 C11        -0.3333  -17.8293  -52.2049 C.ar      23 UNK        -0.0193 
     12 C12         0.7016  -18.6574  -51.7633 C.ar      23 UNK        -0.1150 
     13 C13         0.6953  -19.1762  -50.4667 C.ar      23 UNK        -0.0193 
     14 C14        -0.3448  -18.8322  -49.5992 C.ar      23 UNK        -0.1150 
     15 C15         1.8181  -20.0980  -50.0119 C.3       23 UNK        -0.0205 
     16 S16         1.2220  -21.7779  -49.6331 S.3       23 UNK        -0.2404 
     17 C17         1.0689  -21.6787  -47.8223 C.3       23 UNK        -0.0398 
     18 CA          0.0466  -22.6707  -47.2219 C.3       11 UNK         0.1400 
     19 N           0.4245  -23.0062  -45.8475 N.am      11 UNK        -0.5000 
     20 C          -0.0222  -24.0553  -45.1481 C.2       10 UNK         0.5000 
     21 O          -0.7999  -24.8949  -45.5974 O.2       10 UNK        -0.5000 
     22 CA          0.4603  -24.1541  -43.6877 C.3       10 UNK         0.1400 
     23 CB          1.8063  -24.8895  -43.6125 C.3       10 UNK        -0.1800 
     24 N           0.5890  -22.8396  -43.0508 N.am      10 UNK        -0.5000 
     25 C          -0.4532  -22.0552  -42.7431 C.2       9 UNK         0.5000 
     26 O          -1.6241  -22.3882  -42.9179 O.2       9 UNK        -0.5000 
     27 CA         -0.1426  -20.6469  -42.2016 C.3       9 UNK         0.1400 
     28 CB         -0.0161  -20.6616  -40.6721 C.3       9 UNK        -0.1800 
     29 N           1.0544  -20.0310  -42.7812 N.am      9 UNK        -0.5000 
     30 C           1.2229  -19.7450  -44.0790 C.2       8 UNK         0.5000 
     31 O           0.4046  -20.0491  -44.9472 O.2       8 UNK        -0.5000 
     32 CA          2.5135  -18.9938  -44.4550 C.3       8 UNK         0.1400 
     33 CB          2.5604  -18.5874  -45.9384 C.3       8 UNK        -0.1800 
     34 N           2.6697  -17.7908  -43.6418 N.am      8 UNK        -0.5000 
     35 C           3.3133  -17.7240  -42.4708 C.2       7 UNK         0.5000 
     36 O           3.7645  -18.7182  -41.8991 O.2       7 UNK        -0.5000 
     37 CA          3.4584  -16.3282  -41.8263 C.3       7 UNK         0.1400 
     38 CB          4.6804  -16.2303  -40.8904 C.3       7 UNK        -0.1800 
     39 N           3.4637  -15.2200  -42.7879 N.am      7 UNK        -0.5000 
     40 C           4.3231  -14.9979  -43.7944 C.2       6 UNK         0.5000 
     41 O           5.2583  -15.7468  -44.0792 O.2       6 UNK        -0.5000 
     42 CA          4.1245  -13.7060  -44.6062 C.3       6 UNK         0.1400 
     43 CB          3.0535  -13.8887  -45.6931 C.3       6 UNK        -0.1800 
     44 N           3.7518  -12.5832  -43.7440 N.am      6 UNK        -0.5000 
     45 C           4.3854  -11.4036  -43.6951 C.2       5 UNK         0.5000 
     46 O           5.3368  -11.1062  -44.4190 O.2       5 UNK        -0.5000 
     47 CA          3.8815  -10.3728  -42.6609 C.3       5 UNK         0.1400 
     48 CB          2.9154   -9.3786  -43.3235 C.3       5 UNK        -0.1800 
     49 N           3.2157  -10.9777  -41.5057 N.am      5 UNK        -0.5000 
     50 C           3.8098  -11.7656  -40.5997 C.2       4 UNK         0.5000 
     51 O           5.0233  -11.9737  -40.5731 O.2       4 UNK        -0.5000 
     52 CA          2.9064  -12.4614  -39.5588 C.3       4 UNK         0.1400 
     53 CB          3.0565  -11.7841  -38.1876 C.3       4 UNK        -0.1800 
     54 N           1.4747  -12.5506  -39.8821 N.am      4 UNK        -0.5000 
     55 C           0.9314  -13.0866  -40.9832 C.2       3 UNK         0.5000 
     56 O           1.5765  -13.4167  -41.9802 O.2       3 UNK        -0.5000 
     57 CA         -0.5972  -13.2516  -40.9802 C.3       3 UNK         0.1400 
     58 CB         -1.2711  -11.9669  -41.4835 C.3       3 UNK        -0.1800 
     59 N          -1.0172  -14.3828  -41.8110 N.am      3 UNK        -0.5000 
     60 C          -0.7615  -15.6698  -41.5238 C.2       2 UNK         0.5000 
     61 O          -0.1815  -16.0340  -40.4999 O.2       2 UNK        -0.5000 
     62 CA         -1.2423  -16.7434  -42.5207 C.3       2 UNK         0.1400 
     63 CB         -2.5083  -17.4291  -41.9847 C.3       2 UNK        -0.1800 
     64 N          -1.5159  -16.2210  -43.8586 N.am      2 UNK        -0.5000 
     65 C          -0.5779  -15.8507  -44.7415 C.2       1 UNK         0.5000 
     66 O           0.6292  -15.9847  -44.5395 O.2       1 UNK        -0.5000 
     67 C          -1.4046  -22.1409  -47.2837 C.2       11 UNK         0.5000 
     68 O          -2.1493  -22.4794  -48.2065 O.2       11 UNK        -0.5000 
     69 N          -1.7950  -21.3706  -46.2567 N.am      12 UNK        -0.5000 
     70 CA         -3.1622  -20.9147  -46.0138 C.3       12 UNK         0.1400 
     71 CB         -3.1738  -19.9091  -44.8519 C.3       12 UNK        -0.1800 
     72 C          -4.1151  -22.0872  -45.7206 C.2       12 UNK         0.5000 
     73 O          -5.1972  -22.1441  -46.3027 O.2       12 UNK        -0.5000 
     74 N          -3.6824  -23.0227  -44.8612 N.am      13 UNK        -0.5000 
     75 CA         -4.4103  -24.2484  -44.5173 C.3       13 UNK         0.1400 
     76 CB         -3.7068  -24.9557  -43.3496 C.3       13 UNK        -0.1800 
     77 C          -4.5808  -25.2067  -45.7117 C.2       13 UNK         0.5000 
     78 O          -5.6244  -25.8493  -45.8301 O.2       13 UNK        -0.5000 
     79 N          -3.5758  -25.2505  -46.5978 N.am      14 UNK        -0.5000 
     80 CA         -3.6157  -25.9552  -47.8820 C.3       14 UNK         0.1400 
     81 CB         -2.1836  -26.0933  -48.4225 C.3       14 UNK        -0.1800 
     82 C          -4.5263  -25.2768  -48.9288 C.2       14 UNK         0.5000 
     83 O          -4.8294  -25.8992  -49.9473 O.2       14 UNK        -0.5000 
     84 N          -4.9444  -24.0298  -48.6600 N.am      15 UNK        -0.5000 
     85 CA         -5.8284  -23.1823  -49.4619 C.3       15 UNK         0.1400 
     86 CB         -7.2456  -23.7871  -49.5314 C.3       15 UNK        -0.1800 
     87 C          -5.2392  -22.8483  -50.8449 C.2       15 UNK         0.5000 
     88 O          -5.9654  -22.8508  -51.8410 O.2       15 UNK        -0.5000 
     89 N          -3.9301  -22.5531  -50.8795 N.am      16 UNK        -0.5000 
     90 CA         -3.1555  -22.2965  -52.0984 C.3       16 UNK         0.1400 
     91 CB         -1.6919  -22.0292  -51.7246 C.3       16 UNK        -0.1800 
     92 C          -3.6988  -21.1530  -52.9750 C.2       16 UNK         0.5000 
     93 O          -3.6355  -21.2551  -54.2003 O.2       16 UNK        -0.5000 
     94 N          -4.2538  -20.1139  -52.3355 N.am      17 UNK        -0.5000 
     95 CA         -4.8941  -18.9762  -52.9957 C.3       17 UNK         0.1400 
     96 CB         -5.1756  -17.8781  -51.9582 C.3       17 UNK        -0.1800 
     97 C          -6.2007  -19.3621  -53.7120 C.2       17 UNK         0.5000 
     98 O          -6.4283  -18.9263  -54.8403 O.2       17 UNK        -0.5000 
     99 N          -7.0316  -20.1733  -53.0424 N.am      18 UNK        -0.5000 
    100 CA        -8.3292  -20.6305  -53.5432 C.3       18 UNK         0.1400 
    101 CB        -9.1769  -21.1455  -52.3708 C.3       18 UNK        -0.1800 
    102 C         -8.1812  -21.7139  -54.6231 C.2       18 UNK         0.5000 
    103 O         -8.9264  -21.7058  -55.6034 O.2       18 UNK        -0.5000 
    104 N         -7.1998  -22.6063  -54.4367 N.am      19 UNK        -0.5000 
    105 CA        -6.8128  -23.6370  -55.3999 C.3       19 UNK         0.1400 
    106 CB        -5.9119  -24.6579  -54.6864 C.3       19 UNK        -0.1800 
    107 C         -6.0902  -23.0681  -56.6374 C.2       19 UNK         0.5000 
    108 O         -6.0234  -23.7505  -57.6602 O.2       19 UNK        -0.5000 
    109 N         -5.5372  -21.8517  -56.5046 N.am      20 UNK        -0.5000 
    110 CA        -4.6635  -21.1497  -57.4515 C.3       20 UNK         0.1400 
    111 CB        -5.4119  -20.8089  -58.7562 C.3       20 UNK        -0.1800 
    112 C         -3.3332  -21.8956  -57.6930 C.2       20 UNK         0.5000 
    113 O         -2.7207  -21.7523  -58.7530 O.2       20 UNK        -0.5000 
    114 N         -2.8982  -22.6678  -56.6874 N.am      21 UNK        -0.5000 
    115 CA        -1.6955  -23.5008  -56.7026 C.3       21 UNK         0.1400 
    116 CB        -1.7032  -24.4049  -55.4605 C.3       21 UNK        -0.1800 
    117 C         -0.3991  -22.6753  -56.7633 C.2       21 UNK         0.5000 
    118 O          0.6026  -23.1499  -57.3000 O.2       21 UNK        -0.5000 
    119 N         -0.4565  -21.4498  -56.2314 N.am      22 UNK        -0.5000 
    120 CA         0.6086  -20.4443  -56.3039 C.3       22 UNK         0.1400 
    121 C          0.6494  -19.6346  -57.6358 C.2       22 UNK         0.5000 
    122 N         -0.2467  -19.8606  -58.5910 N.am      22 UNK        -0.7600 
    123 O          1.5275  -18.7952  -57.8163 O.2       22 UNK        -0.5000 
    124 C124        0.6020  -19.5443  -55.0449 C.3       23 UNK        -0.0398 
    125 S125       -0.9242  -18.5624  -54.8156 S.3       23 UNK        -0.2404 
    126 C126       -0.3452  -17.3021  -53.6329 C.3       23 UNK        -0.0205 
    127 H127       -4.3648  -12.1883  -45.6197 H         1 UNK         0.0600 
    128 H128       -4.7779  -13.3377  -44.3431 H         1 UNK         0.0600 
    129 H129       -4.8399  -13.8376  -46.0361 H         1 UNK         0.0600 
    130 H130       -3.0946  -15.1121  -46.6047 H         1 UNK         0.3000 
    131 H131       -0.3988  -14.3443  -46.2201 H         1 UNK         0.0600 
    132 H132       -0.9800  -15.5634  -48.1912 H         1 UNK         0.0800 
    133 H133        0.1316  -16.5539  -47.3016 H         1 UNK         0.0800 
    134 H134       -2.9462  -16.6352  -49.3730 H         1 UNK         0.0800 
    135 H135       -3.3161  -18.3355  -49.2015 H         1 UNK         0.0800 
    136 H136       -2.1481  -16.8294  -51.6576 H         1 UNK         0.1150 
    137 H137        1.5109  -18.9065  -52.4335 H         1 UNK         0.1150 
    138 H138       -0.3586  -19.2341  -48.5993 H         1 UNK         0.1150 
    139 H139        2.3213  -19.6630  -49.1475 H         1 UNK         0.0800 
    140 H140        2.5789  -20.1795  -50.7895 H         1 UNK         0.0800 
    141 H141        0.8487  -20.6600  -47.5078 H         1 UNK         0.0800 
    142 H142        2.0657  -21.8920  -47.4331 H         1 UNK         0.0800 
    143 H143        0.0835  -23.5967  -47.7997 H         1 UNK         0.0600 
    144 H144        1.0054  -22.3324  -45.3711 H         1 UNK         0.3000 
    145 H145       -0.2772  -24.7360  -43.1310 H         1 UNK         0.0600 
    146 H146        1.7348  -25.8800  -44.0640 H         1 UNK         0.0600 
    147 H147        2.1228  -25.0272  -42.5785 H         1 UNK         0.0600 
    148 H148        2.5941  -24.3462  -44.1359 H         1 UNK         0.0600 
    149 H149        1.5227  -22.5012  -42.8703 H         1 UNK         0.3000 
    150 H150       -0.9913  -20.0124  -42.4619 H         1 UNK         0.0600 
    151 H151        0.8451  -21.2453  -40.3449 H         1 UNK         0.0600 
    152 H152       -0.9038  -21.0965  -40.2107 H         1 UNK         0.0600 
    153 H153        0.0919  -19.6511  -40.2768 H         1 UNK         0.0600 
    154 H154        1.7899  -19.7615  -42.1398 H         1 UNK         0.3000 
    155 H155        3.3512  -19.6698  -44.2721 H         1 UNK         0.0600 
    156 H156        1.6802  -18.0139  -46.2288 H         1 UNK         0.0600 
    157 H157        2.6139  -19.4655  -46.5800 H         1 UNK         0.0600 
    158 H158        3.4400  -17.9803  -46.1538 H         1 UNK         0.0600 
    159 H159        2.2131  -16.9546  -43.9974 H         1 UNK         0.3000 
    160 H160        2.5657  -16.1873  -41.2157 H         1 UNK         0.0600 
    161 H161        5.6109  -16.4371  -41.4200 H         1 UNK         0.0600 
    162 H162        4.6050  -16.9444  -40.0696 H         1 UNK         0.0600 
    163 H163        4.7616  -15.2374  -40.4486 H         1 UNK         0.0600 
    164 H164        2.7064  -14.5530  -42.6478 H         1 UNK         0.3000 
    165 H165        5.0757  -13.5048  -45.1033 H         1 UNK         0.0600 
    166 H166        3.2185  -14.8023  -46.2660 H         1 UNK         0.0600 
    167 H167        2.0542  -13.9413  -45.2625 H         1 UNK         0.0600 
    168 H168        3.0657  -13.0551  -46.3951 H         1 UNK         0.0600 
    169 H169        2.9849  -12.7452  -43.0981 H         1 UNK         0.3000 
    170 H170        4.7497   -9.8187  -42.2983 H         1 UNK         0.0600 
    171 H171        2.6108   -8.5986  -42.6254 H         1 UNK         0.0600 
    172 H172        2.0150   -9.8755  -43.6875 H         1 UNK         0.0600 
    173 H173        3.3855   -8.8853  -44.1753 H         1 UNK         0.0600 
    174 H174        2.2137  -10.8705  -41.4530 H         1 UNK         0.3000 
    175 H175        3.2712  -13.4863  -39.4695 H         1 UNK         0.0600 
    176 H176        4.1041  -11.7293  -37.8878 H         1 UNK         0.0600 
    177 H177        2.6649  -10.7662  -38.1989 H         1 UNK         0.0600 
    178 H178        2.5295  -12.3396  -37.4116 H         1 UNK         0.0600 
    179 H179        0.8510  -12.2722  -39.1382 H         1 UNK         0.3000 
    180 H180       -0.9293  -13.4432  -39.9578 H         1 UNK         0.0600 
    181 H181       -0.9150  -11.6886  -42.4761 H         1 UNK         0.0600 
    182 H182       -1.0636  -11.1292  -40.8167 H         1 UNK         0.0600 
    183 H183       -2.3542  -12.0806  -41.5351 H         1 UNK         0.0600 
    184 H184       -1.4404  -14.1495  -42.7016 H         1 UNK         0.3000 
    185 H185       -0.4528  -17.4930  -42.5996 H         1 UNK         0.0600 
    186 H186       -2.3261  -17.8763  -41.0065 H         1 UNK         0.0600 
    187 H187       -3.3322  -16.7228  -41.8750 H         1 UNK         0.0600 
    188 H188       -2.8391  -18.2276  -42.6459 H         1 UNK         0.0600 
    189 H189       -2.4839  -16.0791  -44.1061 H         1 UNK         0.3000 
    190 H190       -1.0918  -21.0699  -45.5884 H         1 UNK         0.3000 
    191 H191       -3.5056  -20.4048  -46.9163 H         1 UNK         0.0600 
    192 H192       -2.3922  -19.1580  -44.9604 H         1 UNK         0.0600 
    193 H193       -4.1287  -19.3848  -44.8060 H         1 UNK         0.0600 
    194 H194       -3.0256  -20.3959  -43.8890 H         1 UNK         0.0600 
    195 H195       -2.8083  -22.8641  -44.3680 H         1 UNK         0.3000 
    196 H196       -5.4087  -23.9572  -44.1845 H         1 UNK         0.0600 
    197 H197       -4.2491  -25.8545  -43.0536 H         1 UNK         0.0600 
    198 H198       -3.6479  -24.3087  -42.4742 H         1 UNK         0.0600 
    199 H199       -2.6928  -25.2562  -43.6131 H         1 UNK         0.0600 
    200 H200       -2.7163  -24.7586  -46.3797 H         1 UNK         0.3000 
    201 H201       -4.0111  -26.9580  -47.7083 H         1 UNK         0.0600 
    202 H202       -2.1693  -26.6623  -49.3528 H         1 UNK         0.0600 
    203 H203       -1.5421  -26.6164  -47.7131 H         1 UNK         0.0600 
    204 H204       -1.7352  -25.1214  -48.6274 H         1 UNK         0.0600 
    205 H205       -4.6294  -23.6090  -47.7948 H         1 UNK         0.3000 
    206 H206       -5.9044  -22.2329  -48.9309 H         1 UNK         0.0600 
    207 H207       -7.6157  -24.0374  -48.5371 H         1 UNK         0.0600 
    208 H208       -7.9501  -23.0800  -49.9677 H         1 UNK         0.0600 
    209 H209       -7.2718  -24.6931  -50.1378 H         1 UNK         0.0600 
    210 H210       -3.4071  -22.5758  -50.0104 H         1 UNK         0.3000 
    211 H211       -3.1929  -23.2077  -52.6978 H         1 UNK         0.0600 
    212 H212       -1.0844  -21.8404  -52.6109 H         1 UNK         0.0600 
    213 H213       -1.2561  -22.8835  -51.2064 H         1 UNK         0.0600 
    214 H214       -1.5980  -21.1600  -51.0724 H         1 UNK         0.0600 
    215 H215       -4.2553  -20.1212  -51.3270 H         1 UNK         0.3000 
    216 H216       -4.2001  -18.5802  -53.7406 H         1 UNK         0.0600 
    217 H217       -4.2628  -17.5506  -51.4676 H         1 UNK         0.0600 
    218 H218       -5.8636  -18.2185  -51.1833 H         1 UNK         0.0600 
    219 H219       -5.6208  -17.0012  -52.4300 H         1 UNK         0.0600 
    220 H220       -6.7375  -20.5391  -52.1487 H         1 UNK         0.3000 
    221 H221       -8.8478  -19.7788  -53.9888 H         1 UNK         0.0600 
    222 H222       -8.7228  -22.0178  -51.9013 H         1 UNK         0.0600 
    223 H223       -9.3050  -20.3785  -51.6068 H         1 UNK         0.0600 
    224 H224      -10.1717  -21.4375  -52.7093 H         1 UNK         0.0600 
    225 H225       -6.6762  -22.5798  -53.5643 H         1 UNK         0.3000 
    226 H226       -7.7139  -24.1488  -55.7439 H         1 UNK         0.0600 
    227 H227       -6.4245  -25.1110  -53.8375 H         1 UNK         0.0600 
    228 H228       -5.6212  -25.4648  -55.3603 H         1 UNK         0.0600 
    229 H229       -4.9975  -24.1945  -54.3139 H         1 UNK         0.0600 
    230 H230       -5.6359  -21.3995  -55.6057 H         1 UNK         0.3000 
    231 H231       -4.3963  -20.2082  -56.9694 H         1 UNK         0.0600 
    232 H232       -5.6421  -21.7013  -59.3385 H         1 UNK         0.0600 
    233 H233       -4.8132  -20.1529  -59.3891 H         1 UNK         0.0600 
    234 H234       -6.3486  -20.2916  -58.5484 H         1 UNK         0.0600 
    235 H235       -3.4147  -22.6270  -55.8175 H         1 UNK         0.3000 
    236 H236       -1.7327  -24.1318  -57.5928 H         1 UNK         0.0600 
    237 H237       -1.6605  -23.8220  -54.5399 H         1 UNK         0.0600 
    238 H238       -2.6004  -25.0234  -55.4265 H         1 UNK         0.0600 
    239 H239       -0.8446  -25.0775  -55.4627 H         1 UNK         0.0600 
    240 H240       -1.3264  -21.1419  -55.8190 H         1 UNK         0.3000 
    241 H241        1.5596  -20.9800  -56.2828 H         1 UNK         0.0600 
    242 H242       -0.9692  -20.5613  -58.4841 H         1 UNK         0.3800 
    243 H243       -0.1952  -19.3306  -59.4465 H         1 UNK         0.3800 
    244 H244        0.7278  -20.1779  -54.1667 H         1 UNK         0.0800 
    245 H245        1.4646  -18.8762  -55.0594 H         1 UNK         0.0800 
    246 H246        0.6484  -16.9486  -53.9116 H         1 UNK         0.0800 
    247 H247       -1.0027  -16.4346  -53.7055 H         1 UNK         0.0800 
@<TRIPOS>BOND
     1    1    2 1    
     2    1  127 1    
     3    1  128 1    
     4    1  129 1    
     5    2    3 2    
     6    2    4 am   BACKBONE|DICT|INTERRES
     7    4    5 1    
     8    4  130 1    
     9    5    6 1    
    10    5   65 1    
    11    5  131 1    
    12    6    7 1    
    13    6  132 1    
    14    6  133 1    
    15    7    8 1    
    16    8    9 1    
    17    8  134 1    
    18    8  135 1    
    19    9   10 ar   
    20    9   14 ar   
    21   10   11 ar   
    22   10  136 1    
    23   11   12 ar   
    24   11  126 1    
    25   12   13 ar   
    26   12  137 1    
    27   13   14 ar   
    28   13   15 1    
    29   14  138 1    
    30   15   16 1    
    31   15  139 1    
    32   15  140 1    
    33   16   17 1    
    34   17   18 1    
    35   17  141 1    
    36   17  142 1    
    37   18   19 1    
    38   18   67 1    
    39   18  143 1    
    40   19   20 am   BACKBONE|DICT|INTERRES
    41   19  144 1    
    42   20   21 2    
    43   20   22 1    
    44   22   23 1    
    45   22   24 1    
    46   22  145 1    
    47   23  146 1    
    48   23  147 1    
    49   23  148 1    
    50   24   25 am   BACKBONE|DICT|INTERRES
    51   24  149 1    
    52   25   26 2    
    53   25   27 1    
    54   27   28 1    
    55   27   29 1    
    56   27  150 1    
    57   28  151 1    
    58   28  152 1    
    59   28  153 1    
    60   29   30 am   BACKBONE|DICT|INTERRES
    61   29  154 1    
    62   30   31 2    
    63   30   32 1    
    64   32   33 1    
    65   32   34 1    
    66   32  155 1    
    67   33  156 1    
    68   33  157 1    
    69   33  158 1    
    70   34   35 am   BACKBONE|DICT|INTERRES
    71   34  159 1    
    72   35   36 2    
    73   35   37 1    
    74   37   38 1    
    75   37   39 1    
    76   37  160 1    
    77   38  161 1    
    78   38  162 1    
    79   38  163 1    
    80   39   40 am   BACKBONE|DICT|INTERRES
    81   39  164 1    
    82   40   41 2    
    83   40   42 1    
    84   42   43 1    
    85   42   44 1    
    86   42  165 1    
    87   43  166 1    
    88   43  167 1    
    89   43  168 1    
    90   44   45 am   BACKBONE|DICT|INTERRES
    91   44  169 1    
    92   45   46 2    
    93   45   47 1    
    94   47   48 1    
    95   47   49 1    
    96   47  170 1    
    97   48  171 1    
    98   48  172 1    
    99   48  173 1    
   100   49   50 am   BACKBONE|DICT|INTERRES
   101   49  174 1    
   102   50   51 2    
   103   50   52 1    
   104   52   53 1    
   105   52   54 1    
   106   52  175 1    
   107   53  176 1    
   108   53  177 1    
   109   53  178 1    
   110   54   55 am   BACKBONE|DICT|INTERRES
   111   54  179 1    
   112   55   56 2    
   113   55   57 1    
   114   57   58 1    
   115   57   59 1    
   116   57  180 1    
   117   58  181 1    
   118   58  182 1    
   119   58  183 1    
   120   59   60 am   BACKBONE|DICT|INTERRES
   121   59  184 1    
   122   60   61 2    
   123   60   62 1    
   124   62   63 1    
   125   62   64 1    
   126   62  185 1    
   127   63  186 1    
   128   63  187 1    
   129   63  188 1    
   130   64   65 am   BACKBONE|DICT|INTERRES
   131   64  189 1    
   132   65   66 2    
   133   67   68 2    
   134   67   69 am   BACKBONE|DICT|INTERRES
   135   69   70 1    
   136   69  190 1    
   137   70   71 1    
   138   70   72 1    
   139   70  191 1    
   140   71  192 1    
   141   71  193 1    
   142   71  194 1    
   143   72   73 2    
   144   72   74 am   BACKBONE|DICT|INTERRES
   145   74   75 1    
   146   74  195 1    
   147   75   76 1    
   148   75   77 1    
   149   75  196 1    
   150   76  197 1    
   151   76  198 1    
   152   76  199 1    
   153   77   78 2    
   154   77   79 am   BACKBONE|DICT|INTERRES
   155   79   80 1    
   156   79  200 1    
   157   80   81 1    
   158   80   82 1    
   159   80  201 1    
   160   81  202 1    
   161   81  203 1    
   162   81  204 1    
   163   82   83 2    
   164   82   84 am   BACKBONE|DICT|INTERRES
   165   84   85 1    
   166   84  205 1    
   167   85   86 1    
   168   85   87 1    
   169   85  206 1    
   170   86  207 1    
   171   86  208 1    
   172   86  209 1    
   173   87   88 2    
   174   87   89 am   BACKBONE|DICT|INTERRES
   175   89   90 1    
   176   89  210 1    
   177   90   91 1    
   178   90   92 1    
   179   90  211 1    
   180   91  212 1    
   181   91  213 1    
   182   91  214 1    
   183   92   93 2    
   184   92   94 am   BACKBONE|DICT|INTERRES
   185   94   95 1    
   186   94  215 1    
   187   95   96 1    
   188   95   97 1    
   189   95  216 1    
   190   96  217 1    
   191   96  218 1    
   192   96  219 1    
   193   97   98 2    
   194   97   99 am   BACKBONE|DICT|INTERRES
   195   99  100 1    
   196   99  220 1    
   197  100  101 1    
   198  100  102 1    
   199  100  221 1    
   200  101  222 1    
   201  101  223 1    
   202  101  224 1    
   203  102  103 2    
   204  102  104 am   BACKBONE|DICT|INTERRES
   205  104  105 1    
   206  104  225 1    
   207  105  106 1    
   208  105  107 1    
   209  105  226 1    
   210  106  227 1    
   211  106  228 1    
   212  106  229 1    
   213  107  108 2    
   214  107  109 am   BACKBONE|DICT|INTERRES
   215  109  110 1    
   216  109  230 1    
   217  110  111 1    
   218  110  112 1    
   219  110  231 1    
   220  111  232 1    
   221  111  233 1    
   222  111  234 1    
   223  112  113 2    
   224  112  114 am   BACKBONE|DICT|INTERRES
   225  114  115 1    
   226  114  235 1    
   227  115  116 1    
   228  115  117 1    
   229  115  236 1    
   230  116  237 1    
   231  116  238 1    
   232  116  239 1    
   233  117  118 2    
   234  117  119 am   BACKBONE|DICT|INTERRES
   235  119  120 1    
   236  119  240 1    
   237  120  121 1    
   238  120  124 1    
   239  120  241 1    
   240  121  122 am   BACKBONE|DICT|INTERRES
   241  121  123 2    
   242  122  242 1    
   243  122  243 1    
   244  124  125 1    
   245  124  244 1    
   246  124  245 1    
   247  125  126 1    
   248  126  246 1    
   249  126  247 1    
@<TRIPOS>SUBSTRUCTURE
     1 UNK         1 GROUP             0       ****    0 ROOT    
