@<TRIPOS>MOLECULE
3R540
247   249    1
SMALL
USER_CHARGES


@<TRIPOS>ATOM
      1 CA          3.8608  -12.4353  -46.7400 C.3       0 UNK        -0.1800 
      2 C           2.5274  -13.1378  -46.9451 C.2       0 UNK         0.5000 
      3 O           1.5748  -12.8722  -46.2144 O.2       0 UNK        -0.5000 
      4 N           2.4409  -14.0164  -47.9520 N.am      1 UNK        -0.5000 
      5 CA          1.2519  -14.8172  -48.2774 C.3       1 UNK         0.1400 
      6 C6          1.5784  -15.9264  -49.3042 C.3       23 UNK        -0.0398 
      7 S7          2.0694  -15.3100  -50.9561 S.3       23 UNK        -0.2404 
      8 C8          3.3902  -16.4779  -51.4272 C.3       23 UNK        -0.0205 
      9 C9          3.0216  -17.9465  -51.2334 C.ar      23 UNK        -0.0193 
     10 C10         1.7669  -18.4396  -51.6091 C.ar      23 UNK        -0.1150 
     11 C11         1.4369  -19.7815  -51.4029 C.ar      23 UNK        -0.0193 
     12 C12         2.3775  -20.6396  -50.8255 C.ar      23 UNK        -0.1150 
     13 C13         3.6403  -20.1648  -50.4582 C.ar      23 UNK        -0.0193 
     14 C14         3.9556  -18.8200  -50.6703 C.ar      23 UNK        -0.1150 
     15 C15         4.6672  -21.1073  -49.8432 C.3       23 UNK        -0.0205 
     16 S16         5.2372  -20.5642  -48.1970 S.3       23 UNK        -0.2404 
     17 C17         3.6931  -20.6024  -47.2258 C.3       23 UNK        -0.0398 
     18 CA          3.5661  -21.8533  -46.3232 C.3       11 UNK         0.1400 
     19 N           2.5686  -21.6478  -45.2746 N.am      11 UNK        -0.5000 
     20 C           2.4424  -22.4057  -44.1778 C.2       10 UNK         0.5000 
     21 O           3.2013  -23.3320  -43.8914 O.2       10 UNK        -0.5000 
     22 CA          1.2568  -22.0823  -43.2496 C.3       10 UNK         0.1400 
     23 CB          1.6481  -20.9969  -42.2357 C.3       10 UNK        -0.1800 
     24 N           0.0585  -21.6644  -43.9815 N.am      10 UNK        -0.5000 
     25 C          -0.6283  -22.4603  -44.8136 C.2       9 UNK         0.5000 
     26 O          -0.3533  -23.6419  -45.0083 O.2       9 UNK        -0.5000 
     27 CA         -1.7925  -21.8342  -45.5945 C.3       9 UNK         0.1400 
     28 CB         -3.0577  -21.7816  -44.7278 C.3       9 UNK        -0.1800 
     29 N          -1.4858  -20.5031  -46.1091 N.am      9 UNK        -0.5000 
     30 C          -0.5252  -20.2225  -46.9995 C.2       8 UNK         0.5000 
     31 O           0.2148  -21.0690  -47.4991 O.2       8 UNK        -0.5000 
     32 CA         -0.3248  -18.7387  -47.3505 C.3       8 UNK         0.1400 
     33 CB         -1.4211  -18.2565  -48.3066 C.3       8 UNK        -0.1800 
     34 N          -0.3028  -17.8896  -46.1596 N.am      8 UNK        -0.5000 
     35 C           0.6394  -17.9521  -45.2079 C.2       7 UNK         0.5000 
     36 O           1.6215  -18.6922  -45.2636 O.2       7 UNK        -0.5000 
     37 CA          0.4182  -17.0756  -43.9638 C.3       7 UNK         0.1400 
     38 CB          0.8691  -15.6292  -44.2191 C.3       7 UNK        -0.1800 
     39 N          -0.9788  -17.0892  -43.5279 N.am      7 UNK        -0.5000 
     40 C          -1.5799  -18.1517  -42.9710 C.2       6 UNK         0.5000 
     41 O          -1.0097  -19.2183  -42.7476 O.2       6 UNK        -0.5000 
     42 CA         -3.0803  -18.0186  -42.6476 C.3       6 UNK         0.1400 
     43 CB         -3.2797  -17.3585  -41.2752 C.3       6 UNK        -0.1800 
     44 N          -3.8199  -17.2625  -43.6582 N.am      6 UNK        -0.5000 
     45 C          -3.9250  -17.6094  -44.9493 C.2       5 UNK         0.5000 
     46 O          -3.4485  -18.6392  -45.4157 O.2       5 UNK        -0.5000 
     47 CA         -4.6230  -16.6112  -45.8887 C.3       5 UNK         0.1400 
     48 CB         -6.1034  -16.9783  -46.0668 C.3       5 UNK        -0.1800 
     49 N          -4.5083  -15.2243  -45.4275 N.am      5 UNK        -0.5000 
     50 C          -3.3510  -14.5551  -45.3468 C.2       4 UNK         0.5000 
     51 O          -2.2599  -15.0271  -45.6760 O.2       4 UNK        -0.5000 
     52 CA         -3.4167  -13.1605  -44.7194 C.3       4 UNK         0.1400 
     53 CB         -3.2536  -13.2604  -43.1902 C.3       4 UNK        -0.1800 
     54 N          -2.3569  -12.3403  -45.2903 N.am      4 UNK        -0.5000 
     55 C          -2.2893  -11.0059  -45.2250 C.2       3 UNK         0.5000 
     56 O          -3.1219  -10.3045  -44.6485 O.2       3 UNK        -0.5000 
     57 CA         -1.0992  -10.3354  -45.9326 C.3       3 UNK         0.1400 
     58 CB          0.0932  -10.2032  -44.9728 C.3       3 UNK        -0.1800 
     59 N          -0.6844  -11.0507  -47.1420 N.am      3 UNK        -0.5000 
     60 C          -1.3666  -11.0170  -48.2982 C.2       2 UNK         0.5000 
     61 O          -2.4206  -10.3969  -48.4428 O.2       2 UNK        -0.5000 
     62 CA         -0.7842  -11.7752  -49.5063 C.3       2 UNK         0.1400 
     63 CB         -0.1988  -10.7930  -50.5325 C.3       2 UNK        -0.1800 
     64 N           0.2546  -12.7317  -49.1336 N.am      2 UNK        -0.5000 
     65 C           0.0263  -13.9826  -48.7159 C.2       1 UNK         0.5000 
     66 O          -1.0944  -14.4883  -48.6844 O.2       1 UNK        -0.5000 
     67 C           3.2656  -23.1274  -47.1414 C.2       11 UNK         0.5000 
     68 O           4.1511  -23.9668  -47.3118 O.2       11 UNK        -0.5000 
     69 N           2.0279  -23.2400  -47.6415 N.am      12 UNK        -0.5000 
     70 CA          1.5879  -24.3206  -48.5225 C.3       12 UNK         0.1400 
     71 CB          0.2699  -23.9094  -49.1941 C.3       12 UNK        -0.1800 
     72 C           1.4070  -25.6711  -47.8100 C.2       12 UNK         0.5000 
     73 O           1.7154  -26.7068  -48.4019 O.2       12 UNK        -0.5000 
     74 N           0.8779  -25.6330  -46.5779 N.am      13 UNK        -0.5000 
     75 CA          0.3623  -26.7661  -45.8046 C.3       13 UNK         0.1400 
     76 CB          1.5080  -27.7153  -45.3868 C.3       13 UNK        -0.1800 
     77 C          -0.8056  -27.4619  -46.5427 C.2       13 UNK         0.5000 
     78 O          -1.5457  -26.7922  -47.2709 O.2       13 UNK        -0.5000 
     79 N          -0.9487  -28.7807  -46.3430 N.am      14 UNK        -0.5000 
     80 CA         -1.8588  -29.6988  -47.0358 C.3       14 UNK         0.1400 
     81 CB         -1.3068  -30.0037  -48.4466 C.3       14 UNK        -0.1800 
     82 C          -3.3278  -29.2223  -47.0376 C.2       14 UNK         0.5000 
     83 O          -4.0025  -29.3334  -46.0131 O.2       14 UNK        -0.5000 
     84 N          -3.7886  -28.7034  -48.1830 N.am      15 UNK        -0.5000 
     85 CA         -5.1453  -28.2109  -48.4174 C.3       15 UNK         0.1400 
     86 CB         -5.3690  -28.1155  -49.9356 C.3       15 UNK        -0.1800 
     87 C          -5.4645  -26.8609  -47.7416 C.2       15 UNK         0.5000 
     88 O          -6.6409  -26.5003  -47.6973 O.2       15 UNK        -0.5000 
     89 N          -4.4388  -26.1488  -47.2441 N.am      16 UNK        -0.5000 
     90 CA         -4.4897  -24.8173  -46.6285 C.3       16 UNK         0.1400 
     91 CB         -5.3690  -24.8084  -45.3595 C.3       16 UNK        -0.1800 
     92 C          -4.8996  -23.7423  -47.6553 C.2       16 UNK         0.5000 
     93 O          -6.0739  -23.3812  -47.7524 O.2       16 UNK        -0.5000 
     94 N          -3.9058  -23.2980  -48.4350 N.am      17 UNK        -0.5000 
     95 CA         -4.0111  -22.3241  -49.5243 C.3       17 UNK         0.1400 
     96 CB         -2.5999  -22.0770  -50.0739 C.3       17 UNK        -0.1800 
     97 C          -4.6607  -20.9748  -49.1515 C.2       17 UNK         0.5000 
     98 O          -4.5655  -20.5276  -48.0074 O.2       17 UNK        -0.5000 
     99 N          -5.2708  -20.3375  -50.1577 N.am      18 UNK        -0.5000 
    100 CA        -5.8284  -18.9873  -50.0862 C.3       18 UNK         0.1400 
    101 CB        -6.8255  -18.8113  -51.2422 C.3       18 UNK        -0.1800 
    102 C         -4.7289  -17.9078  -50.1435 C.2       18 UNK         0.5000 
    103 O         -3.6088  -18.1890  -50.5748 O.2       18 UNK        -0.5000 
    104 N         -5.0777  -16.6882  -49.7085 N.am      19 UNK        -0.5000 
    105 CA        -4.1895  -15.5235  -49.6833 C.3       19 UNK         0.1400 
    106 CB        -4.9001  -14.3555  -48.9807 C.3       19 UNK        -0.1800 
    107 C         -3.7412  -15.0883  -51.0908 C.2       19 UNK         0.5000 
    108 O         -4.5646  -15.0537  -52.0076 O.2       19 UNK        -0.5000 
    109 N         -2.4604  -14.7142  -51.2051 N.am      20 UNK        -0.5000 
    110 CA        -1.7402  -14.3288  -52.4219 C.3       20 UNK         0.1400 
    111 CB        -2.3006  -13.0205  -53.0236 C.3       20 UNK        -0.1800 
    112 C         -1.6751  -15.4930  -53.4298 C.2       20 UNK         0.5000 
    113 O         -0.7555  -16.3068  -53.3477 O.2       20 UNK        -0.5000 
    114 N         -2.6450  -15.5627  -54.3510 N.am      21 UNK        -0.5000 
    115 CA        -2.8424  -16.6914  -55.2575 C.3       21 UNK         0.1400 
    116 CB        -3.7897  -16.2726  -56.3929 C.3       21 UNK        -0.1800 
    117 C         -3.4052  -17.8879  -54.4711 C.2       21 UNK         0.5000 
    118 O         -4.4550  -17.7539  -53.8414 O.2       21 UNK        -0.5000 
    119 N         -2.6846  -19.0143  -54.5040 N.am      22 UNK        -0.5000 
    120 CA        -2.9001  -20.1754  -53.6240 C.3       22 UNK         0.1400 
    121 C         -4.2812  -20.8826  -53.7443 C.2       22 UNK         0.5000 
    122 N         -4.9766  -20.7880  -54.8702 N.am      22 UNK        -0.7600 
    123 O         -4.7304  -21.5158  -52.7928 O.2       22 UNK        -0.5000 
    124 C124       -1.7551  -21.2161  -53.7452 C.3       23 UNK        -0.0398 
    125 S125       -0.0790  -20.5048  -53.5966 S.3       23 UNK        -0.2404 
    126 C126        0.0612  -20.2953  -51.7963 C.3       23 UNK        -0.0205 
    127 H127        3.7326  -11.3563  -46.8262 H         1 UNK         0.0600 
    128 H128        4.6027  -12.7508  -47.4739 H         1 UNK         0.0600 
    129 H129        4.2495  -12.6551  -45.7458 H         1 UNK         0.0600 
    130 H130        3.2454  -14.1752  -48.5421 H         1 UNK         0.3000 
    131 H131        0.9520  -15.3182  -47.3550 H         1 UNK         0.0600 
    132 H132        0.7212  -16.5855  -49.4402 H         1 UNK         0.0800 
    133 H133        2.3708  -16.5591  -48.9018 H         1 UNK         0.0800 
    134 H134        3.6444  -16.3162  -52.4753 H         1 UNK         0.0800 
    135 H135        4.2830  -16.2303  -50.8509 H         1 UNK         0.0800 
    136 H136        1.0396  -17.7773  -52.0575 H         1 UNK         0.1150 
    137 H137        2.1289  -21.6787  -50.6659 H         1 UNK         0.1150 
    138 H138        4.9319  -18.4535  -50.3848 H         1 UNK         0.1150 
    139 H139        4.2709  -22.1209  -49.7691 H         1 UNK         0.0800 
    140 H140        5.5290  -21.1663  -50.5091 H         1 UNK         0.0800 
    141 H141        2.8232  -20.4855  -47.8728 H         1 UNK         0.0800 
    142 H142        3.7103  -19.7077  -46.6025 H         1 UNK         0.0800 
    143 H143        4.5261  -22.0025  -45.8239 H         1 UNK         0.0600 
    144 H144        1.9213  -20.8805  -45.4101 H         1 UNK         0.3000 
    145 H145        1.0125  -22.9917  -42.6968 H         1 UNK         0.0600 
    146 H146        0.8547  -20.8362  -41.5058 H         1 UNK         0.0600 
    147 H147        2.5442  -21.2813  -41.6828 H         1 UNK         0.0600 
    148 H148        1.8513  -20.0438  -42.7255 H         1 UNK         0.0600 
    149 H149       -0.2653  -20.7155  -43.8206 H         1 UNK         0.3000 
    150 H150       -1.9932  -22.4765  -46.4530 H         1 UNK         0.0600 
    151 H151       -3.2820  -22.7598  -44.3020 H         1 UNK         0.0600 
    152 H152       -3.9226  -21.4708  -45.3147 H         1 UNK         0.0600 
    153 H153       -2.9465  -21.0825  -43.8990 H         1 UNK         0.0600 
    154 H154       -2.0992  -19.7514  -45.7970 H         1 UNK         0.3000 
    155 H155        0.6388  -18.6387  -47.8548 H         1 UNK         0.0600 
    156 H156       -1.3248  -17.1959  -48.5316 H         1 UNK         0.0600 
    157 H157       -1.3676  -18.7982  -49.2508 H         1 UNK         0.0600 
    158 H158       -2.4193  -18.4163  -47.8982 H         1 UNK         0.0600 
    159 H159       -1.0865  -17.2650  -46.0249 H         1 UNK         0.3000 
    160 H160        1.0323  -17.4826  -43.1575 H         1 UNK         0.0600 
    161 H161        0.2788  -15.1492  -44.9992 H         1 UNK         0.0600 
    162 H162        1.9129  -15.5945  -44.5337 H         1 UNK         0.0600 
    163 H163        0.7817  -15.0236  -43.3171 H         1 UNK         0.0600 
    164 H164       -1.5281  -16.2680  -43.7381 H         1 UNK         0.3000 
    165 H165       -3.5023  -19.0247  -42.6085 H         1 UNK         0.0600 
    166 H166       -4.3336  -17.3360  -40.9976 H         1 UNK         0.0600 
    167 H167       -2.7517  -17.9107  -40.4966 H         1 UNK         0.0600 
    168 H168       -2.9063  -16.3337  -41.2620 H         1 UNK         0.0600 
    169 H169       -4.2481  -16.4002  -43.3580 H         1 UNK         0.3000 
    170 H170       -4.1323  -16.6868  -46.8610 H         1 UNK         0.0600 
    171 H171       -6.2065  -17.9972  -46.4437 H         1 UNK         0.0600 
    172 H172       -6.6493  -16.9195  -45.1245 H         1 UNK         0.0600 
    173 H173       -6.5944  -16.3183  -46.7815 H         1 UNK         0.0600 
    174 H174       -5.3614  -14.7775  -45.1226 H         1 UNK         0.3000 
    175 H175       -4.3827  -12.7117  -44.9606 H         1 UNK         0.0600 
    176 H176       -4.0243  -13.8957  -42.7521 H         1 UNK         0.0600 
    177 H177       -2.2850  -13.6818  -42.9176 H         1 UNK         0.0600 
    178 H178       -3.3371  -12.2835  -42.7142 H         1 UNK         0.0600 
    179 H179       -1.6501  -12.8578  -45.7986 H         1 UNK         0.3000 
    180 H180       -1.4075   -9.3278  -46.2203 H         1 UNK         0.0600 
    181 H181        0.4058  -11.1713  -44.5803 H         1 UNK         0.0600 
    182 H182       -0.1650   -9.5758  -44.1189 H         1 UNK         0.0600 
    183 H183        0.9515   -9.7461  -45.4654 H         1 UNK         0.0600 
    184 H184        0.1513  -11.6199  -47.0662 H         1 UNK         0.3000 
    185 H185       -1.6119  -12.3058  -49.9791 H         1 UNK         0.0600 
    186 H186       -0.9542  -10.0818  -50.8692 H         1 UNK         0.0600 
    187 H187        0.6296  -10.2198  -50.1144 H         1 UNK         0.0600 
    188 H188        0.1671  -11.3179  -51.4153 H         1 UNK         0.0600 
    189 H189        1.2083  -12.4012  -49.1520 H         1 UNK         0.3000 
    190 H190        1.3578  -22.4910  -47.4755 H         1 UNK         0.3000 
    191 H191        2.3404  -24.4510  -49.3032 H         1 UNK         0.0600 
    192 H192       -0.5211  -23.7583  -48.4585 H         1 UNK         0.0600 
    193 H193       -0.0716  -24.6750  -49.8920 H         1 UNK         0.0600 
    194 H194        0.3844  -22.9835  -49.7548 H         1 UNK         0.0600 
    195 H195        0.6236  -24.7275  -46.1923 H         1 UNK         0.3000 
    196 H196       -0.0642  -26.3427  -44.8946 H         1 UNK         0.0600 
    197 H197        1.1752  -28.4343  -44.6378 H         1 UNK         0.0600 
    198 H198        2.3334  -27.1571  -44.9443 H         1 UNK         0.0600 
    199 H199        1.9046  -28.2763  -46.2337 H         1 UNK         0.0600 
    200 H200       -0.3161  -29.2211  -45.6904 H         1 UNK         0.3000 
    201 H201       -1.8459  -30.6330  -46.4722 H         1 UNK         0.0600 
    202 H202       -0.3266  -30.4764  -48.3839 H         1 UNK         0.0600 
    203 H203       -1.1944  -29.1023  -49.0504 H         1 UNK         0.0600 
    204 H204       -1.9585  -30.6918  -48.9870 H         1 UNK         0.0600 
    205 H205       -3.1439  -28.6207  -48.9555 H         1 UNK         0.3000 
    206 H206       -5.8465  -28.9455  -48.0159 H         1 UNK         0.0600 
    207 H207       -5.2198  -29.0814  -50.4187 H         1 UNK         0.0600 
    208 H208       -6.3865  -27.7951  -50.1636 H         1 UNK         0.0600 
    209 H209       -4.6885  -27.3989  -50.3974 H         1 UNK         0.0600 
    210 H210       -3.5041  -26.5348  -47.3502 H         1 UNK         0.3000 
    211 H211       -3.4708  -24.5930  -46.3082 H         1 UNK         0.0600 
    212 H212       -6.4127  -25.0370  -45.5738 H         1 UNK         0.0600 
    213 H213       -5.3521  -23.8284  -44.8828 H         1 UNK         0.0600 
    214 H214       -5.0107  -25.5337  -44.6290 H         1 UNK         0.0600 
    215 H215       -2.9863  -23.6860  -48.2922 H         1 UNK         0.3000 
    216 H216       -4.6164  -22.7842  -50.3078 H         1 UNK         0.0600 
    217 H217       -1.9185  -21.7421  -49.2914 H         1 UNK         0.0600 
    218 H218       -2.6114  -21.3024  -50.8385 H         1 UNK         0.0600 
    219 H219       -2.1872  -22.9777  -50.5277 H         1 UNK         0.0600 
    220 H220       -5.2264  -20.7513  -51.0848 H         1 UNK         0.3000 
    221 H221       -6.3652  -18.8818  -49.1409 H         1 UNK         0.0600 
    222 H222       -7.6291  -19.5457  -51.1856 H         1 UNK         0.0600 
    223 H223       -6.3379  -18.9232  -52.2114 H         1 UNK         0.0600 
    224 H224       -7.2863  -17.8231  -51.2209 H         1 UNK         0.0600 
    225 H225       -6.0323  -16.5251  -49.4264 H         1 UNK         0.3000 
    226 H226       -3.3127  -15.8002  -49.0961 H         1 UNK         0.0600 
    227 H227       -5.7582  -14.0035  -49.5548 H         1 UNK         0.0600 
    228 H228       -5.2570  -14.6355  -47.9923 H         1 UNK         0.0600 
    229 H229       -4.2210  -13.5111  -48.8525 H         1 UNK         0.0600 
    230 H230       -1.8918  -14.7580  -50.3628 H         1 UNK         0.3000 
    231 H231       -0.7127  -14.1278  -52.1142 H         1 UNK         0.0600 
    232 H232       -3.3477  -13.1035  -53.3139 H         1 UNK         0.0600 
    233 H233       -1.7373  -12.7313  -53.9116 H         1 UNK         0.0600 
    234 H234       -2.2248  -12.1976  -52.3143 H         1 UNK         0.0600 
    235 H235       -3.4159  -14.9150  -54.2697 H         1 UNK         0.3000 
    236 H236       -1.8800  -16.9627  -55.6970 H         1 UNK         0.0600 
    237 H237       -3.3789  -15.4381  -56.9614 H         1 UNK         0.0600 
    238 H238       -3.9481  -17.0958  -57.0905 H         1 UNK         0.0600 
    239 H239       -4.7668  -15.9711  -56.0129 H         1 UNK         0.0600 
    240 H240       -1.8282  -19.0316  -55.0385 H         1 UNK         0.3000 
    241 H241       -2.8677  -19.7771  -52.6093 H         1 UNK         0.0600 
    242 H242       -5.8737  -21.2416  -54.9381 H         1 UNK         0.3800 
    243 H243       -4.6268  -20.2487  -55.6458 H         1 UNK         0.3800 
    244 H244       -1.8098  -21.7130  -54.7155 H         1 UNK         0.0800 
    245 H245       -1.8655  -22.0074  -53.0024 H         1 UNK         0.0800 
    246 H246       -0.7004  -19.5940  -51.4523 H         1 UNK         0.0800 
    247 H247       -0.1404  -21.2468  -51.3051 H         1 UNK         0.0800 
@<TRIPOS>BOND
     1    1    2 1    
     2    1  127 1    
     3    1  128 1    
     4    1  129 1    
     5    2    3 2    
     6    2    4 am   BACKBONE|DICT|INTERRES
     7    4    5 1    
     8    4  130 1    
     9    5    6 1    
    10    5   65 1    
    11    5  131 1    
    12    6    7 1    
    13    6  132 1    
    14    6  133 1    
    15    7    8 1    
    16    8    9 1    
    17    8  134 1    
    18    8  135 1    
    19    9   10 ar   
    20    9   14 ar   
    21   10   11 ar   
    22   10  136 1    
    23   11   12 ar   
    24   11  126 1    
    25   12   13 ar   
    26   12  137 1    
    27   13   14 ar   
    28   13   15 1    
    29   14  138 1    
    30   15   16 1    
    31   15  139 1    
    32   15  140 1    
    33   16   17 1    
    34   17   18 1    
    35   17  141 1    
    36   17  142 1    
    37   18   19 1    
    38   18   67 1    
    39   18  143 1    
    40   19   20 am   BACKBONE|DICT|INTERRES
    41   19  144 1    
    42   20   21 2    
    43   20   22 1    
    44   22   23 1    
    45   22   24 1    
    46   22  145 1    
    47   23  146 1    
    48   23  147 1    
    49   23  148 1    
    50   24   25 am   BACKBONE|DICT|INTERRES
    51   24  149 1    
    52   25   26 2    
    53   25   27 1    
    54   27   28 1    
    55   27   29 1    
    56   27  150 1    
    57   28  151 1    
    58   28  152 1    
    59   28  153 1    
    60   29   30 am   BACKBONE|DICT|INTERRES
    61   29  154 1    
    62   30   31 2    
    63   30   32 1    
    64   32   33 1    
    65   32   34 1    
    66   32  155 1    
    67   33  156 1    
    68   33  157 1    
    69   33  158 1    
    70   34   35 am   BACKBONE|DICT|INTERRES
    71   34  159 1    
    72   35   36 2    
    73   35   37 1    
    74   37   38 1    
    75   37   39 1    
    76   37  160 1    
    77   38  161 1    
    78   38  162 1    
    79   38  163 1    
    80   39   40 am   BACKBONE|DICT|INTERRES
    81   39  164 1    
    82   40   41 2    
    83   40   42 1    
    84   42   43 1    
    85   42   44 1    
    86   42  165 1    
    87   43  166 1    
    88   43  167 1    
    89   43  168 1    
    90   44   45 am   BACKBONE|DICT|INTERRES
    91   44  169 1    
    92   45   46 2    
    93   45   47 1    
    94   47   48 1    
    95   47   49 1    
    96   47  170 1    
    97   48  171 1    
    98   48  172 1    
    99   48  173 1    
   100   49   50 am   BACKBONE|DICT|INTERRES
   101   49  174 1    
   102   50   51 2    
   103   50   52 1    
   104   52   53 1    
   105   52   54 1    
   106   52  175 1    
   107   53  176 1    
   108   53  177 1    
   109   53  178 1    
   110   54   55 am   BACKBONE|DICT|INTERRES
   111   54  179 1    
   112   55   56 2    
   113   55   57 1    
   114   57   58 1    
   115   57   59 1    
   116   57  180 1    
   117   58  181 1    
   118   58  182 1    
   119   58  183 1    
   120   59   60 am   BACKBONE|DICT|INTERRES
   121   59  184 1    
   122   60   61 2    
   123   60   62 1    
   124   62   63 1    
   125   62   64 1    
   126   62  185 1    
   127   63  186 1    
   128   63  187 1    
   129   63  188 1    
   130   64   65 am   BACKBONE|DICT|INTERRES
   131   64  189 1    
   132   65   66 2    
   133   67   68 2    
   134   67   69 am   BACKBONE|DICT|INTERRES
   135   69   70 1    
   136   69  190 1    
   137   70   71 1    
   138   70   72 1    
   139   70  191 1    
   140   71  192 1    
   141   71  193 1    
   142   71  194 1    
   143   72   73 2    
   144   72   74 am   BACKBONE|DICT|INTERRES
   145   74   75 1    
   146   74  195 1    
   147   75   76 1    
   148   75   77 1    
   149   75  196 1    
   150   76  197 1    
   151   76  198 1    
   152   76  199 1    
   153   77   78 2    
   154   77   79 am   BACKBONE|DICT|INTERRES
   155   79   80 1    
   156   79  200 1    
   157   80   81 1    
   158   80   82 1    
   159   80  201 1    
   160   81  202 1    
   161   81  203 1    
   162   81  204 1    
   163   82   83 2    
   164   82   84 am   BACKBONE|DICT|INTERRES
   165   84   85 1    
   166   84  205 1    
   167   85   86 1    
   168   85   87 1    
   169   85  206 1    
   170   86  207 1    
   171   86  208 1    
   172   86  209 1    
   173   87   88 2    
   174   87   89 am   BACKBONE|DICT|INTERRES
   175   89   90 1    
   176   89  210 1    
   177   90   91 1    
   178   90   92 1    
   179   90  211 1    
   180   91  212 1    
   181   91  213 1    
   182   91  214 1    
   183   92   93 2    
   184   92   94 am   BACKBONE|DICT|INTERRES
   185   94   95 1    
   186   94  215 1    
   187   95   96 1    
   188   95   97 1    
   189   95  216 1    
   190   96  217 1    
   191   96  218 1    
   192   96  219 1    
   193   97   98 2    
   194   97   99 am   BACKBONE|DICT|INTERRES
   195   99  100 1    
   196   99  220 1    
   197  100  101 1    
   198  100  102 1    
   199  100  221 1    
   200  101  222 1    
   201  101  223 1    
   202  101  224 1    
   203  102  103 2    
   204  102  104 am   BACKBONE|DICT|INTERRES
   205  104  105 1    
   206  104  225 1    
   207  105  106 1    
   208  105  107 1    
   209  105  226 1    
   210  106  227 1    
   211  106  228 1    
   212  106  229 1    
   213  107  108 2    
   214  107  109 am   BACKBONE|DICT|INTERRES
   215  109  110 1    
   216  109  230 1    
   217  110  111 1    
   218  110  112 1    
   219  110  231 1    
   220  111  232 1    
   221  111  233 1    
   222  111  234 1    
   223  112  113 2    
   224  112  114 am   BACKBONE|DICT|INTERRES
   225  114  115 1    
   226  114  235 1    
   227  115  116 1    
   228  115  117 1    
   229  115  236 1    
   230  116  237 1    
   231  116  238 1    
   232  116  239 1    
   233  117  118 2    
   234  117  119 am   BACKBONE|DICT|INTERRES
   235  119  120 1    
   236  119  240 1    
   237  120  121 1    
   238  120  124 1    
   239  120  241 1    
   240  121  122 am   BACKBONE|DICT|INTERRES
   241  121  123 2    
   242  122  242 1    
   243  122  243 1    
   244  124  125 1    
   245  124  244 1    
   246  124  245 1    
   247  125  126 1    
   248  126  246 1    
   249  126  247 1    
@<TRIPOS>SUBSTRUCTURE
     1 UNK         1 GROUP             0       ****    0 ROOT    
