@<TRIPOS>MOLECULE
3R540
247   249    1
SMALL
USER_CHARGES


@<TRIPOS>ATOM
      1 CA         -0.6838   -9.1200  -50.7685 C.3       0 UNK        -0.1800 
      2 C           0.3403  -10.2330  -50.5954 C.2       0 UNK         0.5000 
      3 O           1.4153  -10.1747  -51.1933 O.2       0 UNK        -0.5000 
      4 N           0.0090  -11.2481  -49.7878 N.am      1 UNK        -0.5000 
      5 CA          0.8896  -12.3684  -49.4463 C.3       1 UNK         0.1400 
      6 C6          0.0879  -13.5339  -48.8184 C.3       23 UNK        -0.0398 
      7 S7          0.9830  -15.1272  -48.8733 S.3       23 UNK        -0.2404 
      8 C8          0.0038  -16.0703  -50.0990 C.3       23 UNK        -0.0205 
      9 C9         -1.3413  -16.6244  -49.6163 C.ar      23 UNK        -0.0193 
     10 C10        -1.9997  -17.5628  -50.4191 C.ar      23 UNK        -0.1150 
     11 C11        -3.2270  -18.1108  -50.0305 C.ar      23 UNK        -0.0193 
     12 C12        -3.8106  -17.7012  -48.8294 C.ar      23 UNK        -0.1150 
     13 C13        -3.1710  -16.7626  -48.0169 C.ar      23 UNK        -0.0193 
     14 C14        -1.9412  -16.2331  -48.4121 C.ar      23 UNK        -0.1150 
     15 C15        -3.7939  -16.3193  -46.7034 C.3       23 UNK        -0.0205 
     16 S16        -2.9741  -17.1027  -45.2807 S.3       23 UNK        -0.2404 
     17 C17        -3.5676  -18.8212  -45.4191 C.3       23 UNK        -0.0398 
     18 CA         -2.5187  -19.7685  -46.0480 C.3       11 UNK         0.1400 
     19 N          -1.3043  -19.9233  -45.2375 N.am      11 UNK        -0.5000 
     20 C          -0.1840  -20.4983  -45.7019 C.2       10 UNK         0.5000 
     21 O          -0.0714  -20.9365  -46.8452 O.2       10 UNK        -0.5000 
     22 CA          1.0026  -20.6600  -44.7398 C.3       10 UNK         0.1400 
     23 CB          1.8957  -19.4141  -44.7669 C.3       10 UNK        -0.1800 
     24 N           0.6230  -20.9711  -43.3631 N.am      10 UNK        -0.5000 
     25 C           0.0072  -22.0993  -42.9812 C.2       9 UNK         0.5000 
     26 O          -0.4169  -22.9433  -43.7721 O.2       9 UNK        -0.5000 
     27 CA         -0.1596  -22.3257  -41.4699 C.3       9 UNK         0.1400 
     28 CB          1.1461  -22.8621  -40.8633 C.3       9 UNK        -0.1800 
     29 N          -0.5272  -21.0835  -40.7933 N.am      9 UNK        -0.5000 
     30 C          -1.7211  -20.8407  -40.2370 C.2       8 UNK         0.5000 
     31 O          -2.6108  -21.6849  -40.1236 O.2       8 UNK        -0.5000 
     32 CA         -1.9848  -19.4021  -39.7415 C.3       8 UNK         0.1400 
     33 CB         -1.6482  -19.2800  -38.2477 C.3       8 UNK        -0.1800 
     34 N          -1.2593  -18.3610  -40.4760 N.am      8 UNK        -0.5000 
     35 C          -1.3125  -18.1601  -41.8006 C.2       7 UNK         0.5000 
     36 O          -1.9870  -18.8429  -42.5699 O.2       7 UNK        -0.5000 
     37 CA         -0.4122  -17.0512  -42.3753 C.3       7 UNK         0.1400 
     38 CB         -1.1303  -15.6956  -42.2853 C.3       7 UNK        -0.1800 
     39 N           0.9112  -16.9187  -41.7550 N.am      7 UNK        -0.5000 
     40 C           1.7674  -17.8811  -41.3766 C.2       6 UNK         0.5000 
     41 O           1.5393  -19.0882  -41.4741 O.2       6 UNK        -0.5000 
     42 CA          3.1113  -17.4220  -40.7778 C.3       6 UNK         0.1400 
     43 CB          4.2350  -17.5809  -41.8129 C.3       6 UNK        -0.1800 
     44 N           3.1056  -16.0373  -40.3005 N.am      6 UNK        -0.5000 
     45 C           2.4159  -15.5612  -39.2564 C.2       5 UNK         0.5000 
     46 O           1.7096  -16.2662  -38.5350 O.2       5 UNK        -0.5000 
     47 CA          2.4875  -14.0406  -38.9909 C.3       5 UNK         0.1400 
     48 CB          3.6384  -13.6975  -38.0259 C.3       5 UNK        -0.1800 
     49 N           2.5277  -13.2057  -40.2045 N.am      5 UNK        -0.5000 
     50 C           3.4982  -13.1070  -41.1238 C.2       4 UNK         0.5000 
     51 O           4.5775  -13.7000  -41.0553 O.2       4 UNK        -0.5000 
     52 CA          3.1898  -12.2427  -42.3608 C.3       4 UNK         0.1400 
     53 CB          3.9578  -10.9139  -42.3053 C.3       4 UNK        -0.1800 
     54 N           3.5392  -12.9489  -43.5938 N.am      4 UNK        -0.5000 
     55 C           2.9900  -14.0979  -44.0057 C.2       3 UNK         0.5000 
     56 O           2.0431  -14.6336  -43.4270 O.2       3 UNK        -0.5000 
     57 CA          3.6113  -14.7586  -45.2566 C.3       3 UNK         0.1400 
     58 CB          2.8862  -16.0563  -45.6525 C.3       3 UNK        -0.1800 
     59 N           3.6575  -13.8759  -46.4245 N.am      3 UNK        -0.5000 
     60 C           4.5124  -12.8617  -46.6179 C.2       2 UNK         0.5000 
     61 O           5.3493  -12.5147  -45.7827 O.2       2 UNK        -0.5000 
     62 CA          4.4420  -12.1157  -47.9662 C.3       2 UNK         0.1400 
     63 CB          5.6760  -12.4416  -48.8226 C.3       2 UNK        -0.1800 
     64 N           3.2399  -12.4220  -48.7457 N.am      2 UNK        -0.5000 
     65 C           2.0295  -11.8990  -48.5157 C.2       1 UNK         0.5000 
     66 O           1.7903  -11.1015  -47.6053 O.2       1 UNK        -0.5000 
     67 C          -3.1597  -21.1322  -46.3616 C.2       11 UNK         0.5000 
     68 O          -3.6019  -21.3434  -47.4892 O.2       11 UNK        -0.5000 
     69 N          -3.1667  -22.0420  -45.3761 N.am      12 UNK        -0.5000 
     70 CA         -3.6689  -23.4083  -45.5229 C.3       12 UNK         0.1400 
     71 CB         -3.7922  -24.0654  -44.1398 C.3       12 UNK        -0.1800 
     72 C          -2.7860  -24.2493  -46.4606 C.2       12 UNK         0.5000 
     73 O          -3.3144  -24.9798  -47.2991 O.2       12 UNK        -0.5000 
     74 N          -1.4602  -24.0969  -46.3301 N.am      13 UNK        -0.5000 
     75 CA         -0.4668  -24.7160  -47.2062 C.3       13 UNK         0.1400 
     76 CB          0.9413  -24.4754  -46.6421 C.3       13 UNK        -0.1800 
     77 C          -0.5763  -24.2129  -48.6566 C.2       13 UNK         0.5000 
     78 O          -0.6113  -25.0259  -49.5801 O.2       13 UNK        -0.5000 
     79 N          -0.6765  -22.8884  -48.8324 N.am      14 UNK        -0.5000 
     80 CA         -0.8427  -22.2398  -50.1317 C.3       14 UNK         0.1400 
     81 CB         -0.6817  -20.7229  -49.9803 C.3       14 UNK        -0.1800 
     82 C          -2.1778  -22.5883  -50.8107 C.2       14 UNK         0.5000 
     83 O          -2.1880  -22.8161  -52.0182 O.2       14 UNK        -0.5000 
     84 N          -3.2664  -22.6746  -50.0327 N.am      15 UNK        -0.5000 
     85 CA         -4.5870  -23.0933  -50.5107 C.3       15 UNK         0.1400 
     86 CB         -5.6378  -22.8532  -49.4171 C.3       15 UNK        -0.1800 
     87 C          -4.6316  -24.5581  -50.9879 C.2       15 UNK         0.5000 
     88 O          -5.4540  -24.8894  -51.8409 O.2       15 UNK        -0.5000 
     89 N          -3.7511  -25.4099  -50.4474 N.am      16 UNK        -0.5000 
     90 CA         -3.5559  -26.7787  -50.9157 C.3       16 UNK         0.1400 
     91 CB         -2.9744  -27.6363  -49.7805 C.3       16 UNK        -0.1800 
     92 C          -2.6549  -26.8156  -52.1631 C.2       16 UNK         0.5000 
     93 O          -3.0104  -27.4593  -53.1508 O.2       16 UNK        -0.5000 
     94 N          -1.5057  -26.1297  -52.0946 N.am      17 UNK        -0.5000 
     95 CA         -0.4592  -26.1535  -53.1173 C.3       17 UNK         0.1400 
     96 CB          0.8326  -25.5674  -52.5270 C.3       17 UNK        -0.1800 
     97 C          -0.8279  -25.4234  -54.4216 C.2       17 UNK         0.5000 
     98 O          -0.5041  -25.9213  -55.5007 O.2       17 UNK        -0.5000 
     99 N          -1.4725  -24.2568  -54.3033 N.am      18 UNK        -0.5000 
    100 CA        -1.7798  -23.3442  -55.4083 C.3       18 UNK         0.1400 
    101 CB        -1.0978  -21.9941  -55.1257 C.3       18 UNK        -0.1800 
    102 C         -3.2971  -23.1834  -55.6269 C.2       18 UNK         0.5000 
    103 O         -3.7126  -22.2534  -56.3237 O.2       18 UNK        -0.5000 
    104 N         -4.0872  -24.0957  -55.0396 N.am      19 UNK        -0.5000 
    105 CA        -5.5530  -24.1680  -55.0491 C.3       19 UNK         0.1400 
    106 CB        -6.0819  -24.3233  -56.4918 C.3       19 UNK        -0.1800 
    107 C         -6.2292  -22.9910  -54.3137 C.2       19 UNK         0.5000 
    108 O         -5.5600  -22.0748  -53.8327 O.2       19 UNK        -0.5000 
    109 N         -7.5676  -23.0254  -54.2466 N.am      20 UNK        -0.5000 
    110 CA        -8.4051  -22.0039  -53.6040 C.3       20 UNK         0.1400 
    111 CB        -9.8601  -22.4965  -53.5816 C.3       20 UNK        -0.1800 
    112 C         -8.3147  -20.6096  -54.2611 C.2       20 UNK         0.5000 
    113 O         -8.6479  -19.6125  -53.6203 O.2       20 UNK        -0.5000 
    114 N         -7.8499  -20.5656  -55.5170 N.am      21 UNK        -0.5000 
    115 CA        -7.5123  -19.3469  -56.2501 C.3       21 UNK         0.1400 
    116 CB        -7.4029  -19.6911  -57.7440 C.3       21 UNK        -0.1800 
    117 C         -6.2110  -18.6778  -55.7578 C.2       21 UNK         0.5000 
    118 O         -6.0050  -17.4995  -56.0524 O.2       21 UNK        -0.5000 
    119 N         -5.3639  -19.4254  -55.0335 N.am      22 UNK        -0.5000 
    120 CA        -4.0576  -18.9991  -54.5047 C.3       22 UNK         0.1400 
    121 C         -3.0367  -18.6349  -55.6240 C.2       22 UNK         0.5000 
    122 N         -2.9706  -19.4121  -56.6979 N.am      22 UNK        -0.7600 
    123 O         -2.2999  -17.6565  -55.5292 O.2       22 UNK        -0.5000 
    124 C124       -4.1714  -17.9174  -53.3924 C.3       23 UNK        -0.0398 
    125 S125       -5.1810  -18.4745  -51.9757 S.3       23 UNK        -0.2404 
    126 C126       -3.9101  -19.1745  -50.8787 C.3       23 UNK        -0.0205 
    127 H127       -0.2634   -8.1693  -50.4405 H         1 UNK         0.0600 
    128 H128       -1.5895   -9.3083  -50.1913 H         1 UNK         0.0600 
    129 H129       -0.9631   -9.0266  -51.8180 H         1 UNK         0.0600 
    130 H130       -0.8747  -11.2187  -49.2998 H         1 UNK         0.3000 
    131 H131        1.3286  -12.7237  -50.3816 H         1 UNK         0.0600 
    132 H132       -0.1830  -13.3143  -47.7838 H         1 UNK         0.0800 
    133 H133       -0.8572  -13.6547  -49.3498 H         1 UNK         0.0800 
    134 H134        0.6202  -16.9072  -50.4310 H         1 UNK         0.0800 
    135 H135       -0.1632  -15.4468  -50.9785 H         1 UNK         0.0800 
    136 H136       -1.5431  -17.8806  -51.3455 H         1 UNK         0.1150 
    137 H137       -4.7573  -18.1241  -48.5237 H         1 UNK         0.1150 
    138 H138       -1.4615  -15.5215  -47.7585 H         1 UNK         0.1150 
    139 H139       -3.7013  -15.2364  -46.6090 H         1 UNK         0.0800 
    140 H140       -4.8633  -16.5346  -46.6834 H         1 UNK         0.0800 
    141 H141       -4.4893  -18.8241  -46.0037 H         1 UNK         0.0800 
    142 H142       -3.8488  -19.1682  -44.4238 H         1 UNK         0.0800 
    143 H143       -2.2158  -19.3384  -47.0051 H         1 UNK         0.0600 
    144 H144       -1.3553  -19.5947  -44.2781 H         1 UNK         0.3000 
    145 H145        1.6000  -21.4984  -45.1033 H         1 UNK         0.0600 
    146 H146        2.7824  -19.5475  -44.1472 H         1 UNK         0.0600 
    147 H147        2.2363  -19.2001  -45.7809 H         1 UNK         0.0600 
    148 H148        1.3636  -18.5349  -44.4092 H         1 UNK         0.0600 
    149 H149        0.9506  -20.3216  -42.6526 H         1 UNK         0.3000 
    150 H150       -0.9321  -23.0857  -41.3363 H         1 UNK         0.0600 
    151 H151        1.4567  -23.7841  -41.3565 H         1 UNK         0.0600 
    152 H152        1.0227  -23.0854  -39.8035 H         1 UNK         0.0600 
    153 H153        1.9619  -22.1443  -40.9606 H         1 UNK         0.0600 
    154 H154        0.1364  -20.3183  -40.8613 H         1 UNK         0.3000 
    155 H155       -3.0511  -19.2063  -39.8703 H         1 UNK         0.0600 
    156 H156       -0.5829  -19.4259  -38.0638 H         1 UNK         0.0600 
    157 H157       -2.1883  -20.0252  -37.6621 H         1 UNK         0.0600 
    158 H158       -1.9253  -18.3000  -37.8587 H         1 UNK         0.0600 
    159 H159       -0.6476  -17.7693  -39.9320 H         1 UNK         0.3000 
    160 H160       -0.2565  -17.2750  -43.4310 H         1 UNK         0.0600 
    161 H161       -2.1375  -15.7523  -42.6995 H         1 UNK         0.0600 
    162 H162       -0.5966  -14.9279  -42.8454 H         1 UNK         0.0600 
    163 H163       -1.2202  -15.3566  -41.2526 H         1 UNK         0.0600 
    164 H164        1.2575  -15.9701  -41.7014 H         1 UNK         0.3000 
    165 H165        3.3284  -18.0728  -39.9286 H         1 UNK         0.0600 
    166 H166        5.2067  -17.3459  -41.3783 H         1 UNK         0.0600 
    167 H167        4.2853  -18.6052  -42.1848 H         1 UNK         0.0600 
    168 H168        4.0851  -16.9252  -42.6710 H         1 UNK         0.0600 
    169 H169        3.6874  -15.3754  -40.8055 H         1 UNK         0.3000 
    170 H170        1.5560  -13.7749  -38.4884 H         1 UNK         0.0600 
    171 H171        3.5208  -14.2278  -37.0801 H         1 UNK         0.0600 
    172 H172        4.6115  -13.9746  -38.4319 H         1 UNK         0.0600 
    173 H173        3.6593  -12.6314  -37.8000 H         1 UNK         0.0600 
    174 H174        1.6733  -12.6956  -40.3817 H         1 UNK         0.3000 
    175 H175        2.1201  -12.0254  -42.3901 H         1 UNK         0.0600 
    176 H176        3.7039  -10.3533  -41.4048 H         1 UNK         0.0600 
    177 H177        3.7161  -10.2827  -43.1608 H         1 UNK         0.0600 
    178 H178        5.0369  -11.0734  -42.3006 H         1 UNK         0.0600 
    179 H179        4.3230  -12.5877  -44.1283 H         1 UNK         0.3000 
    180 H180        4.6364  -15.0260  -44.9920 H         1 UNK         0.0600 
    181 H181        1.8401  -15.8758  -45.9033 H         1 UNK         0.0600 
    182 H182        2.9094  -16.7720  -44.8317 H         1 UNK         0.0600 
    183 H183        3.3609  -16.5330  -46.5102 H         1 UNK         0.0600 
    184 H184        2.9896  -14.0733  -47.1553 H         1 UNK         0.3000 
    185 H185        4.4550  -11.0459  -47.7465 H         1 UNK         0.0600 
    186 H186        6.5972  -12.1920  -48.2944 H         1 UNK         0.0600 
    187 H187        5.7208  -13.5012  -49.0775 H         1 UNK         0.0600 
    188 H188        5.6730  -11.8716  -49.7520 H         1 UNK         0.0600 
    189 H189        3.3545  -13.0792  -49.5045 H         1 UNK         0.3000 
    190 H190       -2.7355  -21.8070  -44.4940 H         1 UNK         0.3000 
    191 H191       -4.6669  -23.3565  -45.9632 H         1 UNK         0.0600 
    192 H192       -4.1957  -25.0752  -44.2244 H         1 UNK         0.0600 
    193 H193       -2.8277  -24.1399  -43.6371 H         1 UNK         0.0600 
    194 H194       -4.4638  -23.5004  -43.4932 H         1 UNK         0.0600 
    195 H195       -1.1086  -23.5110  -45.5794 H         1 UNK         0.3000 
    196 H196       -0.6510  -25.7923  -47.2122 H         1 UNK         0.0600 
    197 H197        1.6963  -24.9662  -47.2574 H         1 UNK         0.0600 
    198 H198        1.0344  -24.8734  -45.6314 H         1 UNK         0.0600 
    199 H199        1.1865  -23.4140  -46.6065 H         1 UNK         0.0600 
    200 H200       -0.6027  -22.2710  -48.0267 H         1 UNK         0.3000 
    201 H201       -0.0419  -22.5956  -50.7829 H         1 UNK         0.0600 
    202 H202        0.3005  -20.4675  -49.5828 H         1 UNK         0.0600 
    203 H203       -1.4317  -20.3068  -49.3069 H         1 UNK         0.0600 
    204 H204       -0.7797  -20.2238  -50.9445 H         1 UNK         0.0600 
    205 H205       -3.2015  -22.4135  -49.0528 H         1 UNK         0.3000 
    206 H206       -4.8417  -22.4629  -51.3635 H         1 UNK         0.0600 
    207 H207       -5.4066  -23.4118  -48.5097 H         1 UNK         0.0600 
    208 H208       -5.7015  -21.7971  -49.1558 H         1 UNK         0.0600 
    209 H209       -6.6288  -23.1623  -49.7520 H         1 UNK         0.0600 
    210 H210       -3.1293  -25.0764  -49.7223 H         1 UNK         0.3000 
    211 H211       -4.5239  -27.2059  -51.1866 H         1 UNK         0.0600 
    212 H212       -2.0011  -27.2745  -49.4497 H         1 UNK         0.0600 
    213 H213       -2.8478  -28.6711  -50.1006 H         1 UNK         0.0600 
    214 H214       -3.6371  -27.6415  -48.9147 H         1 UNK         0.0600 
    215 H215       -1.2774  -25.6452  -51.2298 H         1 UNK         0.3000 
    216 H216       -0.2659  -27.1981  -53.3706 H         1 UNK         0.0600 
    217 H217        1.6445  -25.5941  -53.2549 H         1 UNK         0.0600 
    218 H218        1.1594  -26.1332  -51.6543 H         1 UNK         0.0600 
    219 H219        0.6987  -24.5294  -52.2206 H         1 UNK         0.0600 
    220 H220       -1.7138  -23.9066  -53.3765 H         1 UNK         0.3000 
    221 H221       -1.3737  -23.7312  -56.3445 H         1 UNK         0.0600 
    222 H222       -1.1484  -21.3426  -55.9973 H         1 UNK         0.0600 
    223 H223       -0.0424  -22.1258  -54.8872 H         1 UNK         0.0600 
    224 H224       -1.5671  -21.4709  -54.2920 H         1 UNK         0.0600 
    225 H225       -3.6264  -24.7878  -54.4664 H         1 UNK         0.3000 
    226 H226       -5.8103  -25.0740  -54.4994 H         1 UNK         0.0600 
    227 H227       -7.1395  -24.5875  -56.5015 H         1 UNK         0.0600 
    228 H228       -5.9716  -23.4048  -57.0690 H         1 UNK         0.0600 
    229 H229       -5.5521  -25.1153  -57.0214 H         1 UNK         0.0600 
    230 H230       -8.0565  -23.8107  -54.6513 H         1 UNK         0.3000 
    231 H231       -8.0630  -21.8963  -52.5724 H         1 UNK         0.0600 
    232 H232       -9.9498  -23.4395  -53.0420 H         1 UNK         0.0600 
    233 H233      -10.2494  -22.6459  -54.5894 H         1 UNK         0.0600 
    234 H234      -10.5095  -21.7760  -53.0823 H         1 UNK         0.0600 
    235 H235       -7.6141  -21.4391  -55.9632 H         1 UNK         0.3000 
    236 H236       -8.3237  -18.6278  -56.1206 H         1 UNK         0.0600 
    237 H237       -8.3355  -20.1095  -58.1229 H         1 UNK         0.0600 
    238 H238       -7.1833  -18.8011  -58.3352 H         1 UNK         0.0600 
    239 H239       -6.6077  -20.4140  -57.9321 H         1 UNK         0.0600 
    240 H240       -5.6129  -20.3839  -54.8104 H         1 UNK         0.3000 
    241 H241       -3.6340  -19.8871  -54.0337 H         1 UNK         0.0600 
    242 H242       -2.3226  -19.1870  -57.4351 H         1 UNK         0.3800 
    243 H243       -3.4933  -20.2815  -56.7326 H         1 UNK         0.3800 
    244 H244       -4.6142  -17.0044  -53.7918 H         1 UNK         0.0800 
    245 H245       -3.1839  -17.6321  -53.0306 H         1 UNK         0.0800 
    246 H246       -3.1805  -19.7289  -51.4698 H         1 UNK         0.0800 
    247 H247       -4.3816  -19.9074  -50.2225 H         1 UNK         0.0800 
@<TRIPOS>BOND
     1    1    2 1    
     2    1  127 1    
     3    1  128 1    
     4    1  129 1    
     5    2    3 2    
     6    2    4 am   BACKBONE|DICT|INTERRES
     7    4    5 1    
     8    4  130 1    
     9    5    6 1    
    10    5   65 1    
    11    5  131 1    
    12    6    7 1    
    13    6  132 1    
    14    6  133 1    
    15    7    8 1    
    16    8    9 1    
    17    8  134 1    
    18    8  135 1    
    19    9   10 ar   
    20    9   14 ar   
    21   10   11 ar   
    22   10  136 1    
    23   11   12 ar   
    24   11  126 1    
    25   12   13 ar   
    26   12  137 1    
    27   13   14 ar   
    28   13   15 1    
    29   14  138 1    
    30   15   16 1    
    31   15  139 1    
    32   15  140 1    
    33   16   17 1    
    34   17   18 1    
    35   17  141 1    
    36   17  142 1    
    37   18   19 1    
    38   18   67 1    
    39   18  143 1    
    40   19   20 am   BACKBONE|DICT|INTERRES
    41   19  144 1    
    42   20   21 2    
    43   20   22 1    
    44   22   23 1    
    45   22   24 1    
    46   22  145 1    
    47   23  146 1    
    48   23  147 1    
    49   23  148 1    
    50   24   25 am   BACKBONE|DICT|INTERRES
    51   24  149 1    
    52   25   26 2    
    53   25   27 1    
    54   27   28 1    
    55   27   29 1    
    56   27  150 1    
    57   28  151 1    
    58   28  152 1    
    59   28  153 1    
    60   29   30 am   BACKBONE|DICT|INTERRES
    61   29  154 1    
    62   30   31 2    
    63   30   32 1    
    64   32   33 1    
    65   32   34 1    
    66   32  155 1    
    67   33  156 1    
    68   33  157 1    
    69   33  158 1    
    70   34   35 am   BACKBONE|DICT|INTERRES
    71   34  159 1    
    72   35   36 2    
    73   35   37 1    
    74   37   38 1    
    75   37   39 1    
    76   37  160 1    
    77   38  161 1    
    78   38  162 1    
    79   38  163 1    
    80   39   40 am   BACKBONE|DICT|INTERRES
    81   39  164 1    
    82   40   41 2    
    83   40   42 1    
    84   42   43 1    
    85   42   44 1    
    86   42  165 1    
    87   43  166 1    
    88   43  167 1    
    89   43  168 1    
    90   44   45 am   BACKBONE|DICT|INTERRES
    91   44  169 1    
    92   45   46 2    
    93   45   47 1    
    94   47   48 1    
    95   47   49 1    
    96   47  170 1    
    97   48  171 1    
    98   48  172 1    
    99   48  173 1    
   100   49   50 am   BACKBONE|DICT|INTERRES
   101   49  174 1    
   102   50   51 2    
   103   50   52 1    
   104   52   53 1    
   105   52   54 1    
   106   52  175 1    
   107   53  176 1    
   108   53  177 1    
   109   53  178 1    
   110   54   55 am   BACKBONE|DICT|INTERRES
   111   54  179 1    
   112   55   56 2    
   113   55   57 1    
   114   57   58 1    
   115   57   59 1    
   116   57  180 1    
   117   58  181 1    
   118   58  182 1    
   119   58  183 1    
   120   59   60 am   BACKBONE|DICT|INTERRES
   121   59  184 1    
   122   60   61 2    
   123   60   62 1    
   124   62   63 1    
   125   62   64 1    
   126   62  185 1    
   127   63  186 1    
   128   63  187 1    
   129   63  188 1    
   130   64   65 am   BACKBONE|DICT|INTERRES
   131   64  189 1    
   132   65   66 2    
   133   67   68 2    
   134   67   69 am   BACKBONE|DICT|INTERRES
   135   69   70 1    
   136   69  190 1    
   137   70   71 1    
   138   70   72 1    
   139   70  191 1    
   140   71  192 1    
   141   71  193 1    
   142   71  194 1    
   143   72   73 2    
   144   72   74 am   BACKBONE|DICT|INTERRES
   145   74   75 1    
   146   74  195 1    
   147   75   76 1    
   148   75   77 1    
   149   75  196 1    
   150   76  197 1    
   151   76  198 1    
   152   76  199 1    
   153   77   78 2    
   154   77   79 am   BACKBONE|DICT|INTERRES
   155   79   80 1    
   156   79  200 1    
   157   80   81 1    
   158   80   82 1    
   159   80  201 1    
   160   81  202 1    
   161   81  203 1    
   162   81  204 1    
   163   82   83 2    
   164   82   84 am   BACKBONE|DICT|INTERRES
   165   84   85 1    
   166   84  205 1    
   167   85   86 1    
   168   85   87 1    
   169   85  206 1    
   170   86  207 1    
   171   86  208 1    
   172   86  209 1    
   173   87   88 2    
   174   87   89 am   BACKBONE|DICT|INTERRES
   175   89   90 1    
   176   89  210 1    
   177   90   91 1    
   178   90   92 1    
   179   90  211 1    
   180   91  212 1    
   181   91  213 1    
   182   91  214 1    
   183   92   93 2    
   184   92   94 am   BACKBONE|DICT|INTERRES
   185   94   95 1    
   186   94  215 1    
   187   95   96 1    
   188   95   97 1    
   189   95  216 1    
   190   96  217 1    
   191   96  218 1    
   192   96  219 1    
   193   97   98 2    
   194   97   99 am   BACKBONE|DICT|INTERRES
   195   99  100 1    
   196   99  220 1    
   197  100  101 1    
   198  100  102 1    
   199  100  221 1    
   200  101  222 1    
   201  101  223 1    
   202  101  224 1    
   203  102  103 2    
   204  102  104 am   BACKBONE|DICT|INTERRES
   205  104  105 1    
   206  104  225 1    
   207  105  106 1    
   208  105  107 1    
   209  105  226 1    
   210  106  227 1    
   211  106  228 1    
   212  106  229 1    
   213  107  108 2    
   214  107  109 am   BACKBONE|DICT|INTERRES
   215  109  110 1    
   216  109  230 1    
   217  110  111 1    
   218  110  112 1    
   219  110  231 1    
   220  111  232 1    
   221  111  233 1    
   222  111  234 1    
   223  112  113 2    
   224  112  114 am   BACKBONE|DICT|INTERRES
   225  114  115 1    
   226  114  235 1    
   227  115  116 1    
   228  115  117 1    
   229  115  236 1    
   230  116  237 1    
   231  116  238 1    
   232  116  239 1    
   233  117  118 2    
   234  117  119 am   BACKBONE|DICT|INTERRES
   235  119  120 1    
   236  119  240 1    
   237  120  121 1    
   238  120  124 1    
   239  120  241 1    
   240  121  122 am   BACKBONE|DICT|INTERRES
   241  121  123 2    
   242  122  242 1    
   243  122  243 1    
   244  124  125 1    
   245  124  244 1    
   246  124  245 1    
   247  125  126 1    
   248  126  246 1    
   249  126  247 1    
@<TRIPOS>SUBSTRUCTURE
     1 UNK         1 GROUP             0       ****    0 ROOT    
