@<TRIPOS>MOLECULE
3R540
247   249    1
SMALL
USER_CHARGES


@<TRIPOS>ATOM
      1 CA          0.5197  -11.1181  -48.3999 C.3       0 UNK        -0.1800 
      2 C           1.8995  -11.7212  -48.1872 C.2       0 UNK         0.5000 
      3 O           2.9005  -11.1392  -48.6058 O.2       0 UNK        -0.5000 
      4 N           1.9520  -12.8806  -47.5239 N.am      1 UNK        -0.5000 
      5 CA          3.1861  -13.5608  -47.1167 C.3       1 UNK         0.1400 
      6 C6          2.9740  -15.0740  -46.8730 C.3       23 UNK        -0.0398 
      7 S7          2.3577  -15.9372  -48.3542 S.3       23 UNK        -0.2404 
      8 C8          3.8549  -16.7751  -48.9533 C.3       23 UNK        -0.0205 
      9 C9          3.5259  -17.7083  -50.1082 C.ar      23 UNK        -0.0193 
     10 C10         3.1547  -17.1790  -51.3481 C.ar      23 UNK        -0.1150 
     11 C11         2.8358  -18.0233  -52.4146 C.ar      23 UNK        -0.0193 
     12 C12         2.9113  -19.4066  -52.2404 C.ar      23 UNK        -0.1150 
     13 C13         3.2790  -19.9493  -51.0066 C.ar      23 UNK        -0.0193 
     14 C14         3.5842  -19.0963  -49.9413 C.ar      23 UNK        -0.1150 
     15 C15         3.3384  -21.4589  -50.8411 C.3       23 UNK        -0.0205 
     16 S16         1.6857  -22.1476  -50.5183 S.3       23 UNK        -0.2404 
     17 C17         1.5293  -21.9488  -48.7120 C.3       23 UNK        -0.0398 
     18 CA          1.0771  -23.2698  -48.0411 C.3       11 UNK         0.1400 
     19 N           1.5422  -23.3798  -46.6571 N.am      11 UNK        -0.5000 
     20 C           1.5511  -24.5171  -45.9477 C.2       10 UNK         0.5000 
     21 O           1.1881  -25.6052  -46.3938 O.2       10 UNK        -0.5000 
     22 CA          2.0112  -24.4124  -44.4821 C.3       10 UNK         0.1400 
     23 CB          3.5422  -24.4913  -44.3892 C.3       10 UNK        -0.1800 
     24 N           1.5483  -23.1852  -43.8322 N.am      10 UNK        -0.5000 
     25 C           0.2642  -22.9189  -43.5569 C.2       9 UNK         0.5000 
     26 O          -0.6624  -23.6905  -43.8008 O.2       9 UNK        -0.5000 
     27 CA         -0.0411  -21.5337  -42.9590 C.3       9 UNK         0.1400 
     28 CB          0.1857  -21.5381  -41.4398 C.3       9 UNK        -0.1800 
     29 N           0.7247  -20.4382  -43.5643 N.am      9 UNK        -0.5000 
     30 C           0.7146  -20.1297  -44.8674 C.2       8 UNK         0.5000 
     31 O           0.1528  -20.8082  -45.7303 O.2       8 UNK        -0.5000 
     32 CA          1.4783  -18.8654  -45.2928 C.3       8 UNK         0.1400 
     33 CB          2.9035  -19.2188  -45.7423 C.3       8 UNK        -0.1800 
     34 N           0.7788  -18.2133  -46.3967 N.am      8 UNK        -0.5000 
     35 C          -0.3793  -17.5590  -46.2646 C.2       7 UNK         0.5000 
     36 O          -0.9077  -17.3042  -45.1777 O.2       7 UNK        -0.5000 
     37 CA         -1.0820  -17.1458  -47.5628 C.3       7 UNK         0.1400 
     38 CB         -2.0599  -18.2404  -48.0159 C.3       7 UNK        -0.1800 
     39 N          -1.8136  -15.9200  -47.2844 N.am      7 UNK        -0.5000 
     40 C          -1.8150  -14.8156  -48.0359 C.2       6 UNK         0.5000 
     41 O          -1.3316  -14.7453  -49.1655 O.2       6 UNK        -0.5000 
     42 CA         -2.4464  -13.5619  -47.3995 C.3       6 UNK         0.1400 
     43 CB         -3.9147  -13.4220  -47.8286 C.3       6 UNK        -0.1800 
     44 N          -2.3744  -13.5460  -45.9347 N.am      6 UNK        -0.5000 
     45 C          -1.2472  -13.4955  -45.2124 C.2       5 UNK         0.5000 
     46 O          -0.1176  -13.4270  -45.7016 O.2       5 UNK        -0.5000 
     47 CA         -1.4232  -13.4764  -43.6847 C.3       5 UNK         0.1400 
     48 CB         -0.2490  -14.1563  -42.9636 C.3       5 UNK        -0.1800 
     49 N          -1.5418  -12.0949  -43.2266 N.am      5 UNK        -0.5000 
     50 C          -2.6546  -11.3551  -43.3399 C.2       4 UNK         0.5000 
     51 O          -3.7330  -11.8072  -43.7286 O.2       4 UNK        -0.5000 
     52 CA         -2.5560   -9.8608  -42.9751 C.3       4 UNK         0.1400 
     53 CB         -3.0570   -9.6227  -41.5424 C.3       4 UNK        -0.1800 
     54 N          -1.2056   -9.3112  -43.1028 N.am      4 UNK        -0.5000 
     55 C          -0.5297   -9.1672  -44.2509 C.2       3 UNK         0.5000 
     56 O          -0.9856   -9.4597  -45.3567 O.2       3 UNK        -0.5000 
     57 CA          0.9072   -8.6167  -44.1504 C.3       3 UNK         0.1400 
     58 CB          1.1507   -7.7408  -42.9008 C.3       3 UNK        -0.1800 
     59 N           1.9153   -9.6785  -44.2357 N.am      3 UNK        -0.5000 
     60 C           2.0441  -10.7476  -43.4366 C.2       2 UNK         0.5000 
     61 O           1.2649  -11.0316  -42.5247 O.2       2 UNK        -0.5000 
     62 CA          3.2228  -11.6730  -43.7627 C.3       2 UNK         0.1400 
     63 CB          3.5875  -12.6395  -42.6183 C.3       2 UNK        -0.1800 
     64 N           2.8890  -12.4105  -44.9741 N.am      2 UNK        -0.5000 
     65 C           3.7717  -12.8976  -45.8549 C.2       1 UNK         0.5000 
     66 O           4.9932  -12.8249  -45.7149 O.2       1 UNK        -0.5000 
     67 C          -0.4494  -23.4570  -48.1239 C.2       11 UNK         0.5000 
     68 O          -0.9264  -24.2307  -48.9533 O.2       11 UNK        -0.5000 
     69 N          -1.1789  -22.7879  -47.2202 N.am      12 UNK        -0.5000 
     70 CA         -2.6273  -22.8976  -47.0681 C.3       12 UNK         0.1400 
     71 CB         -3.1107  -21.8859  -46.0190 C.3       12 UNK        -0.1800 
     72 C          -3.0779  -24.3240  -46.7075 C.2       12 UNK         0.5000 
     73 O          -4.0660  -24.7998  -47.2624 O.2       12 UNK        -0.5000 
     74 N          -2.3274  -24.9979  -45.8240 N.am      13 UNK        -0.5000 
     75 CA         -2.5392  -26.3994  -45.4615 C.3       13 UNK         0.1400 
     76 CB         -1.6506  -26.7694  -44.2646 C.3       13 UNK        -0.1800 
     77 C          -2.2977  -27.3612  -46.6391 C.2       13 UNK         0.5000 
     78 O          -3.1062  -28.2649  -46.8516 O.2       13 UNK        -0.5000 
     79 N          -1.2140  -27.1373  -47.3972 N.am      14 UNK        -0.5000 
     80 CA         -0.8537  -27.9209  -48.5817 C.3       14 UNK         0.1400 
     81 CB          0.5643  -27.5446  -49.0379 C.3       14 UNK        -0.1800 
     82 C          -1.8598  -27.7621  -49.7371 C.2       14 UNK         0.5000 
     83 O          -2.2157  -28.7537  -50.3750 O.2       14 UNK        -0.5000 
     84 N          -2.3176  -26.5249  -49.9682 N.am      15 UNK        -0.5000 
     85 CA         -3.3329  -26.1817  -50.9664 C.3       15 UNK         0.1400 
     86 CB         -3.2374  -24.6782  -51.2635 C.3       15 UNK        -0.1800 
     87 C          -4.7678  -26.5585  -50.5418 C.2       15 UNK         0.5000 
     88 O          -5.6575  -26.5836  -51.3927 O.2       15 UNK        -0.5000 
     89 N          -4.9651  -26.8268  -49.2427 N.am      16 UNK        -0.5000 
     90 CA         -6.2272  -27.1234  -48.5544 C.3       16 UNK         0.1400 
     91 CB         -6.8779  -28.4094  -49.1050 C.3       16 UNK        -0.1800 
     92 C          -7.2043  -25.9268  -48.5027 C.2       16 UNK         0.5000 
     93 O          -8.3991  -26.1210  -48.2717 O.2       16 UNK        -0.5000 
     94 N          -6.6749  -24.7127  -48.6836 N.am      17 UNK        -0.5000 
     95 CA         -7.3540  -23.4249  -48.6242 C.3       17 UNK         0.1400 
     96 CB         -8.3641  -23.2727  -49.7786 C.3       17 UNK        -0.1800 
     97 C          -6.2844  -22.3299  -48.7181 C.2       17 UNK         0.5000 
     98 O          -5.3185  -22.4891  -49.4663 O.2       17 UNK        -0.5000 
     99 N          -6.4832  -21.2251  -47.9887 N.am      18 UNK        -0.5000 
    100 CA        -5.6434  -20.0271  -48.0898 C.3       18 UNK         0.1400 
    101 CB        -5.8561  -19.1486  -46.8477 C.3       18 UNK        -0.1800 
    102 C         -5.9268  -19.2272  -49.3756 C.2       18 UNK         0.5000 
    103 O         -5.0193  -18.5940  -49.9156 O.2       18 UNK        -0.5000 
    104 N         -7.1797  -19.2818  -49.8492 N.am      19 UNK        -0.5000 
    105 CA        -7.6306  -18.6801  -51.1001 C.3       19 UNK         0.1400 
    106 CB        -9.1625  -18.7766  -51.1838 C.3       19 UNK        -0.1800 
    107 C         -6.9615  -19.3646  -52.3047 C.2       19 UNK         0.5000 
    108 O         -7.1917  -20.5542  -52.5308 O.2       19 UNK        -0.5000 
    109 N         -6.1377  -18.5972  -53.0313 N.am      20 UNK        -0.5000 
    110 CA        -5.3530  -19.0073  -54.2006 C.3       20 UNK         0.1400 
    111 CB        -6.2767  -19.3576  -55.3867 C.3       20 UNK        -0.1800 
    112 C         -4.3182  -20.1129  -53.8942 C.2       20 UNK         0.5000 
    113 O         -4.0488  -20.9548  -54.7541 O.2       20 UNK        -0.5000 
    114 N         -3.7227  -20.0724  -52.6899 N.am      21 UNK        -0.5000 
    115 CA        -2.7035  -21.0222  -52.2189 C.3       21 UNK         0.1400 
    116 CB        -2.3171  -20.6887  -50.7701 C.3       21 UNK        -0.1800 
    117 C         -1.4430  -21.0929  -53.1069 C.2       21 UNK         0.5000 
    118 O         -0.8005  -22.1411  -53.1656 O.2       21 UNK        -0.5000 
    119 N         -1.1436  -19.9939  -53.8124 N.am      22 UNK        -0.5000 
    120 CA        -0.0974  -19.9039  -54.8427 C.3       22 UNK         0.1400 
    121 C         -0.3621  -20.7597  -56.1196 C.2       22 UNK         0.5000 
    122 N         -1.5655  -21.2723  -56.3539 N.am      22 UNK        -0.7600 
    123 O          0.5492  -20.9621  -56.9174 O.2       22 UNK        -0.5000 
    124 C124        0.1961  -18.4341  -55.2451 C.3       23 UNK        -0.0398 
    125 S125        0.5804  -17.3352  -53.8374 S.3       23 UNK        -0.2404 
    126 C126        2.3965  -17.4427  -53.7481 C.3       23 UNK        -0.0205 
    127 H127       -0.0163  -11.6638  -49.1766 H         1 UNK         0.0600 
    128 H128        0.5963  -10.0740  -48.7039 H         1 UNK         0.0600 
    129 H129       -0.0626  -11.1563  -47.4790 H         1 UNK         0.0600 
    130 H130        1.0942  -13.2731  -47.1450 H         1 UNK         0.3000 
    131 H131        3.9231  -13.4516  -47.9154 H         1 UNK         0.0600 
    132 H132        2.2505  -15.2345  -46.0711 H         1 UNK         0.0800 
    133 H133        3.9013  -15.5455  -46.5426 H         1 UNK         0.0800 
    134 H134        4.3183  -17.3294  -48.1361 H         1 UNK         0.0800 
    135 H135        4.5825  -16.0304  -49.2792 H         1 UNK         0.0800 
    136 H136        3.0952  -16.1069  -51.4745 H         1 UNK         0.1150 
    137 H137        2.6695  -20.0657  -53.0612 H         1 UNK         0.1150 
    138 H138        3.8670  -19.5128  -48.9850 H         1 UNK         0.1150 
    139 H139        3.7275  -21.9065  -51.7569 H         1 UNK         0.0800 
    140 H140        4.0356  -21.7413  -50.0510 H         1 UNK         0.0800 
    141 H141        0.8514  -21.1213  -48.4933 H         1 UNK         0.0800 
    142 H142        2.4984  -21.6488  -48.3137 H         1 UNK         0.0800 
    143 H143        1.5349  -24.1010  -48.5828 H         1 UNK         0.0600 
    144 H144        1.7741  -22.5174  -46.1872 H         1 UNK         0.3000 
    145 H145        1.5923  -25.2634  -43.9408 H         1 UNK         0.0600 
    146 H146        3.8743  -24.4956  -43.3508 H         1 UNK         0.0600 
    147 H147        3.9140  -25.4066  -44.8518 H         1 UNK         0.0600 
    148 H148        4.0219  -23.6507  -44.8922 H         1 UNK         0.0600 
    149 H149        2.2461  -22.4929  -43.6031 H         1 UNK         0.3000 
    150 H150       -1.0980  -21.3289  -43.1418 H         1 UNK         0.0600 
    151 H151       -0.3860  -22.3348  -40.9618 H         1 UNK         0.0600 
    152 H152       -0.1336  -20.5976  -40.9904 H         1 UNK         0.0600 
    153 H153        1.2359  -21.6914  -41.1888 H         1 UNK         0.0600 
    154 H154        1.2247  -19.8379  -42.9247 H         1 UNK         0.3000 
    155 H155        1.5331  -18.1743  -44.4489 H         1 UNK         0.0600 
    156 H156        2.9024  -19.8908  -46.6007 H         1 UNK         0.0600 
    157 H157        3.4574  -19.7091  -44.9409 H         1 UNK         0.0600 
    158 H158        3.4599  -18.3232  -46.0184 H         1 UNK         0.0600 
    159 H159        1.1397  -18.3878  -47.3226 H         1 UNK         0.3000 
    160 H160       -0.3372  -16.9829  -48.3432 H         1 UNK         0.0600 
    161 H161       -2.8219  -18.4363  -47.2613 H         1 UNK         0.0600 
    162 H162       -1.5372  -19.1792  -48.2042 H         1 UNK         0.0600 
    163 H163       -2.5656  -17.9547  -48.9379 H         1 UNK         0.0600 
    164 H164       -2.1762  -15.8616  -46.3421 H         1 UNK         0.3000 
    165 H165       -1.9004  -12.6936  -47.7702 H         1 UNK         0.0600 
    166 H166       -4.3505  -12.4976  -47.4488 H         1 UNK         0.0600 
    167 H167       -4.0034  -13.3995  -48.9156 H         1 UNK         0.0600 
    168 H168       -4.5205  -14.2539  -47.4668 H         1 UNK         0.0600 
    169 H169       -3.2572  -13.5247  -45.4422 H         1 UNK         0.3000 
    170 H170       -2.3318  -14.0251  -43.4273 H         1 UNK         0.0600 
    171 H171        0.6963  -13.6667  -43.1889 H         1 UNK         0.0600 
    172 H172       -0.3855  -14.1415  -41.8823 H         1 UNK         0.0600 
    173 H173       -0.1574  -15.1995  -43.2692 H         1 UNK         0.0600 
    174 H174       -0.6849  -11.6437  -42.9232 H         1 UNK         0.3000 
    175 H175       -3.2066   -9.3141  -43.6609 H         1 UNK         0.0600 
    176 H176       -2.4295  -10.1293  -40.8080 H         1 UNK         0.0600 
    177 H177       -3.0690   -8.5600  -41.2995 H         1 UNK         0.0600 
    178 H178       -4.0749   -9.9947  -41.4173 H         1 UNK         0.0600 
    179 H179       -0.7297   -9.0830  -42.2419 H         1 UNK         0.3000 
    180 H180        1.0507   -7.9812  -45.0257 H         1 UNK         0.0600 
    181 H181        1.1120   -8.3140  -41.9740 H         1 UNK         0.0600 
    182 H182        0.4096   -6.9434  -42.8299 H         1 UNK         0.0600 
    183 H183        2.1297   -7.2638  -42.9482 H         1 UNK         0.0600 
    184 H184        2.5767   -9.5779  -44.9930 H         1 UNK         0.3000 
    185 H185        4.0887  -11.0352  -43.9538 H         1 UNK         0.0600 
    186 H186        4.4824  -13.2135  -42.8583 H         1 UNK         0.0600 
    187 H187        3.7927  -12.0909  -41.6984 H         1 UNK         0.0600 
    188 H188        2.7879  -13.3474  -42.4054 H         1 UNK         0.0600 
    189 H189        1.9002  -12.5080  -45.1765 H         1 UNK         0.3000 
    190 H190       -0.7020  -22.1505  -46.5846 H         1 UNK         0.3000 
    191 H191       -3.0762  -22.6381  -48.0283 H         1 UNK         0.0600 
    192 H192       -4.1956  -21.9223  -45.9140 H         1 UNK         0.0600 
    193 H193       -2.8420  -20.8675  -46.2995 H         1 UNK         0.0600 
    194 H194       -2.6776  -22.0860  -45.0386 H         1 UNK         0.0600 
    195 H195       -1.5674  -24.5162  -45.3535 H         1 UNK         0.3000 
    196 H196       -3.5811  -26.5093  -45.1533 H         1 UNK         0.0600 
    197 H197       -1.7942  -27.8119  -43.9780 H         1 UNK         0.0600 
    198 H198       -1.8890  -26.1581  -43.3942 H         1 UNK         0.0600 
    199 H199       -0.5927  -26.6326  -44.4897 H         1 UNK         0.0600 
    200 H200       -0.5754  -26.3937  -47.1356 H         1 UNK         0.3000 
    201 H201       -0.8457  -28.9743  -48.2940 H         1 UNK         0.0600 
    202 H202        1.2954  -27.7431  -48.2540 H         1 UNK         0.0600 
    203 H203        0.6367  -26.4893  -49.3023 H         1 UNK         0.0600 
    204 H204        0.8606  -28.1242  -49.9130 H         1 UNK         0.0600 
    205 H205       -1.9201  -25.7492  -49.4419 H         1 UNK         0.3000 
    206 H206       -3.1130  -26.7242  -51.8881 H         1 UNK         0.0600 
    207 H207       -2.2592  -24.4178  -51.6688 H         1 UNK         0.0600 
    208 H208       -3.9867  -24.3706  -51.9939 H         1 UNK         0.0600 
    209 H209       -3.3911  -24.0832  -50.3629 H         1 UNK         0.0600 
    210 H210       -4.1654  -26.7297  -48.6305 H         1 UNK         0.3000 
    211 H211       -5.9502  -27.3194  -47.5177 H         1 UNK         0.0600 
    212 H212       -7.2661  -28.2693  -50.1139 H         1 UNK         0.0600 
    213 H213       -7.7121  -28.7244  -48.4773 H         1 UNK         0.0600 
    214 H214       -6.1637  -29.2326  -49.1297 H         1 UNK         0.0600 
    215 H215       -5.6692  -24.6434  -48.8001 H         1 UNK         0.3000 
    216 H216       -7.8706  -23.3461  -47.6658 H         1 UNK         0.0600 
    217 H217       -8.8219  -22.2829  -49.7708 H         1 UNK         0.0600 
    218 H218       -9.1729  -23.9994  -49.7075 H         1 UNK         0.0600 
    219 H219       -7.8823  -23.4014  -50.7490 H         1 UNK         0.0600 
    220 H220       -7.2871  -21.1680  -47.3798 H         1 UNK         0.3000 
    221 H221       -4.5950  -20.3304  -48.1149 H         1 UNK         0.0600 
    222 H222       -5.2503  -18.2431  -46.9001 H         1 UNK         0.0600 
    223 H223       -6.8969  -18.8393  -46.7453 H         1 UNK         0.0600 
    224 H224       -5.5710  -19.6769  -45.9378 H         1 UNK         0.0600 
    225 H225       -7.8515  -19.8510  -49.3583 H         1 UNK         0.3000 
    226 H226       -7.3579  -17.6226  -51.0878 H         1 UNK         0.0600 
    227 H227       -9.5048  -19.8121  -51.1601 H         1 UNK         0.0600 
    228 H228       -9.6370  -18.2474  -50.3572 H         1 UNK         0.0600 
    229 H229       -9.5302  -18.3307  -52.1088 H         1 UNK         0.0600 
    230 H230       -5.9986  -17.6410  -52.7347 H         1 UNK         0.3000 
    231 H231       -4.7706  -18.1325  -54.4932 H         1 UNK         0.0600 
    232 H232       -6.8470  -20.2684  -55.2020 H         1 UNK         0.0600 
    233 H233       -5.7000  -19.5142  -56.2991 H         1 UNK         0.0600 
    234 H234       -6.9843  -18.5532  -55.5870 H         1 UNK         0.0600 
    235 H235       -4.0200  -19.3679  -52.0276 H         1 UNK         0.3000 
    236 H236       -3.1618  -22.0117  -52.2286 H         1 UNK         0.0600 
    237 H237       -1.8894  -19.6890  -50.6913 H         1 UNK         0.0600 
    238 H238       -3.1810  -20.7428  -50.1088 H         1 UNK         0.0600 
    239 H239       -1.5778  -21.3952  -50.3897 H         1 UNK         0.0600 
    240 H240       -1.7165  -19.1733  -53.6879 H         1 UNK         0.3000 
    241 H241        0.8122  -20.3112  -54.4005 H         1 UNK         0.0600 
    242 H242       -1.7109  -21.8238  -57.1844 H         1 UNK         0.3800 
    243 H243       -2.3381  -21.1304  -55.7106 H         1 UNK         0.3800 
    244 H244        1.0128  -18.3855  -55.9674 H         1 UNK         0.0800 
    245 H245       -0.6710  -18.0126  -55.7565 H         1 UNK         0.0800 
    246 H246        2.7962  -18.0489  -54.5619 H         1 UNK         0.0800 
    247 H247        2.8162  -16.4444  -53.8808 H         1 UNK         0.0800 
@<TRIPOS>BOND
     1    1    2 1    
     2    1  127 1    
     3    1  128 1    
     4    1  129 1    
     5    2    3 2    
     6    2    4 am   BACKBONE|DICT|INTERRES
     7    4    5 1    
     8    4  130 1    
     9    5    6 1    
    10    5   65 1    
    11    5  131 1    
    12    6    7 1    
    13    6  132 1    
    14    6  133 1    
    15    7    8 1    
    16    8    9 1    
    17    8  134 1    
    18    8  135 1    
    19    9   10 ar   
    20    9   14 ar   
    21   10   11 ar   
    22   10  136 1    
    23   11   12 ar   
    24   11  126 1    
    25   12   13 ar   
    26   12  137 1    
    27   13   14 ar   
    28   13   15 1    
    29   14  138 1    
    30   15   16 1    
    31   15  139 1    
    32   15  140 1    
    33   16   17 1    
    34   17   18 1    
    35   17  141 1    
    36   17  142 1    
    37   18   19 1    
    38   18   67 1    
    39   18  143 1    
    40   19   20 am   BACKBONE|DICT|INTERRES
    41   19  144 1    
    42   20   21 2    
    43   20   22 1    
    44   22   23 1    
    45   22   24 1    
    46   22  145 1    
    47   23  146 1    
    48   23  147 1    
    49   23  148 1    
    50   24   25 am   BACKBONE|DICT|INTERRES
    51   24  149 1    
    52   25   26 2    
    53   25   27 1    
    54   27   28 1    
    55   27   29 1    
    56   27  150 1    
    57   28  151 1    
    58   28  152 1    
    59   28  153 1    
    60   29   30 am   BACKBONE|DICT|INTERRES
    61   29  154 1    
    62   30   31 2    
    63   30   32 1    
    64   32   33 1    
    65   32   34 1    
    66   32  155 1    
    67   33  156 1    
    68   33  157 1    
    69   33  158 1    
    70   34   35 am   BACKBONE|DICT|INTERRES
    71   34  159 1    
    72   35   36 2    
    73   35   37 1    
    74   37   38 1    
    75   37   39 1    
    76   37  160 1    
    77   38  161 1    
    78   38  162 1    
    79   38  163 1    
    80   39   40 am   BACKBONE|DICT|INTERRES
    81   39  164 1    
    82   40   41 2    
    83   40   42 1    
    84   42   43 1    
    85   42   44 1    
    86   42  165 1    
    87   43  166 1    
    88   43  167 1    
    89   43  168 1    
    90   44   45 am   BACKBONE|DICT|INTERRES
    91   44  169 1    
    92   45   46 2    
    93   45   47 1    
    94   47   48 1    
    95   47   49 1    
    96   47  170 1    
    97   48  171 1    
    98   48  172 1    
    99   48  173 1    
   100   49   50 am   BACKBONE|DICT|INTERRES
   101   49  174 1    
   102   50   51 2    
   103   50   52 1    
   104   52   53 1    
   105   52   54 1    
   106   52  175 1    
   107   53  176 1    
   108   53  177 1    
   109   53  178 1    
   110   54   55 am   BACKBONE|DICT|INTERRES
   111   54  179 1    
   112   55   56 2    
   113   55   57 1    
   114   57   58 1    
   115   57   59 1    
   116   57  180 1    
   117   58  181 1    
   118   58  182 1    
   119   58  183 1    
   120   59   60 am   BACKBONE|DICT|INTERRES
   121   59  184 1    
   122   60   61 2    
   123   60   62 1    
   124   62   63 1    
   125   62   64 1    
   126   62  185 1    
   127   63  186 1    
   128   63  187 1    
   129   63  188 1    
   130   64   65 am   BACKBONE|DICT|INTERRES
   131   64  189 1    
   132   65   66 2    
   133   67   68 2    
   134   67   69 am   BACKBONE|DICT|INTERRES
   135   69   70 1    
   136   69  190 1    
   137   70   71 1    
   138   70   72 1    
   139   70  191 1    
   140   71  192 1    
   141   71  193 1    
   142   71  194 1    
   143   72   73 2    
   144   72   74 am   BACKBONE|DICT|INTERRES
   145   74   75 1    
   146   74  195 1    
   147   75   76 1    
   148   75   77 1    
   149   75  196 1    
   150   76  197 1    
   151   76  198 1    
   152   76  199 1    
   153   77   78 2    
   154   77   79 am   BACKBONE|DICT|INTERRES
   155   79   80 1    
   156   79  200 1    
   157   80   81 1    
   158   80   82 1    
   159   80  201 1    
   160   81  202 1    
   161   81  203 1    
   162   81  204 1    
   163   82   83 2    
   164   82   84 am   BACKBONE|DICT|INTERRES
   165   84   85 1    
   166   84  205 1    
   167   85   86 1    
   168   85   87 1    
   169   85  206 1    
   170   86  207 1    
   171   86  208 1    
   172   86  209 1    
   173   87   88 2    
   174   87   89 am   BACKBONE|DICT|INTERRES
   175   89   90 1    
   176   89  210 1    
   177   90   91 1    
   178   90   92 1    
   179   90  211 1    
   180   91  212 1    
   181   91  213 1    
   182   91  214 1    
   183   92   93 2    
   184   92   94 am   BACKBONE|DICT|INTERRES
   185   94   95 1    
   186   94  215 1    
   187   95   96 1    
   188   95   97 1    
   189   95  216 1    
   190   96  217 1    
   191   96  218 1    
   192   96  219 1    
   193   97   98 2    
   194   97   99 am   BACKBONE|DICT|INTERRES
   195   99  100 1    
   196   99  220 1    
   197  100  101 1    
   198  100  102 1    
   199  100  221 1    
   200  101  222 1    
   201  101  223 1    
   202  101  224 1    
   203  102  103 2    
   204  102  104 am   BACKBONE|DICT|INTERRES
   205  104  105 1    
   206  104  225 1    
   207  105  106 1    
   208  105  107 1    
   209  105  226 1    
   210  106  227 1    
   211  106  228 1    
   212  106  229 1    
   213  107  108 2    
   214  107  109 am   BACKBONE|DICT|INTERRES
   215  109  110 1    
   216  109  230 1    
   217  110  111 1    
   218  110  112 1    
   219  110  231 1    
   220  111  232 1    
   221  111  233 1    
   222  111  234 1    
   223  112  113 2    
   224  112  114 am   BACKBONE|DICT|INTERRES
   225  114  115 1    
   226  114  235 1    
   227  115  116 1    
   228  115  117 1    
   229  115  236 1    
   230  116  237 1    
   231  116  238 1    
   232  116  239 1    
   233  117  118 2    
   234  117  119 am   BACKBONE|DICT|INTERRES
   235  119  120 1    
   236  119  240 1    
   237  120  121 1    
   238  120  124 1    
   239  120  241 1    
   240  121  122 am   BACKBONE|DICT|INTERRES
   241  121  123 2    
   242  122  242 1    
   243  122  243 1    
   244  124  125 1    
   245  124  244 1    
   246  124  245 1    
   247  125  126 1    
   248  126  246 1    
   249  126  247 1    
@<TRIPOS>SUBSTRUCTURE
     1 UNK         1 GROUP             0       ****    0 ROOT    
