@<TRIPOS>MOLECULE
3R540
247   249    1
SMALL
USER_CHARGES


@<TRIPOS>ATOM
      1 CA         -3.6930  -19.2764  -46.7794 C.3       0 UNK        -0.1800 
      2 C          -2.5959  -18.3347  -47.2568 C.2       0 UNK         0.5000 
      3 O          -1.4786  -18.7715  -47.5141 O.2       0 UNK        -0.5000 
      4 N          -2.9143  -17.0457  -47.3745 N.am      1 UNK        -0.5000 
      5 CA         -2.0301  -15.9673  -47.8113 C.3       1 UNK         0.1400 
      6 C6         -0.9014  -15.6735  -46.7807 C.3       23 UNK        -0.0398 
      7 S7          0.4928  -14.7076  -47.4600 S.3       23 UNK        -0.2404 
      8 C8          1.8793  -15.8883  -47.3833 C.3       23 UNK        -0.0205 
      9 C9          1.9030  -16.8547  -48.5610 C.ar      23 UNK        -0.0193 
     10 C10         1.9070  -16.3623  -49.8697 C.ar      23 UNK        -0.1150 
     11 C11         1.9628  -17.2313  -50.9626 C.ar      23 UNK        -0.0193 
     12 C12         2.0465  -18.6086  -50.7328 C.ar      23 UNK        -0.1150 
     13 C13         2.0638  -19.1193  -49.4303 C.ar      23 UNK        -0.0193 
     14 C14         1.9852  -18.2352  -48.3494 C.ar      23 UNK        -0.1150 
     15 C15         2.2540  -20.6142  -49.1923 C.3       23 UNK        -0.0205 
     16 S16         0.9639  -21.6432  -49.9661 S.3       23 UNK        -0.2404 
     17 C17        -0.3746  -21.6181  -48.7290 C.3       23 UNK        -0.0398 
     18 CA         -0.5741  -23.0057  -48.0728 C.3       11 UNK         0.1400 
     19 N           0.5612  -23.4030  -47.2324 N.am      11 UNK        -0.5000 
     20 C           0.7688  -24.6534  -46.7959 C.2       10 UNK         0.5000 
     21 O           0.0131  -25.5929  -47.0398 O.2       10 UNK        -0.5000 
     22 CA          2.0063  -24.9041  -45.9157 C.3       10 UNK         0.1400 
     23 CB          3.2225  -25.2372  -46.7923 C.3       10 UNK        -0.1800 
     24 N           2.3475  -23.7947  -45.0268 N.am      10 UNK        -0.5000 
     25 C           1.5572  -23.2721  -44.0790 C.2       9 UNK         0.5000 
     26 O           0.4065  -23.6554  -43.8597 O.2       9 UNK        -0.5000 
     27 CA          2.1375  -22.1009  -43.2541 C.3       9 UNK         0.1400 
     28 CB          3.6540  -21.8856  -43.4558 C.3       9 UNK        -0.1800 
     29 N           1.4438  -20.8286  -43.4781 N.am      9 UNK        -0.5000 
     30 C           1.0933  -20.2846  -44.6539 C.2       8 UNK         0.5000 
     31 O           1.1985  -20.8478  -45.7435 O.2       8 UNK        -0.5000 
     32 CA          0.5679  -18.8398  -44.5989 C.3       8 UNK         0.1400 
     33 CB         -0.8970  -18.8132  -44.1530 C.3       8 UNK        -0.1800 
     34 N           1.3543  -17.9545  -43.7363 N.am      8 UNK        -0.5000 
     35 C           2.6614  -17.6847  -43.8863 C.2       7 UNK         0.5000 
     36 O           3.3598  -18.1848  -44.7686 O.2       7 UNK        -0.5000 
     37 CA          3.3022  -16.6747  -42.9133 C.3       7 UNK         0.1400 
     38 CB          4.0854  -15.5940  -43.6802 C.3       7 UNK        -0.1800 
     39 N           2.3095  -16.0133  -42.0654 N.am      7 UNK        -0.5000 
     40 C           2.0484  -16.3232  -40.7879 C.2       6 UNK         0.5000 
     41 O           2.6218  -17.2250  -40.1763 O.2       6 UNK        -0.5000 
     42 CA          0.9658  -15.4944  -40.0628 C.3       6 UNK         0.1400 
     43 CB          1.6185  -14.4433  -39.1518 C.3       6 UNK        -0.1800 
     44 N           0.0363  -14.8177  -40.9699 N.am      6 UNK        -0.5000 
     45 C          -0.8751  -15.4365  -41.7324 C.2       5 UNK         0.5000 
     46 O          -1.0709  -16.6507  -41.7027 O.2       5 UNK        -0.5000 
     47 CA         -1.6625  -14.5631  -42.7308 C.3       5 UNK         0.1400 
     48 CB         -3.0084  -14.1333  -42.1304 C.3       5 UNK        -0.1800 
     49 N          -0.9433  -13.3699  -43.1933 N.am      5 UNK        -0.5000 
     50 C           0.2394  -13.3631  -43.8224 C.2       4 UNK         0.5000 
     51 O           0.8884  -14.3864  -44.0398 O.2       4 UNK        -0.5000 
     52 CA          0.7807  -11.9874  -44.2637 C.3       4 UNK         0.1400 
     53 CB          2.1155  -12.0872  -45.0240 C.3       4 UNK        -0.1800 
     54 N          -0.1823  -11.2539  -45.0883 N.am      4 UNK        -0.5000 
     55 C          -1.2074  -10.5279  -44.6219 C.2       3 UNK         0.5000 
     56 O          -1.4801  -10.4331  -43.4243 O.2       3 UNK        -0.5000 
     57 CA         -2.0824   -9.8002  -45.6613 C.3       3 UNK         0.1400 
     58 CB         -1.5343   -8.3906  -45.9309 C.3       3 UNK        -0.1800 
     59 N          -2.2003  -10.5204  -46.9323 N.am      3 UNK        -0.5000 
     60 C          -2.8809  -11.6634  -47.0943 C.2       2 UNK         0.5000 
     61 O          -3.4746  -12.2231  -46.1710 O.2       2 UNK        -0.5000 
     62 CA         -2.9057  -12.2897  -48.5080 C.3       2 UNK         0.1400 
     63 CB         -2.1730  -11.4586  -49.5808 C.3       2 UNK        -0.1800 
     64 N          -2.3065  -13.6197  -48.4621 N.am      2 UNK        -0.5000 
     65 C          -2.9275  -14.7375  -48.0712 C.2       1 UNK         0.5000 
     66 O          -4.1478  -14.8139  -47.8884 O.2       1 UNK        -0.5000 
     67 C          -1.9024  -23.0805  -47.2939 C.2       11 UNK         0.5000 
     68 O          -2.9072  -23.5194  -47.8570 O.2       11 UNK        -0.5000 
     69 N          -1.8715  -22.7147  -46.0033 N.am      12 UNK        -0.5000 
     70 CA         -2.9947  -22.8800  -45.0811 C.3       12 UNK         0.1400 
     71 CB         -2.7985  -22.0044  -43.8337 C.3       12 UNK        -0.1800 
     72 C          -3.2026  -24.3493  -44.6814 C.2       12 UNK         0.5000 
     73 O          -4.3414  -24.8155  -44.6826 O.2       12 UNK        -0.5000 
     74 N          -2.1062  -25.0524  -44.3616 N.am      13 UNK        -0.5000 
     75 CA         -2.1129  -26.4493  -43.9180 C.3       13 UNK         0.1400 
     76 CB         -0.7027  -26.8537  -43.4649 C.3       13 UNK        -0.1800 
     77 C          -2.6429  -27.4276  -44.9823 C.2       13 UNK         0.5000 
     78 O          -3.4198  -28.3233  -44.6493 O.2       13 UNK        -0.5000 
     79 N          -2.2378  -27.2247  -46.2432 N.am      14 UNK        -0.5000 
     80 CA         -2.7159  -27.9930  -47.3941 C.3       14 UNK         0.1400 
     81 CB         -1.6932  -27.8684  -48.5348 C.3       14 UNK        -0.1800 
     82 C          -4.1059  -27.5437  -47.8849 C.2       14 UNK         0.5000 
     83 O          -4.7378  -28.2840  -48.6394 O.2       14 UNK        -0.5000 
     84 N          -4.5351  -26.3365  -47.4811 N.am      15 UNK        -0.5000 
     85 CA         -5.7209  -25.6077  -47.9484 C.3       15 UNK         0.1400 
     86 CB         -7.0161  -26.3046  -47.4842 C.3       15 UNK        -0.1800 
     87 C          -5.6701  -25.3587  -49.4713 C.2       15 UNK         0.5000 
     88 O          -6.6645  -25.5414  -50.1770 O.2       15 UNK        -0.5000 
     89 N          -4.4793  -24.9823  -49.9510 N.am      16 UNK        -0.5000 
     90 CA         -4.1523  -24.8018  -51.3587 C.3       16 UNK         0.1400 
     91 CB         -2.6509  -25.0790  -51.5477 C.3       16 UNK        -0.1800 
     92 C          -4.5470  -23.3862  -51.8009 C.2       16 UNK         0.5000 
     93 O          -3.7154  -22.4802  -51.7615 O.2       16 UNK        -0.5000 
     94 N          -5.8180  -23.2145  -52.1865 N.am      17 UNK        -0.5000 
     95 CA         -6.4372  -21.9320  -52.5372 C.3       17 UNK         0.1400 
     96 CB         -7.9052  -22.1668  -52.9226 C.3       17 UNK        -0.1800 
     97 C          -5.7067  -21.1485  -53.6451 C.2       17 UNK         0.5000 
     98 O          -5.5665  -19.9317  -53.5328 O.2       17 UNK        -0.5000 
     99 N          -5.2206  -21.8577  -54.6729 N.am      18 UNK        -0.5000 
    100 CA        -4.4536  -21.2777  -55.7788 C.3       18 UNK         0.1400 
    101 CB        -4.3353  -22.3103  -56.9095 C.3       18 UNK        -0.1800 
    102 C         -3.0585  -20.7852  -55.3494 C.2       18 UNK         0.5000 
    103 O         -2.5847  -19.7708  -55.8652 O.2       18 UNK        -0.5000 
    104 N         -2.4380  -21.5016  -54.4020 N.am      19 UNK        -0.5000 
    105 CA        -1.1448  -21.1521  -53.8183 C.3       19 UNK         0.1400 
    106 CB        -0.5056  -22.3978  -53.1903 C.3       19 UNK        -0.1800 
    107 C         -1.2837  -20.0158  -52.7926 C.2       19 UNK         0.5000 
    108 O         -0.4492  -19.1167  -52.7840 O.2       19 UNK        -0.5000 
    109 N         -2.3659  -20.0370  -52.0025 N.am      20 UNK        -0.5000 
    110 CA        -2.7602  -18.9823  -51.0661 C.3       20 UNK         0.1400 
    111 CB        -3.9804  -19.4630  -50.2678 C.3       20 UNK        -0.1800 
    112 C         -3.0746  -17.6444  -51.7628 C.2       20 UNK         0.5000 
    113 O         -2.7412  -16.5853  -51.2327 O.2       20 UNK        -0.5000 
    114 N         -3.6899  -17.7222  -52.9512 N.am      21 UNK        -0.5000 
    115 CA        -3.9135  -16.5960  -53.8607 C.3       21 UNK         0.1400 
    116 CB        -5.0249  -16.9753  -54.8521 C.3       21 UNK        -0.1800 
    117 C         -2.6392  -16.1669  -54.6191 C.2       21 UNK         0.5000 
    118 O         -2.6426  -15.1084  -55.2494 O.2       21 UNK        -0.5000 
    119 N         -1.5841  -16.9874  -54.5448 N.am      22 UNK        -0.5000 
    120 CA        -0.2585  -16.7904  -55.1476 C.3       22 UNK         0.1400 
    121 C         -0.2690  -16.8342  -56.7033 C.2       22 UNK         0.5000 
    122 N         -1.1150  -17.6565  -57.3139 N.am      22 UNK        -0.7600 
    123 O          0.4993  -16.1418  -57.3662 O.2       22 UNK        -0.5000 
    124 C124        0.5167  -15.5805  -54.5496 C.3       23 UNK        -0.0398 
    125 S125        0.5508  -15.5931  -52.7207 S.3       23 UNK        -0.2404 
    126 C126        1.9711  -16.6862  -52.3873 C.3       23 UNK        -0.0205 
    127 H127       -3.7214  -19.3025  -45.6910 H         1 UNK         0.0600 
    128 H128       -3.5134  -20.2887  -47.1419 H         1 UNK         0.0600 
    129 H129       -4.6719  -18.9573  -47.1374 H         1 UNK         0.0600 
    130 H130       -3.8602  -16.7244  -47.2005 H         1 UNK         0.3000 
    131 H131       -1.5839  -16.2672  -48.7620 H         1 UNK         0.0600 
    132 H132       -0.4976  -16.6031  -46.3867 H         1 UNK         0.0800 
    133 H133       -1.2994  -15.1439  -45.9147 H         1 UNK         0.0800 
    134 H134        2.8122  -15.3235  -47.3851 H         1 UNK         0.0800 
    135 H135        1.8517  -16.4194  -46.4323 H         1 UNK         0.0800 
    136 H136        1.8634  -15.2957  -50.0395 H         1 UNK         0.1150 
    137 H137        2.1090  -19.2896  -51.5700 H         1 UNK         0.1150 
    138 H138        2.0245  -18.6240  -47.3427 H         1 UNK         0.1150 
    139 H139        3.2175  -20.9036  -49.6133 H         1 UNK         0.0800 
    140 H140        2.3132  -20.8407  -48.1276 H         1 UNK         0.0800 
    141 H141       -1.2828  -21.2957  -49.2421 H         1 UNK         0.0800 
    142 H142       -0.1630  -20.8615  -47.9751 H         1 UNK         0.0800 
    143 H143       -0.6538  -23.7392  -48.8784 H         1 UNK         0.0600 
    144 H144        1.1752  -22.6594  -46.9213 H         1 UNK         0.3000 
    145 H145        1.7964  -25.7715  -45.2889 H         1 UNK         0.0600 
    146 H146        4.0850  -25.5115  -46.1846 H         1 UNK         0.0600 
    147 H147        3.0098  -26.0804  -47.4511 H         1 UNK         0.0600 
    148 H148        3.5081  -24.3931  -47.4216 H         1 UNK         0.0600 
    149 H149        3.2636  -23.3898  -45.1511 H         1 UNK         0.3000 
    150 H150        1.9768  -22.3635  -42.2076 H         1 UNK         0.0600 
    151 H151        4.2177  -22.7974  -43.2537 H         1 UNK         0.0600 
    152 H152        4.0297  -21.1231  -42.7733 H         1 UNK         0.0600 
    153 H153        3.8895  -21.5569  -44.4691 H         1 UNK         0.0600 
    154 H154        1.2806  -20.2760  -42.6490 H         1 UNK         0.3000 
    155 H155        0.6152  -18.4420  -45.6116 H         1 UNK         0.0600 
    156 H156       -1.0185  -19.1493  -43.1227 H         1 UNK         0.0600 
    157 H157       -1.4890  -19.4678  -44.7881 H         1 UNK         0.0600 
    158 H158       -1.3193  -17.8118  -44.2360 H         1 UNK         0.0600 
    159 H159        0.8543  -17.4901  -42.9908 H         1 UNK         0.3000 
    160 H160        4.0127  -17.2295  -42.2976 H         1 UNK         0.0600 
    161 H161        3.4514  -15.0667  -44.3936 H         1 UNK         0.0600 
    162 H162        4.9116  -16.0322  -44.2413 H         1 UNK         0.0600 
    163 H163        4.5120  -14.8565  -43.0004 H         1 UNK         0.0600 
    164 H164        1.7582  -15.2963  -42.5277 H         1 UNK         0.3000 
    165 H165        0.3922  -16.1813  -39.4368 H         1 UNK         0.0600 
    166 H166        0.8691  -13.8986  -38.5771 H         1 UNK         0.0600 
    167 H167        2.2963  -14.9118  -38.4369 H         1 UNK         0.0600 
    168 H168        2.1967  -13.7175  -39.7252 H         1 UNK         0.0600 
    169 H169        0.1330  -13.8169  -41.0576 H         1 UNK         0.3000 
    170 H170       -1.8652  -15.1834  -43.6053 H         1 UNK         0.0600 
    171 H171       -3.5840  -14.9988  -41.7991 H         1 UNK         0.0600 
    172 H172       -2.8731  -13.4779  -41.2691 H         1 UNK         0.0600 
    173 H173       -3.6150  -13.6026  -42.8648 H         1 UNK         0.0600 
    174 H174       -1.4030  -12.4764  -43.0566 H         1 UNK         0.3000 
    175 H175        0.9708  -11.4172  -43.3520 H         1 UNK         0.0600 
    176 H176        2.0139  -12.6525  -45.9502 H         1 UNK         0.0600 
    177 H177        2.4998  -11.0988  -45.2760 H         1 UNK         0.0600 
    178 H178        2.8751  -12.5828  -44.4183 H         1 UNK         0.0600 
    179 H179       -0.0559  -11.3159  -46.0876 H         1 UNK         0.3000 
    180 H180       -3.0824   -9.6978  -45.2341 H         1 UNK         0.0600 
    181 H181       -2.1893   -7.8340  -46.6015 H         1 UNK         0.0600 
    182 H182       -0.5410   -8.4230  -46.3806 H         1 UNK         0.0600 
    183 H183       -1.4570   -7.8181  -45.0055 H         1 UNK         0.0600 
    184 H184       -1.7408  -10.1097  -47.7322 H         1 UNK         0.3000 
    185 H185       -3.9529  -12.3725  -48.8062 H         1 UNK         0.0600 
    186 H186       -2.2543  -11.9338  -50.5589 H         1 UNK         0.0600 
    187 H187       -2.6072  -10.4625  -49.6765 H         1 UNK         0.0600 
    188 H188       -1.1106  -11.3469  -49.3598 H         1 UNK         0.0600 
    189 H189       -1.2999  -13.6556  -48.5567 H         1 UNK         0.3000 
    190 H190       -0.9898  -22.4197  -45.6064 H         1 UNK         0.3000 
    191 H191       -3.9069  -22.5464  -45.5810 H         1 UNK         0.0600 
    192 H192       -3.5134  -22.2657  -43.0522 H         1 UNK         0.0600 
    193 H193       -2.9645  -20.9551  -44.0650 H         1 UNK         0.0600 
    194 H194       -1.7990  -22.1089  -43.4109 H         1 UNK         0.0600 
    195 H195       -1.2091  -24.5746  -44.3419 H         1 UNK         0.3000 
    196 H196       -2.7754  -26.5131  -43.0524 H         1 UNK         0.0600 
    197 H197        0.0045  -26.8313  -44.2929 H         1 UNK         0.0600 
    198 H198       -0.3304  -26.1890  -42.6851 H         1 UNK         0.0600 
    199 H199       -0.6994  -27.8662  -43.0594 H         1 UNK         0.0600 
    200 H200       -1.5482  -26.5022  -46.4366 H         1 UNK         0.3000 
    201 H201       -2.7862  -29.0459  -47.1133 H         1 UNK         0.0600 
    202 H202       -1.6005  -26.8375  -48.8793 H         1 UNK         0.0600 
    203 H203       -1.9861  -28.4751  -49.3926 H         1 UNK         0.0600 
    204 H204       -0.7059  -28.2062  -48.2193 H         1 UNK         0.0600 
    205 H205       -3.9416  -25.8235  -46.8438 H         1 UNK         0.3000 
    206 H206       -5.6843  -24.6257  -47.4744 H         1 UNK         0.0600 
    207 H207       -7.0151  -26.4544  -46.4045 H         1 UNK         0.0600 
    208 H208       -7.8914  -25.7013  -47.7276 H         1 UNK         0.0600 
    209 H209       -7.1480  -27.2775  -47.9583 H         1 UNK         0.0600 
    210 H210       -3.7543  -24.7412  -49.2837 H         1 UNK         0.3000 
    211 H211       -4.7056  -25.5231  -51.9639 H         1 UNK         0.0600 
    212 H212       -2.3498  -24.9163  -52.5832 H         1 UNK         0.0600 
    213 H213       -2.4097  -26.1124  -51.2983 H         1 UNK         0.0600 
    214 H214       -2.0376  -24.4343  -50.9171 H         1 UNK         0.0600 
    215 H215       -6.4382  -24.0116  -52.1370 H         1 UNK         0.3000 
    216 H216       -6.4228  -21.3137  -51.6382 H         1 UNK         0.0600 
    217 H217       -7.9944  -22.8216  -53.7902 H         1 UNK         0.0600 
    218 H218       -8.4005  -21.2263  -53.1680 H         1 UNK         0.0600 
    219 H219       -8.4610  -22.6199  -52.1013 H         1 UNK         0.0600 
    220 H220       -5.3762  -22.8550  -54.6912 H         1 UNK         0.3000 
    221 H221       -5.0046  -20.4158  -56.1615 H         1 UNK         0.0600 
    222 H222       -5.3179  -22.6085  -57.2756 H         1 UNK         0.0600 
    223 H223       -3.8109  -23.2090  -56.5824 H         1 UNK         0.0600 
    224 H224       -3.7851  -21.8991  -57.7570 H         1 UNK         0.0600 
    225 H225       -2.9279  -22.2780  -53.9816 H         1 UNK         0.3000 
    226 H226       -0.4869  -20.8068  -54.6190 H         1 UNK         0.0600 
    227 H227       -1.0422  -22.7207  -52.2988 H         1 UNK         0.0600 
    228 H228       -0.4802  -23.2312  -53.8922 H         1 UNK         0.0600 
    229 H229        0.5234  -22.1917  -52.8948 H         1 UNK         0.0600 
    230 H230       -2.9652  -20.8594  -52.0333 H         1 UNK         0.3000 
    231 H231       -1.9299  -18.8150  -50.3764 H         1 UNK         0.0600 
    232 H232       -4.8096  -19.7236  -50.9235 H         1 UNK         0.0600 
    233 H233       -4.3398  -18.6851  -49.5948 H         1 UNK         0.0600 
    234 H234       -3.7398  -20.3414  -49.6687 H         1 UNK         0.0600 
    235 H235       -4.0201  -18.6276  -53.2684 H         1 UNK         0.3000 
    236 H236       -4.2527  -15.7382  -53.2767 H         1 UNK         0.0600 
    237 H237       -5.9496  -17.2248  -54.3314 H         1 UNK         0.0600 
    238 H238       -5.2465  -16.1496  -55.5293 H         1 UNK         0.0600 
    239 H239       -4.7413  -17.8339  -55.4618 H         1 UNK         0.0600 
    240 H240       -1.6638  -17.8151  -53.9698 H         1 UNK         0.3000 
    241 H241        0.3094  -17.6791  -54.8746 H         1 UNK         0.0600 
    242 H242       -1.1297  -17.6983  -58.3203 H         1 UNK         0.3800 
    243 H243       -1.7129  -18.2774  -56.7747 H         1 UNK         0.3800 
    244 H244        0.0601  -14.6442  -54.8731 H         1 UNK         0.0800 
    245 H245        1.5431  -15.5606  -54.9194 H         1 UNK         0.0800 
    246 H246        2.8978  -16.1372  -52.5585 H         1 UNK         0.0800 
    247 H247        1.9592  -17.5112  -53.1007 H         1 UNK         0.0800 
@<TRIPOS>BOND
     1    1    2 1    
     2    1  127 1    
     3    1  128 1    
     4    1  129 1    
     5    2    3 2    
     6    2    4 am   BACKBONE|DICT|INTERRES
     7    4    5 1    
     8    4  130 1    
     9    5    6 1    
    10    5   65 1    
    11    5  131 1    
    12    6    7 1    
    13    6  132 1    
    14    6  133 1    
    15    7    8 1    
    16    8    9 1    
    17    8  134 1    
    18    8  135 1    
    19    9   10 ar   
    20    9   14 ar   
    21   10   11 ar   
    22   10  136 1    
    23   11   12 ar   
    24   11  126 1    
    25   12   13 ar   
    26   12  137 1    
    27   13   14 ar   
    28   13   15 1    
    29   14  138 1    
    30   15   16 1    
    31   15  139 1    
    32   15  140 1    
    33   16   17 1    
    34   17   18 1    
    35   17  141 1    
    36   17  142 1    
    37   18   19 1    
    38   18   67 1    
    39   18  143 1    
    40   19   20 am   BACKBONE|DICT|INTERRES
    41   19  144 1    
    42   20   21 2    
    43   20   22 1    
    44   22   23 1    
    45   22   24 1    
    46   22  145 1    
    47   23  146 1    
    48   23  147 1    
    49   23  148 1    
    50   24   25 am   BACKBONE|DICT|INTERRES
    51   24  149 1    
    52   25   26 2    
    53   25   27 1    
    54   27   28 1    
    55   27   29 1    
    56   27  150 1    
    57   28  151 1    
    58   28  152 1    
    59   28  153 1    
    60   29   30 am   BACKBONE|DICT|INTERRES
    61   29  154 1    
    62   30   31 2    
    63   30   32 1    
    64   32   33 1    
    65   32   34 1    
    66   32  155 1    
    67   33  156 1    
    68   33  157 1    
    69   33  158 1    
    70   34   35 am   BACKBONE|DICT|INTERRES
    71   34  159 1    
    72   35   36 2    
    73   35   37 1    
    74   37   38 1    
    75   37   39 1    
    76   37  160 1    
    77   38  161 1    
    78   38  162 1    
    79   38  163 1    
    80   39   40 am   BACKBONE|DICT|INTERRES
    81   39  164 1    
    82   40   41 2    
    83   40   42 1    
    84   42   43 1    
    85   42   44 1    
    86   42  165 1    
    87   43  166 1    
    88   43  167 1    
    89   43  168 1    
    90   44   45 am   BACKBONE|DICT|INTERRES
    91   44  169 1    
    92   45   46 2    
    93   45   47 1    
    94   47   48 1    
    95   47   49 1    
    96   47  170 1    
    97   48  171 1    
    98   48  172 1    
    99   48  173 1    
   100   49   50 am   BACKBONE|DICT|INTERRES
   101   49  174 1    
   102   50   51 2    
   103   50   52 1    
   104   52   53 1    
   105   52   54 1    
   106   52  175 1    
   107   53  176 1    
   108   53  177 1    
   109   53  178 1    
   110   54   55 am   BACKBONE|DICT|INTERRES
   111   54  179 1    
   112   55   56 2    
   113   55   57 1    
   114   57   58 1    
   115   57   59 1    
   116   57  180 1    
   117   58  181 1    
   118   58  182 1    
   119   58  183 1    
   120   59   60 am   BACKBONE|DICT|INTERRES
   121   59  184 1    
   122   60   61 2    
   123   60   62 1    
   124   62   63 1    
   125   62   64 1    
   126   62  185 1    
   127   63  186 1    
   128   63  187 1    
   129   63  188 1    
   130   64   65 am   BACKBONE|DICT|INTERRES
   131   64  189 1    
   132   65   66 2    
   133   67   68 2    
   134   67   69 am   BACKBONE|DICT|INTERRES
   135   69   70 1    
   136   69  190 1    
   137   70   71 1    
   138   70   72 1    
   139   70  191 1    
   140   71  192 1    
   141   71  193 1    
   142   71  194 1    
   143   72   73 2    
   144   72   74 am   BACKBONE|DICT|INTERRES
   145   74   75 1    
   146   74  195 1    
   147   75   76 1    
   148   75   77 1    
   149   75  196 1    
   150   76  197 1    
   151   76  198 1    
   152   76  199 1    
   153   77   78 2    
   154   77   79 am   BACKBONE|DICT|INTERRES
   155   79   80 1    
   156   79  200 1    
   157   80   81 1    
   158   80   82 1    
   159   80  201 1    
   160   81  202 1    
   161   81  203 1    
   162   81  204 1    
   163   82   83 2    
   164   82   84 am   BACKBONE|DICT|INTERRES
   165   84   85 1    
   166   84  205 1    
   167   85   86 1    
   168   85   87 1    
   169   85  206 1    
   170   86  207 1    
   171   86  208 1    
   172   86  209 1    
   173   87   88 2    
   174   87   89 am   BACKBONE|DICT|INTERRES
   175   89   90 1    
   176   89  210 1    
   177   90   91 1    
   178   90   92 1    
   179   90  211 1    
   180   91  212 1    
   181   91  213 1    
   182   91  214 1    
   183   92   93 2    
   184   92   94 am   BACKBONE|DICT|INTERRES
   185   94   95 1    
   186   94  215 1    
   187   95   96 1    
   188   95   97 1    
   189   95  216 1    
   190   96  217 1    
   191   96  218 1    
   192   96  219 1    
   193   97   98 2    
   194   97   99 am   BACKBONE|DICT|INTERRES
   195   99  100 1    
   196   99  220 1    
   197  100  101 1    
   198  100  102 1    
   199  100  221 1    
   200  101  222 1    
   201  101  223 1    
   202  101  224 1    
   203  102  103 2    
   204  102  104 am   BACKBONE|DICT|INTERRES
   205  104  105 1    
   206  104  225 1    
   207  105  106 1    
   208  105  107 1    
   209  105  226 1    
   210  106  227 1    
   211  106  228 1    
   212  106  229 1    
   213  107  108 2    
   214  107  109 am   BACKBONE|DICT|INTERRES
   215  109  110 1    
   216  109  230 1    
   217  110  111 1    
   218  110  112 1    
   219  110  231 1    
   220  111  232 1    
   221  111  233 1    
   222  111  234 1    
   223  112  113 2    
   224  112  114 am   BACKBONE|DICT|INTERRES
   225  114  115 1    
   226  114  235 1    
   227  115  116 1    
   228  115  117 1    
   229  115  236 1    
   230  116  237 1    
   231  116  238 1    
   232  116  239 1    
   233  117  118 2    
   234  117  119 am   BACKBONE|DICT|INTERRES
   235  119  120 1    
   236  119  240 1    
   237  120  121 1    
   238  120  124 1    
   239  120  241 1    
   240  121  122 am   BACKBONE|DICT|INTERRES
   241  121  123 2    
   242  122  242 1    
   243  122  243 1    
   244  124  125 1    
   245  124  244 1    
   246  124  245 1    
   247  125  126 1    
   248  126  246 1    
   249  126  247 1    
@<TRIPOS>SUBSTRUCTURE
     1 UNK         1 GROUP             0       ****    0 ROOT    
