@<TRIPOS>MOLECULE
3R540
247   249    1
SMALL
USER_CHARGES


@<TRIPOS>ATOM
      1 CA          4.1071  -19.4247  -49.5497 C.3       0 UNK        -0.1800 
      2 C           3.6127  -18.1276  -48.9279 C.2       0 UNK         0.5000 
      3 O           2.9975  -18.1515  -47.8642 O.2       0 UNK        -0.5000 
      4 N           3.8986  -16.9917  -49.5740 N.am      1 UNK        -0.5000 
      5 CA          3.4446  -15.6449  -49.1962 C.3       1 UNK         0.1400 
      6 C6          3.3567  -14.7020  -50.4265 C.3       23 UNK        -0.0398 
      7 S7          2.3672  -15.3629  -51.8132 S.3       23 UNK        -0.2404 
      8 C8          0.8383  -14.3802  -51.7048 C.3       23 UNK        -0.0205 
      9 C9         -0.2447  -15.1121  -50.9288 C.ar      23 UNK        -0.0193 
     10 C10        -1.1637  -15.9123  -51.6124 C.ar      23 UNK        -0.1150 
     11 C11        -2.1840  -16.5688  -50.9219 C.ar      23 UNK        -0.0193 
     12 C12        -2.2806  -16.4257  -49.5363 C.ar      23 UNK        -0.1150 
     13 C13        -1.3538  -15.6472  -48.8350 C.ar      23 UNK        -0.0193 
     14 C14        -0.3428  -14.9840  -49.5397 C.ar      23 UNK        -0.1150 
     15 C15        -1.4418  -15.5168  -47.3185 C.3       23 UNK        -0.0205 
     16 S16        -1.6213  -17.1202  -46.4656 S.3       23 UNK        -0.2404 
     17 C17        -0.0700  -17.9589  -46.9470 C.3       23 UNK        -0.0398 
     18 CA         -0.1145  -19.4971  -46.7870 C.3       11 UNK         0.1400 
     19 N          -0.4168  -19.8942  -45.4070 N.am      11 UNK        -0.5000 
     20 C          -0.4089  -21.1496  -44.9378 C.2       10 UNK         0.5000 
     21 O          -0.1105  -22.1230  -45.6273 O.2       10 UNK        -0.5000 
     22 CA         -0.8299  -21.3674  -43.4744 C.3       10 UNK         0.1400 
     23 CB          0.3868  -21.7419  -42.6157 C.3       10 UNK        -0.1800 
     24 N          -1.4634  -20.1839  -42.9000 N.am      10 UNK        -0.5000 
     25 C          -2.7490  -19.8321  -43.0249 C.2       9 UNK         0.5000 
     26 O          -3.5794  -20.5035  -43.6388 O.2       9 UNK        -0.5000 
     27 CA         -3.1500  -18.4862  -42.3762 C.3       9 UNK         0.1400 
     28 CB         -4.6276  -18.4437  -41.9368 C.3       9 UNK        -0.1800 
     29 N          -2.2485  -18.0896  -41.2848 N.am      9 UNK        -0.5000 
     30 C          -2.0530  -18.7147  -40.1132 C.2       8 UNK         0.5000 
     31 O          -2.7373  -19.6570  -39.7132 O.2       8 UNK        -0.5000 
     32 CA         -0.8526  -18.2510  -39.2629 C.3       8 UNK         0.1400 
     33 CB          0.2857  -19.2796  -39.3616 C.3       8 UNK        -0.1800 
     34 N          -0.3276  -16.9391  -39.6481 N.am      8 UNK        -0.5000 
     35 C          -0.9023  -15.7692  -39.3387 C.2       7 UNK         0.5000 
     36 O          -1.9302  -15.6683  -38.6679 O.2       7 UNK        -0.5000 
     37 CA         -0.2270  -14.4995  -39.8914 C.3       7 UNK         0.1400 
     38 CB          0.9424  -14.0706  -38.9924 C.3       7 UNK        -0.1800 
     39 N           0.2465  -14.6571  -41.2684 N.am      7 UNK        -0.5000 
     40 C          -0.5508  -14.8524  -42.3288 C.2       6 UNK         0.5000 
     41 O          -1.7792  -14.8969  -42.2633 O.2       6 UNK        -0.5000 
     42 CA          0.1389  -15.0831  -43.6841 C.3       6 UNK         0.1400 
     43 CB          0.5880  -13.7566  -44.3145 C.3       6 UNK        -0.1800 
     44 N           1.2791  -15.9914  -43.5850 N.am      6 UNK        -0.5000 
     45 C           1.2008  -17.2833  -43.2429 C.2       5 UNK         0.5000 
     46 O           0.1424  -17.8732  -43.0377 O.2       5 UNK        -0.5000 
     47 CA          2.5260  -18.0379  -43.0560 C.3       5 UNK         0.1400 
     48 CB          3.0576  -18.5606  -44.3982 C.3       5 UNK        -0.1800 
     49 N           3.5390  -17.2125  -42.4001 N.am      5 UNK        -0.5000 
     50 C           3.4720  -16.8137  -41.1215 C.2       4 UNK         0.5000 
     51 O           2.5596  -17.1226  -40.3553 O.2       4 UNK        -0.5000 
     52 CA          4.5913  -15.8776  -40.6326 C.3       4 UNK         0.1400 
     53 CB          5.8363  -16.6827  -40.2316 C.3       4 UNK        -0.1800 
     54 N           4.9593  -14.8797  -41.6377 N.am      4 UNK        -0.5000 
     55 C           4.1556  -13.8861  -42.0419 C.2       3 UNK         0.5000 
     56 O           3.0321  -13.6839  -41.5815 O.2       3 UNK        -0.5000 
     57 CA          4.6777  -13.0059  -43.1928 C.3       3 UNK         0.1400 
     58 CB          5.6005  -11.9018  -42.6557 C.3       3 UNK        -0.1800 
     59 N           5.3775  -13.7650  -44.2357 N.am      3 UNK        -0.5000 
     60 C           4.8109  -14.7255  -44.9777 C.2       2 UNK         0.5000 
     61 O           3.6537  -15.1151  -44.8163 O.2       2 UNK        -0.5000 
     62 CA          5.6921  -15.3937  -46.0474 C.3       2 UNK         0.1400 
     63 CB          6.4245  -16.6083  -45.4568 C.3       2 UNK        -0.1800 
     64 N           4.8985  -15.8310  -47.1967 N.am      2 UNK        -0.5000 
     65 C           4.3024  -15.0093  -48.0707 C.2       1 UNK         0.5000 
     66 O           4.4328  -13.7842  -48.0231 O.2       1 UNK        -0.5000 
     67 C          -1.0415  -20.1689  -47.8293 C.2       11 UNK         0.5000 
     68 O          -0.5916  -20.4910  -48.9280 O.2       11 UNK        -0.5000 
     69 N          -2.2992  -20.4327  -47.4446 N.am      12 UNK        -0.5000 
     70 CA         -3.2745  -21.1753  -48.2426 C.3       12 UNK         0.1400 
     71 CB         -4.6685  -20.9969  -47.6256 C.3       12 UNK        -0.1800 
     72 C          -2.9308  -22.6718  -48.3781 C.2       12 UNK         0.5000 
     73 O          -3.1997  -23.2576  -49.4270 O.2       12 UNK        -0.5000 
     74 N          -2.3289  -23.2559  -47.3326 N.am      13 UNK        -0.5000 
     75 CA         -1.8513  -24.6399  -47.3192 C.3       13 UNK         0.1400 
     76 CB         -1.7484  -25.1387  -45.8698 C.3       13 UNK        -0.1800 
     77 C          -0.5048  -24.7828  -48.0495 C.2       13 UNK         0.5000 
     78 O          -0.2708  -25.8049  -48.6936 O.2       13 UNK        -0.5000 
     79 N           0.3383  -23.7409  -47.9863 N.am      14 UNK        -0.5000 
     80 CA          1.5610  -23.6095  -48.7845 C.3       14 UNK         0.1400 
     81 CB          2.3740  -22.4049  -48.2899 C.3       14 UNK        -0.1800 
     82 C           1.2580  -23.4969  -50.2934 C.2       14 UNK         0.5000 
     83 O           2.0068  -24.0340  -51.1087 O.2       14 UNK        -0.5000 
     84 N           0.1180  -22.8760  -50.6272 N.am      15 UNK        -0.5000 
     85 CA         -0.4994  -22.8445  -51.9551 C.3       15 UNK         0.1400 
     86 CB         -1.3106  -21.5428  -52.0865 C.3       15 UNK        -0.1800 
     87 C          -1.3655  -24.0956  -52.2443 C.2       15 UNK         0.5000 
     88 O          -2.2920  -24.0190  -53.0550 O.2       15 UNK        -0.5000 
     89 N          -1.0688  -25.2169  -51.5699 N.am      16 UNK        -0.5000 
     90 CA         -1.6937  -26.5437  -51.6216 C.3       16 UNK         0.1400 
     91 CB         -1.6054  -27.1569  -53.0331 C.3       16 UNK        -0.1800 
     92 C          -3.1319  -26.5765  -51.0751 C.2       16 UNK         0.5000 
     93 O          -3.4089  -27.2993  -50.1172 O.2       16 UNK        -0.5000 
     94 N          -4.0135  -25.7952  -51.6983 N.am      17 UNK        -0.5000 
     95 CA         -5.4251  -25.6457  -51.3715 C.3       17 UNK         0.1400 
     96 CB         -6.2338  -26.8251  -51.9474 C.3       17 UNK        -0.1800 
     97 C          -5.8855  -24.2787  -51.8948 C.2       17 UNK         0.5000 
     98 O          -6.8037  -24.2000  -52.7142 O.2       17 UNK        -0.5000 
     99 N          -5.1806  -23.2240  -51.4569 N.am      18 UNK        -0.5000 
    100 CA        -5.3794  -21.8179  -51.8244 C.3       18 UNK         0.1400 
    101 CB        -6.7077  -21.3023  -51.2297 C.3       18 UNK        -0.1800 
    102 C         -5.2781  -21.5762  -53.3457 C.2       18 UNK         0.5000 
    103 O         -6.0346  -20.7726  -53.8919 O.2       18 UNK        -0.5000 
    104 N         -4.4020  -22.3300  -54.0282 N.am      19 UNK        -0.5000 
    105 CA        -4.1881  -22.3567  -55.4833 C.3       19 UNK         0.1400 
    106 CB        -3.5207  -21.0406  -55.9340 C.3       19 UNK        -0.1800 
    107 C         -5.4506  -22.6696  -56.3261 C.2       19 UNK         0.5000 
    108 O         -5.4229  -22.4836  -57.5435 O.2       19 UNK        -0.5000 
    109 N         -6.5398  -23.0978  -55.6665 N.am      20 UNK        -0.5000 
    110 CA        -7.9112  -23.2116  -56.1708 C.3       20 UNK         0.1400 
    111 CB        -8.0192  -24.3656  -57.1890 C.3       20 UNK        -0.1800 
    112 C         -8.4919  -21.8783  -56.7065 C.2       20 UNK         0.5000 
    113 O         -9.3760  -21.9092  -57.5653 O.2       20 UNK        -0.5000 
    114 N         -7.9947  -20.7328  -56.2105 N.am      21 UNK        -0.5000 
    115 CA        -8.3436  -19.4005  -56.7222 C.3       21 UNK         0.1400 
    116 CB        -7.5725  -19.1316  -58.0291 C.3       21 UNK        -0.1800 
    117 C         -8.1063  -18.2519  -55.7230 C.2       21 UNK         0.5000 
    118 O         -8.7069  -17.1888  -55.8859 O.2       21 UNK        -0.5000 
    119 N         -7.2380  -18.4551  -54.7259 N.am      22 UNK        -0.5000 
    120 CA        -6.8612  -17.4635  -53.7052 C.3       22 UNK         0.1400 
    121 C         -7.9344  -17.2563  -52.5936 C.2       22 UNK         0.5000 
    122 N         -8.9022  -18.1516  -52.4333 N.am      22 UNK        -0.7600 
    123 O         -7.9043  -16.2595  -51.8778 O.2       22 UNK        -0.5000 
    124 C124       -5.4774  -17.8370  -53.1129 C.3       23 UNK        -0.0398 
    125 S125       -4.5380  -16.4702  -52.3692 S.3       23 UNK        -0.2404 
    126 C126       -3.1699  -17.4456  -51.6711 C.3       23 UNK        -0.0205 
    127 H127        4.5947  -20.0422  -48.7954 H         1 UNK         0.0600 
    128 H128        3.2669  -19.9831  -49.9619 H         1 UNK         0.0600 
    129 H129        4.8217  -19.2415  -50.3523 H         1 UNK         0.0600 
    130 H130        4.4255  -17.0382  -50.4343 H         1 UNK         0.3000 
    131 H131        2.4370  -15.7372  -48.7864 H         1 UNK         0.0600 
    132 H132        4.3574  -14.4999  -50.8124 H         1 UNK         0.0800 
    133 H133        2.9532  -13.7313  -50.1353 H         1 UNK         0.0800 
    134 H134        0.4882  -14.1804  -52.7187 H         1 UNK         0.0800 
    135 H135        1.0282  -13.4012  -51.2634 H         1 UNK         0.0800 
    136 H136       -1.0896  -16.0201  -52.6856 H         1 UNK         0.1150 
    137 H137       -3.0698  -16.9335  -48.9998 H         1 UNK         0.1150 
    138 H138        0.3689  -14.3670  -49.0097 H         1 UNK         0.1150 
    139 H139       -0.5596  -15.0108  -46.9243 H         1 UNK         0.0800 
    140 H140       -2.2974  -14.8880  -47.0698 H         1 UNK         0.0800 
    141 H141        0.7350  -17.5501  -46.3352 H         1 UNK         0.0800 
    142 H142        0.1902  -17.7036  -47.9755 H         1 UNK         0.0800 
    143 H143        0.8921  -19.8644  -46.9949 H         1 UNK         0.0600 
    144 H144       -0.6545  -19.1458  -44.7690 H         1 UNK         0.3000 
    145 H145       -1.5377  -22.1986  -43.4523 H         1 UNK         0.0600 
    146 H146        0.0974  -21.9246  -41.5805 H         1 UNK         0.0600 
    147 H147        0.8610  -22.6518  -42.9860 H         1 UNK         0.0600 
    148 H148        1.1403  -20.9546  -42.6194 H         1 UNK         0.0600 
    149 H149       -0.8418  -19.5003  -42.4817 H         1 UNK         0.3000 
    150 H150       -3.0186  -17.7320  -43.1537 H         1 UNK         0.0600 
    151 H151       -5.2916  -18.5685  -42.7928 H         1 UNK         0.0600 
    152 H152       -4.8731  -17.4882  -41.4733 H         1 UNK         0.0600 
    153 H153       -4.8647  -19.2346  -41.2250 H         1 UNK         0.0600 
    154 H154       -1.6062  -17.3432  -41.5176 H         1 UNK         0.3000 
    155 H155       -1.1831  -18.2051  -38.2232 H         1 UNK         0.0600 
    156 H156        0.6697  -19.3562  -40.3796 H         1 UNK         0.0600 
    157 H157       -0.0522  -20.2725  -39.0620 H         1 UNK         0.0600 
    158 H158        1.1176  -19.0102  -38.7107 H         1 UNK         0.0600 
    159 H159        0.5577  -16.9331  -40.1455 H         1 UNK         0.3000 
    160 H160       -0.9703  -13.6997  -39.8840 H         1 UNK         0.0600 
    161 H161        1.3698  -13.1252  -39.3271 H         1 UNK         0.0600 
    162 H162        1.7400  -14.8140  -38.9865 H         1 UNK         0.0600 
    163 H163        0.6135  -13.9321  -37.9617 H         1 UNK         0.0600 
    164 H164        1.2483  -14.5816  -41.4161 H         1 UNK         0.3000 
    165 H165       -0.5950  -15.5402  -44.3463 H         1 UNK         0.0600 
    166 H166        1.0381  -13.9182  -45.2941 H         1 UNK         0.0600 
    167 H167       -0.2589  -13.0831  -44.4505 H         1 UNK         0.0600 
    168 H168        1.3213  -13.2427  -43.6931 H         1 UNK         0.0600 
    169 H169        2.1912  -15.6056  -43.8196 H         1 UNK         0.3000 
    170 H170        2.3307  -18.8974  -42.4125 H         1 UNK         0.0600 
    171 H171        2.3439  -19.2419  -44.8616 H         1 UNK         0.0600 
    172 H172        3.2392  -17.7518  -45.1060 H         1 UNK         0.0600 
    173 H173        3.9893  -19.1109  -44.2682 H         1 UNK         0.0600 
    174 H174        4.2897  -16.8668  -42.9777 H         1 UNK         0.3000 
    175 H175        4.2244  -15.3526  -39.7481 H         1 UNK         0.0600 
    176 H176        6.6070  -16.0344  -39.8143 H         1 UNK         0.0600 
    177 H177        5.5914  -17.4256  -39.4712 H         1 UNK         0.0600 
    178 H178        6.2671  -17.2128  -41.0819 H         1 UNK         0.0600 
    179 H179        5.8663  -14.9742  -42.0700 H         1 UNK         0.3000 
    180 H180        3.8123  -12.5283  -43.6569 H         1 UNK         0.0600 
    181 H181        6.5072  -12.3135  -42.2107 H         1 UNK         0.0600 
    182 H182        5.0970  -11.3115  -41.8887 H         1 UNK         0.0600 
    183 H183        5.8971  -11.2152  -43.4488 H         1 UNK         0.0600 
    184 H184        6.3364  -13.5044  -44.4160 H         1 UNK         0.3000 
    185 H185        6.4334  -14.6711  -46.3948 H         1 UNK         0.0600 
    186 H186        5.7282  -17.3728  -45.1119 H         1 UNK         0.0600 
    187 H187        7.0835  -17.0665  -46.1946 H         1 UNK         0.0600 
    188 H188        7.0432  -16.3193  -44.6063 H         1 UNK         0.0600 
    189 H189        4.6748  -16.8153  -47.2543 H         1 UNK         0.3000 
    190 H190       -2.5938  -20.1316  -46.5266 H         1 UNK         0.3000 
    191 H191       -3.2890  -20.7465  -49.2465 H         1 UNK         0.0600 
    192 H192       -4.9727  -19.9501  -47.6369 H         1 UNK         0.0600 
    193 H193       -4.6987  -21.3442  -46.5919 H         1 UNK         0.0600 
    194 H194       -5.4186  -21.5599  -48.1816 H         1 UNK         0.0600 
    195 H195       -2.0852  -22.6906  -46.5316 H         1 UNK         0.3000 
    196 H196       -2.5793  -25.2666  -47.8396 H         1 UNK         0.0600 
    197 H197       -1.4499  -26.1874  -45.8421 H         1 UNK         0.0600 
    198 H198       -2.7072  -25.0606  -45.3571 H         1 UNK         0.0600 
    199 H199       -1.0132  -24.5761  -45.2944 H         1 UNK         0.0600 
    200 H200        0.1159  -22.9798  -47.3521 H         1 UNK         0.3000 
    201 H201        2.1589  -24.5098  -48.6292 H         1 UNK         0.0600 
    202 H202        2.5681  -22.4686  -47.2190 H         1 UNK         0.0600 
    203 H203        1.8598  -21.4641  -48.4821 H         1 UNK         0.0600 
    204 H204        3.3395  -22.3586  -48.7944 H         1 UNK         0.0600 
    205 H205       -0.3962  -22.4073  -49.8911 H         1 UNK         0.3000 
    206 H206        0.2886  -22.8241  -52.7102 H         1 UNK         0.0600 
    207 H207       -0.6883  -20.6693  -51.8903 H         1 UNK         0.0600 
    208 H208       -1.7177  -21.4279  -53.0912 H         1 UNK         0.0600 
    209 H209       -2.1441  -21.5196  -51.3854 H         1 UNK         0.0600 
    210 H210       -0.3347  -25.1462  -50.8780 H         1 UNK         0.3000 
    211 H211       -1.0962  -27.1741  -50.9612 H         1 UNK         0.0600 
    212 H212       -2.1709  -26.5855  -53.7693 H         1 UNK         0.0600 
    213 H213       -2.0008  -28.1733  -53.0388 H         1 UNK         0.0600 
    214 H214       -0.5714  -27.2090  -53.3738 H         1 UNK         0.0600 
    215 H215       -3.6527  -25.1856  -52.4271 H         1 UNK         0.3000 
    216 H216       -5.5446  -25.6318  -50.2862 H         1 UNK         0.0600 
    217 H217       -7.2957  -26.7172  -51.7235 H         1 UNK         0.0600 
    218 H218       -5.9090  -27.7745  -51.5216 H         1 UNK         0.0600 
    219 H219       -6.1292  -26.8912  -53.0310 H         1 UNK         0.0600 
    220 H220       -4.4267  -23.3949  -50.7926 H         1 UNK         0.3000 
    221 H221       -4.5663  -21.2546  -51.3669 H         1 UNK         0.0600 
    222 H222       -7.5710  -21.7620  -51.7119 H         1 UNK         0.0600 
    223 H223       -6.7728  -21.5151  -50.1634 H         1 UNK         0.0600 
    224 H224       -6.8097  -20.2245  -51.3468 H         1 UNK         0.0600 
    225 H225       -3.8087  -22.9707  -53.5077 H         1 UNK         0.3000 
    226 H226       -3.4867  -23.1706  -55.6718 H         1 UNK         0.0600 
    227 H227       -2.6229  -20.8336  -55.3522 H         1 UNK         0.0600 
    228 H228       -3.2200  -21.0896  -56.9811 H         1 UNK         0.0600 
    229 H229       -4.1932  -20.1887  -55.8276 H         1 UNK         0.0600 
    230 H230       -6.4482  -23.2406  -54.6670 H         1 UNK         0.3000 
    231 H231       -8.5234  -23.4771  -55.3078 H         1 UNK         0.0600 
    232 H232       -7.6104  -25.2901  -56.7810 H         1 UNK         0.0600 
    233 H233       -7.4858  -24.1414  -58.1131 H         1 UNK         0.0600 
    234 H234       -9.0594  -24.5617  -57.4514 H         1 UNK         0.0600 
    235 H235       -7.2903  -20.7870  -55.4834 H         1 UNK         0.3000 
    236 H236       -9.4128  -19.3848  -56.9441 H         1 UNK         0.0600 
    237 H237       -7.7929  -18.1378  -58.4212 H         1 UNK         0.0600 
    238 H238       -6.4946  -19.1940  -57.8742 H         1 UNK         0.0600 
    239 H239       -7.8397  -19.8487  -58.8053 H         1 UNK         0.0600 
    240 H240       -6.7962  -19.3628  -54.6057 H         1 UNK         0.3000 
    241 H241       -6.7553  -16.5040  -54.2151 H         1 UNK         0.0600 
    242 H242       -9.5999  -18.0064  -51.7207 H         1 UNK         0.3800 
    243 H243       -8.9469  -18.9673  -53.0221 H         1 UNK         0.3800 
    244 H244       -5.5813  -18.6275  -52.3714 H         1 UNK         0.0800 
    245 H245       -4.8404  -18.2476  -53.8984 H         1 UNK         0.0800 
    246 H246       -2.6543  -17.9770  -52.4729 H         1 UNK         0.0800 
    247 H247       -3.5692  -18.2107  -51.0031 H         1 UNK         0.0800 
@<TRIPOS>BOND
     1    1    2 1    
     2    1  127 1    
     3    1  128 1    
     4    1  129 1    
     5    2    3 2    
     6    2    4 am   BACKBONE|DICT|INTERRES
     7    4    5 1    
     8    4  130 1    
     9    5    6 1    
    10    5   65 1    
    11    5  131 1    
    12    6    7 1    
    13    6  132 1    
    14    6  133 1    
    15    7    8 1    
    16    8    9 1    
    17    8  134 1    
    18    8  135 1    
    19    9   10 ar   
    20    9   14 ar   
    21   10   11 ar   
    22   10  136 1    
    23   11   12 ar   
    24   11  126 1    
    25   12   13 ar   
    26   12  137 1    
    27   13   14 ar   
    28   13   15 1    
    29   14  138 1    
    30   15   16 1    
    31   15  139 1    
    32   15  140 1    
    33   16   17 1    
    34   17   18 1    
    35   17  141 1    
    36   17  142 1    
    37   18   19 1    
    38   18   67 1    
    39   18  143 1    
    40   19   20 am   BACKBONE|DICT|INTERRES
    41   19  144 1    
    42   20   21 2    
    43   20   22 1    
    44   22   23 1    
    45   22   24 1    
    46   22  145 1    
    47   23  146 1    
    48   23  147 1    
    49   23  148 1    
    50   24   25 am   BACKBONE|DICT|INTERRES
    51   24  149 1    
    52   25   26 2    
    53   25   27 1    
    54   27   28 1    
    55   27   29 1    
    56   27  150 1    
    57   28  151 1    
    58   28  152 1    
    59   28  153 1    
    60   29   30 am   BACKBONE|DICT|INTERRES
    61   29  154 1    
    62   30   31 2    
    63   30   32 1    
    64   32   33 1    
    65   32   34 1    
    66   32  155 1    
    67   33  156 1    
    68   33  157 1    
    69   33  158 1    
    70   34   35 am   BACKBONE|DICT|INTERRES
    71   34  159 1    
    72   35   36 2    
    73   35   37 1    
    74   37   38 1    
    75   37   39 1    
    76   37  160 1    
    77   38  161 1    
    78   38  162 1    
    79   38  163 1    
    80   39   40 am   BACKBONE|DICT|INTERRES
    81   39  164 1    
    82   40   41 2    
    83   40   42 1    
    84   42   43 1    
    85   42   44 1    
    86   42  165 1    
    87   43  166 1    
    88   43  167 1    
    89   43  168 1    
    90   44   45 am   BACKBONE|DICT|INTERRES
    91   44  169 1    
    92   45   46 2    
    93   45   47 1    
    94   47   48 1    
    95   47   49 1    
    96   47  170 1    
    97   48  171 1    
    98   48  172 1    
    99   48  173 1    
   100   49   50 am   BACKBONE|DICT|INTERRES
   101   49  174 1    
   102   50   51 2    
   103   50   52 1    
   104   52   53 1    
   105   52   54 1    
   106   52  175 1    
   107   53  176 1    
   108   53  177 1    
   109   53  178 1    
   110   54   55 am   BACKBONE|DICT|INTERRES
   111   54  179 1    
   112   55   56 2    
   113   55   57 1    
   114   57   58 1    
   115   57   59 1    
   116   57  180 1    
   117   58  181 1    
   118   58  182 1    
   119   58  183 1    
   120   59   60 am   BACKBONE|DICT|INTERRES
   121   59  184 1    
   122   60   61 2    
   123   60   62 1    
   124   62   63 1    
   125   62   64 1    
   126   62  185 1    
   127   63  186 1    
   128   63  187 1    
   129   63  188 1    
   130   64   65 am   BACKBONE|DICT|INTERRES
   131   64  189 1    
   132   65   66 2    
   133   67   68 2    
   134   67   69 am   BACKBONE|DICT|INTERRES
   135   69   70 1    
   136   69  190 1    
   137   70   71 1    
   138   70   72 1    
   139   70  191 1    
   140   71  192 1    
   141   71  193 1    
   142   71  194 1    
   143   72   73 2    
   144   72   74 am   BACKBONE|DICT|INTERRES
   145   74   75 1    
   146   74  195 1    
   147   75   76 1    
   148   75   77 1    
   149   75  196 1    
   150   76  197 1    
   151   76  198 1    
   152   76  199 1    
   153   77   78 2    
   154   77   79 am   BACKBONE|DICT|INTERRES
   155   79   80 1    
   156   79  200 1    
   157   80   81 1    
   158   80   82 1    
   159   80  201 1    
   160   81  202 1    
   161   81  203 1    
   162   81  204 1    
   163   82   83 2    
   164   82   84 am   BACKBONE|DICT|INTERRES
   165   84   85 1    
   166   84  205 1    
   167   85   86 1    
   168   85   87 1    
   169   85  206 1    
   170   86  207 1    
   171   86  208 1    
   172   86  209 1    
   173   87   88 2    
   174   87   89 am   BACKBONE|DICT|INTERRES
   175   89   90 1    
   176   89  210 1    
   177   90   91 1    
   178   90   92 1    
   179   90  211 1    
   180   91  212 1    
   181   91  213 1    
   182   91  214 1    
   183   92   93 2    
   184   92   94 am   BACKBONE|DICT|INTERRES
   185   94   95 1    
   186   94  215 1    
   187   95   96 1    
   188   95   97 1    
   189   95  216 1    
   190   96  217 1    
   191   96  218 1    
   192   96  219 1    
   193   97   98 2    
   194   97   99 am   BACKBONE|DICT|INTERRES
   195   99  100 1    
   196   99  220 1    
   197  100  101 1    
   198  100  102 1    
   199  100  221 1    
   200  101  222 1    
   201  101  223 1    
   202  101  224 1    
   203  102  103 2    
   204  102  104 am   BACKBONE|DICT|INTERRES
   205  104  105 1    
   206  104  225 1    
   207  105  106 1    
   208  105  107 1    
   209  105  226 1    
   210  106  227 1    
   211  106  228 1    
   212  106  229 1    
   213  107  108 2    
   214  107  109 am   BACKBONE|DICT|INTERRES
   215  109  110 1    
   216  109  230 1    
   217  110  111 1    
   218  110  112 1    
   219  110  231 1    
   220  111  232 1    
   221  111  233 1    
   222  111  234 1    
   223  112  113 2    
   224  112  114 am   BACKBONE|DICT|INTERRES
   225  114  115 1    
   226  114  235 1    
   227  115  116 1    
   228  115  117 1    
   229  115  236 1    
   230  116  237 1    
   231  116  238 1    
   232  116  239 1    
   233  117  118 2    
   234  117  119 am   BACKBONE|DICT|INTERRES
   235  119  120 1    
   236  119  240 1    
   237  120  121 1    
   238  120  124 1    
   239  120  241 1    
   240  121  122 am   BACKBONE|DICT|INTERRES
   241  121  123 2    
   242  122  242 1    
   243  122  243 1    
   244  124  125 1    
   245  124  244 1    
   246  124  245 1    
   247  125  126 1    
   248  126  246 1    
   249  126  247 1    
@<TRIPOS>SUBSTRUCTURE
     1 UNK         1 GROUP             0       ****    0 ROOT    
