@<TRIPOS>MOLECULE
3R540
247   249    1
SMALL
USER_CHARGES


@<TRIPOS>ATOM
      1 CA         -1.4598  -13.4989  -50.9645 C.3       0 UNK        -0.1800 
      2 C          -1.8272  -14.4193  -49.8109 C.2       0 UNK         0.5000 
      3 O          -0.9395  -14.9470  -49.1410 O.2       0 UNK        -0.5000 
      4 N          -3.1353  -14.5958  -49.5771 N.am      1 UNK        -0.5000 
      5 CA         -3.7411  -15.5388  -48.6212 C.3       1 UNK         0.1400 
      6 C6         -5.2861  -15.5645  -48.7462 C.3       23 UNK        -0.0398 
      7 S7         -5.8721  -15.9960  -50.4242 S.3       23 UNK        -0.2404 
      8 C8         -7.3269  -17.0397  -50.0777 C.3       23 UNK        -0.0205 
      9 C9         -6.9540  -18.5056  -49.9099 C.ar      23 UNK        -0.0193 
     10 C10        -6.9819  -19.3703  -51.0092 C.ar      23 UNK        -0.1150 
     11 C11        -6.6299  -20.7169  -50.8655 C.ar      23 UNK        -0.0193 
     12 C12        -6.2355  -21.1921  -49.6116 C.ar      23 UNK        -0.1150 
     13 C13        -6.2000  -20.3372  -48.5073 C.ar      23 UNK        -0.0193 
     14 C14        -6.5801  -19.0012  -48.6583 C.ar      23 UNK        -0.1150 
     15 C15        -5.7324  -20.8503  -47.1559 C.3       23 UNK        -0.0205 
     16 S16        -4.1695  -20.0612  -46.6593 S.3       23 UNK        -0.2404 
     17 C17        -3.6879  -21.1178  -45.2558 C.3       23 UNK        -0.0398 
     18 CA         -2.3215  -21.8140  -45.4818 C.3       11 UNK         0.1400 
     19 N          -1.7350  -22.3387  -44.2482 N.am      11 UNK        -0.5000 
     20 C          -2.2366  -23.2533  -43.4061 C.2       10 UNK         0.5000 
     21 O          -3.2975  -23.8487  -43.5952 O.2       10 UNK        -0.5000 
     22 CA         -1.4231  -23.5315  -42.1303 C.3       10 UNK         0.1400 
     23 CB         -0.2479  -24.4719  -42.4324 C.3       10 UNK        -0.1800 
     24 N          -0.9096  -22.2818  -41.5684 N.am      10 UNK        -0.5000 
     25 C          -1.3450  -21.7120  -40.4354 C.2       9 UNK         0.5000 
     26 O          -2.1395  -22.2442  -39.6591 O.2       9 UNK        -0.5000 
     27 CA         -0.8301  -20.2889  -40.1271 C.3       9 UNK         0.1400 
     28 CB          0.4379  -20.3474  -39.2626 C.3       9 UNK        -0.1800 
     29 N          -0.5469  -19.5086  -41.3325 N.am      9 UNK        -0.5000 
     30 C          -1.4504  -19.1749  -42.2646 C.2       8 UNK         0.5000 
     31 O          -2.6596  -19.3658  -42.1369 O.2       8 UNK        -0.5000 
     32 CA         -0.9219  -18.5659  -43.5779 C.3       8 UNK         0.1400 
     33 CB         -1.2539  -17.0690  -43.6443 C.3       8 UNK        -0.1800 
     34 N           0.5154  -18.7472  -43.8088 N.am      8 UNK        -0.5000 
     35 C           1.1698  -19.9116  -43.9299 C.2       7 UNK         0.5000 
     36 O           0.6311  -21.0138  -43.8339 O.2       7 UNK        -0.5000 
     37 CA          2.6891  -19.8268  -44.1384 C.3       7 UNK         0.1400 
     38 CB          3.0232  -19.5518  -45.6117 C.3       7 UNK        -0.1800 
     39 N           3.2751  -18.7845  -43.2965 N.am      7 UNK        -0.5000 
     40 C           3.5604  -18.9372  -41.9956 C.2       6 UNK         0.5000 
     41 O           3.4157  -19.9964  -41.3855 O.2       6 UNK        -0.5000 
     42 CA          4.0804  -17.6969  -41.2434 C.3       6 UNK         0.1400 
     43 CB          5.6127  -17.6241  -41.3218 C.3       6 UNK        -0.1800 
     44 N           3.5148  -16.4443  -41.7470 N.am      6 UNK        -0.5000 
     45 C           2.2380  -16.0687  -41.5879 C.2       5 UNK         0.5000 
     46 O           1.4060  -16.7214  -40.9575 O.2       5 UNK        -0.5000 
     47 CA          1.8115  -14.7607  -42.2853 C.3       5 UNK         0.1400 
     48 CB          2.0375  -13.5574  -41.3584 C.3       5 UNK        -0.1800 
     49 N           2.4790  -14.5117  -43.5685 N.am      5 UNK        -0.5000 
     50 C           2.4606  -15.3384  -44.6217 C.2       4 UNK         0.5000 
     51 O           1.9181  -16.4432  -44.6135 O.2       4 UNK        -0.5000 
     52 CA          3.1125  -14.8212  -45.9092 C.3       4 UNK         0.1400 
     53 CB          3.5794  -15.9626  -46.8272 C.3       4 UNK        -0.1800 
     54 N           2.1198  -14.0194  -46.6118 N.am      4 UNK        -0.5000 
     55 C           2.0115  -12.6895  -46.5212 C.2       3 UNK         0.5000 
     56 O           2.8139  -11.9709  -45.9240 O.2       3 UNK        -0.5000 
     57 CA          0.7666  -12.0707  -47.1756 C.3       3 UNK         0.1400 
     58 CB          0.9521  -11.9469  -48.6952 C.3       3 UNK        -0.1800 
     59 N          -0.4458  -12.8414  -46.8808 N.am      3 UNK        -0.5000 
     60 C          -1.0636  -12.8338  -45.6875 C.2       2 UNK         0.5000 
     61 O          -0.6576  -12.1817  -44.7247 O.2       2 UNK        -0.5000 
     62 CA         -2.3510  -13.6690  -45.5385 C.3       2 UNK         0.1400 
     63 CB         -3.4429  -12.9224  -44.7513 C.3       2 UNK        -0.1800 
     64 N          -2.8863  -14.0671  -46.8393 N.am      2 UNK        -0.5000 
     65 C          -3.3363  -15.2890  -47.1495 C.2       1 UNK         0.5000 
     66 O          -3.4384  -16.2031  -46.3323 O.2       1 UNK        -0.5000 
     67 C          -2.3460  -22.8555  -46.6179 C.2       11 UNK         0.5000 
     68 O          -1.6193  -22.6954  -47.6001 O.2       11 UNK        -0.5000 
     69 N          -3.1632  -23.9030  -46.4565 N.am      12 UNK        -0.5000 
     70 CA         -3.4011  -24.9550  -47.4470 C.3       12 UNK         0.1400 
     71 CB         -4.6892  -25.7023  -47.0707 C.3       12 UNK        -0.1800 
     72 C          -2.2260  -25.9393  -47.6027 C.2       12 UNK         0.5000 
     73 O          -2.1397  -26.6176  -48.6265 O.2       12 UNK        -0.5000 
     74 N          -1.3413  -25.9995  -46.5970 N.am      13 UNK        -0.5000 
     75 CA         -0.0903  -26.7627  -46.6403 C.3       13 UNK         0.1400 
     76 CB          0.4138  -26.9792  -45.2059 C.3       13 UNK        -0.1800 
     77 C           0.9964  -26.0692  -47.4876 C.2       13 UNK         0.5000 
     78 O           1.9425  -26.7294  -47.9191 O.2       13 UNK        -0.5000 
     79 N           0.8415  -24.7576  -47.7008 N.am      14 UNK        -0.5000 
     80 CA          1.6717  -23.9247  -48.5623 C.3       14 UNK         0.1400 
     81 CB          1.9775  -22.6214  -47.8039 C.3       14 UNK        -0.1800 
     82 C           0.9279  -23.6540  -49.8837 C.2       14 UNK         0.5000 
     83 O          -0.1531  -24.2015  -50.1179 O.2       14 UNK        -0.5000 
     84 N           1.4988  -22.7897  -50.7302 N.am      15 UNK        -0.5000 
     85 CA          0.9070  -22.3348  -51.9905 C.3       15 UNK         0.1400 
     86 CB          2.0308  -21.8059  -52.9008 C.3       15 UNK        -0.1800 
     87 C          -0.1998  -21.2859  -51.7501 C.2       15 UNK         0.5000 
     88 O          -0.0828  -20.1547  -52.2242 O.2       15 UNK        -0.5000 
     89 N          -1.2390  -21.6721  -50.9911 N.am      16 UNK        -0.5000 
     90 CA         -2.3510  -20.8348  -50.5214 C.3       16 UNK         0.1400 
     91 CB         -3.2345  -20.4221  -51.7121 C.3       16 UNK        -0.1800 
     92 C          -1.8180  -19.6318  -49.7213 C.2       16 UNK         0.5000 
     93 O          -2.0299  -18.4807  -50.1080 O.2       16 UNK        -0.5000 
     94 N          -1.0161  -19.9517  -48.6945 N.am      17 UNK        -0.5000 
     95 CA         -0.0277  -19.0860  -48.0475 C.3       17 UNK         0.1400 
     96 CB         -0.6837  -17.9113  -47.2996 C.3       17 UNK        -0.1800 
     97 C           1.0383  -18.6524  -49.0729 C.2       17 UNK         0.5000 
     98 O           2.0493  -19.3426  -49.2055 O.2       17 UNK        -0.5000 
     99 N           0.7716  -17.5665  -49.8085 N.am      18 UNK        -0.5000 
    100 CA         1.5793  -17.1014  -50.9336 C.3       18 UNK         0.1400 
    101 CB         2.5132  -15.9795  -50.4459 C.3       18 UNK        -0.1800 
    102 C          0.7254  -16.6594  -52.1402 C.2       18 UNK         0.5000 
    103 O          1.2716  -16.0414  -53.0559 O.2       18 UNK        -0.5000 
    104 N         -0.5860  -16.9475  -52.1438 N.am      19 UNK        -0.5000 
    105 CA        -1.4986  -16.5167  -53.2076 C.3       19 UNK         0.1400 
    106 CB        -2.9516  -16.5991  -52.7147 C.3       19 UNK        -0.1800 
    107 C         -1.3626  -17.3174  -54.5141 C.2       19 UNK         0.5000 
    108 O         -1.6372  -16.7653  -55.5802 O.2       19 UNK        -0.5000 
    109 N         -1.0069  -18.6081  -54.4060 N.am      20 UNK        -0.5000 
    110 CA        -1.0398  -19.6255  -55.4686 C.3       20 UNK         0.1400 
    111 CB         0.0446  -19.3467  -56.5289 C.3       20 UNK        -0.1800 
    112 C         -2.4514  -19.8194  -56.0770 C.2       20 UNK         0.5000 
    113 O         -2.5860  -20.1501  -57.2567 O.2       20 UNK        -0.5000 
    114 N         -3.4776  -19.5797  -55.2521 N.am      21 UNK        -0.5000 
    115 CA        -4.8959  -19.6135  -55.5953 C.3       21 UNK         0.1400 
    116 CB        -5.6213  -18.6418  -54.6452 C.3       21 UNK        -0.1800 
    117 C         -5.4874  -21.0351  -55.5107 C.2       21 UNK         0.5000 
    118 O         -4.7791  -21.9900  -55.1827 O.2       21 UNK        -0.5000 
    119 N         -6.7968  -21.1323  -55.7775 N.am      22 UNK        -0.5000 
    120 CA        -7.6317  -22.3475  -55.6885 C.3       22 UNK         0.1400 
    121 C         -7.3548  -23.4144  -56.7935 C.2       22 UNK         0.5000 
    122 N         -6.6250  -23.0972  -57.8560 N.am      22 UNK        -0.7600 
    123 O         -7.8361  -24.5413  -56.7085 O.2       22 UNK        -0.5000 
    124 C124       -7.6823  -22.9772  -54.2637 C.3       23 UNK        -0.0398 
    125 S125       -8.1686  -21.8101  -52.9399 S.3       23 UNK        -0.2404 
    126 C126       -6.5779  -21.6409  -52.0735 C.3       23 UNK        -0.0205 
    127 H127       -0.4857  -13.7701  -51.3720 H         1 UNK         0.0600 
    128 H128       -2.1917  -13.5652  -51.7696 H         1 UNK         0.0600 
    129 H129       -1.4160  -12.4649  -50.6257 H         1 UNK         0.0600 
    130 H130       -3.8003  -14.1199  -50.1703 H         1 UNK         0.3000 
    131 H131       -3.3716  -16.5327  -48.8791 H         1 UNK         0.0600 
    132 H132       -5.7058  -14.5920  -48.4833 H         1 UNK         0.0800 
    133 H133       -5.7046  -16.2737  -48.0323 H         1 UNK         0.0800 
    134 H134       -8.0309  -16.9354  -50.9046 H         1 UNK         0.0800 
    135 H135       -7.8496  -16.6742  -49.1925 H         1 UNK         0.0800 
    136 H136       -7.2662  -18.9930  -51.9811 H         1 UNK         0.1150 
    137 H137       -5.9337  -22.2239  -49.4990 H         1 UNK         0.1150 
    138 H138       -6.5581  -18.3462  -47.7999 H         1 UNK         0.1150 
    139 H139       -6.4968  -20.6494  -46.4040 H         1 UNK         0.0800 
    140 H140       -5.5986  -21.9330  -47.1868 H         1 UNK         0.0800 
    141 H141       -4.4728  -21.8417  -45.0330 H         1 UNK         0.0800 
    142 H142       -3.6310  -20.4724  -44.3794 H         1 UNK         0.0800 
    143 H143       -1.6205  -21.0415  -45.8026 H         1 UNK         0.0600 
    144 H144       -0.8233  -21.9397  -44.0293 H         1 UNK         0.3000 
    145 H145       -2.0830  -24.0324  -41.4190 H         1 UNK         0.0600 
    146 H146        0.3269  -24.6828  -41.5305 H         1 UNK         0.0600 
    147 H147       -0.6080  -25.4266  -42.8163 H         1 UNK         0.0600 
    148 H148        0.4339  -24.0476  -43.1708 H         1 UNK         0.0600 
    149 H149       -0.2650  -21.7590  -42.1501 H         1 UNK         0.3000 
    150 H150       -1.6076  -19.7671  -39.5657 H         1 UNK         0.0600 
    151 H151        0.2509  -20.8824  -38.3307 H         1 UNK         0.0600 
    152 H152        0.7840  -19.3471  -39.0006 H         1 UNK         0.0600 
    153 H153        1.2519  -20.8591  -39.7779 H         1 UNK         0.0600 
    154 H154        0.4194  -19.2691  -41.5025 H         1 UNK         0.3000 
    155 H155       -1.4468  -19.0667  -44.3913 H         1 UNK         0.0600 
    156 H156       -0.8152  -16.5269  -42.8076 H         1 UNK         0.0600 
    157 H157       -2.3321  -16.9069  -43.6122 H         1 UNK         0.0600 
    158 H158       -0.8877  -16.6210  -44.5675 H         1 UNK         0.0600 
    159 H159        1.0488  -17.8910  -43.9468 H         1 UNK         0.3000 
    160 H160        3.1241  -20.7915  -43.8681 H         1 UNK         0.0600 
    161 H161        4.0987  -19.4618  -45.7645 H         1 UNK         0.0600 
    162 H162        2.5551  -18.6369  -45.9728 H         1 UNK         0.0600 
    163 H163        2.6738  -20.3650  -46.2463 H         1 UNK         0.0600 
    164 H164        3.3513  -17.8642  -43.7073 H         1 UNK         0.3000 
    165 H165        3.7967  -17.8029  -40.1940 H         1 UNK         0.0600 
    166 H166        5.9988  -16.7921  -40.7325 H         1 UNK         0.0600 
    167 H167        6.0671  -18.5357  -40.9311 H         1 UNK         0.0600 
    168 H168        5.9589  -17.4987  -42.3485 H         1 UNK         0.0600 
    169 H169        4.1302  -15.8432  -42.2749 H         1 UNK         0.3000 
    170 H170        0.7417  -14.8304  -42.4875 H         1 UNK         0.0600 
    171 H171        1.5331  -13.7004  -40.4017 H         1 UNK         0.0600 
    172 H172        3.0970  -13.4015  -41.1517 H         1 UNK         0.0600 
    173 H173        1.6419  -12.6417  -41.7985 H         1 UNK         0.0600 
    174 H174        2.9155  -13.6068  -43.6773 H         1 UNK         0.3000 
    175 H175        3.9869  -14.2238  -45.6426 H         1 UNK         0.0600 
    176 H176        2.7419  -16.5472  -47.2099 H         1 UNK         0.0600 
    177 H177        4.1318  -15.5687  -47.6797 H         1 UNK         0.0600 
    178 H178        4.2463  -16.6445  -46.2984 H         1 UNK         0.0600 
    179 H179        1.3896  -14.5291  -47.0881 H         1 UNK         0.3000 
    180 H180        0.6448  -11.0633  -46.7715 H         1 UNK         0.0600 
    181 H181        1.0269  -12.9221  -49.1770 H         1 UNK         0.0600 
    182 H182        1.8617  -11.3939  -48.9334 H         1 UNK         0.0600 
    183 H183        0.1207  -11.4070  -49.1469 H         1 UNK         0.0600 
    184 H184       -0.7745  -13.4706  -47.6032 H         1 UNK         0.3000 
    185 H185       -2.0650  -14.5535  -44.9679 H         1 UNK         0.0600 
    186 H186       -3.0978  -12.6550  -43.7518 H         1 UNK         0.0600 
    187 H187       -3.7417  -12.0027  -45.2554 H         1 UNK         0.0600 
    188 H188       -4.3316  -13.5418  -44.6290 H         1 UNK         0.0600 
    189 H189       -2.8634  -13.3670  -47.5671 H         1 UNK         0.3000 
    190 H190       -3.6417  -23.9947  -45.5659 H         1 UNK         0.3000 
    191 H191       -3.5538  -24.4781  -48.4177 H         1 UNK         0.0600 
    192 H192       -4.6042  -26.1823  -46.0949 H         1 UNK         0.0600 
    193 H193       -4.9194  -26.4793  -47.8009 H         1 UNK         0.0600 
    194 H194       -5.5427  -25.0248  -47.0390 H         1 UNK         0.0600 
    195 H195       -1.5051  -25.4301  -45.7805 H         1 UNK         0.3000 
    196 H196       -0.2898  -27.7402  -47.0845 H         1 UNK         0.0600 
    197 H197        0.7086  -26.0389  -44.7403 H         1 UNK         0.0600 
    198 H198        1.2865  -27.6333  -45.1964 H         1 UNK         0.0600 
    199 H199       -0.3481  -27.4458  -44.5812 H         1 UNK         0.0600 
    200 H200       -0.0232  -24.3281  -47.4006 H         1 UNK         0.3000 
    201 H201        2.6118  -24.4275  -48.7976 H         1 UNK         0.0600 
    202 H202        2.6641  -21.9834  -48.3609 H         1 UNK         0.0600 
    203 H203        2.4461  -22.8302  -46.8419 H         1 UNK         0.0600 
    204 H204        1.0720  -22.0458  -47.6127 H         1 UNK         0.0600 
    205 H205        2.3628  -22.3412  -50.4612 H         1 UNK         0.3000 
    206 H206        0.4440  -23.1852  -52.4955 H         1 UNK         0.0600 
    207 H207        2.7750  -22.5776  -53.0981 H         1 UNK         0.0600 
    208 H208        1.6353  -21.4840  -53.8651 H         1 UNK         0.0600 
    209 H209        2.5422  -20.9521  -52.4539 H         1 UNK         0.0600 
    210 H210       -1.2030  -22.6160  -50.6155 H         1 UNK         0.3000 
    211 H211       -2.9545  -21.4351  -49.8386 H         1 UNK         0.0600 
    212 H212       -2.6785  -19.8450  -52.4469 H         1 UNK         0.0600 
    213 H213       -4.0706  -19.8064  -51.3821 H         1 UNK         0.0600 
    214 H214       -3.6335  -21.2998  -52.2181 H         1 UNK         0.0600 
    215 H215       -0.9419  -20.9377  -48.4691 H         1 UNK         0.3000 
    216 H216        0.4761  -19.7003  -47.3010 H         1 UNK         0.0600 
    217 H217        0.0631  -17.3225  -46.7659 H         1 UNK         0.0600 
    218 H218       -1.4062  -18.2707  -46.5690 H         1 UNK         0.0600 
    219 H219       -1.2156  -17.2389  -47.9675 H         1 UNK         0.0600 
    220 H220       -0.0882  -17.0571  -49.6368 H         1 UNK         0.3000 
    221 H221        2.1959  -17.9218  -51.3068 H         1 UNK         0.0600 
    222 H222        1.9519  -15.1547  -50.0057 H         1 UNK         0.0600 
    223 H223        3.2064  -16.3568  -49.6962 H         1 UNK         0.0600 
    224 H224        3.1165  -15.5748  -51.2592 H         1 UNK         0.0600 
    225 H225       -0.9872  -17.5070  -51.3950 H         1 UNK         0.3000 
    226 H226       -1.2854  -15.4708  -53.4383 H         1 UNK         0.0600 
    227 H227       -3.2537  -17.6208  -52.4934 H         1 UNK         0.0600 
    228 H228       -3.1013  -16.0171  -51.8115 H         1 UNK         0.0600 
    229 H229       -3.6414  -16.2091  -53.4638 H         1 UNK         0.0600 
    230 H230       -0.7464  -18.9619  -53.4867 H         1 UNK         0.3000 
    231 H231       -0.7902  -20.5718  -54.9869 H         1 UNK         0.0600 
    232 H232        1.0242  -19.2266  -56.0662 H         1 UNK         0.0600 
    233 H233       -0.1698  -18.4439  -57.1012 H         1 UNK         0.0600 
    234 H234        0.1204  -20.1723  -57.2373 H         1 UNK         0.0600 
    235 H235       -3.2604  -19.3506  -54.2953 H         1 UNK         0.3000 
    236 H236       -5.0240  -19.2598  -56.6204 H         1 UNK         0.0600 
    237 H237       -5.2389  -17.6275  -54.7602 H         1 UNK         0.0600 
    238 H238       -6.6927  -18.5985  -54.8420 H         1 UNK         0.0600 
    239 H239       -5.4888  -18.9278  -53.6017 H         1 UNK         0.0600 
    240 H240       -7.2952  -20.2962  -56.0462 H         1 UNK         0.3000 
    241 H241       -8.6425  -22.0018  -55.9071 H         1 UNK         0.0600 
    242 H242       -6.4611  -23.7893  -58.5704 H         1 UNK         0.3800 
    243 H243       -6.2264  -22.1767  -57.9485 H         1 UNK         0.3800 
    244 H244       -8.4099  -23.7900  -54.2424 H         1 UNK         0.0800 
    245 H245       -6.7244  -23.4387  -54.0203 H         1 UNK         0.0800 
    246 H246       -6.2267  -22.6322  -51.7825 H         1 UNK         0.0800 
    247 H247       -5.8419  -21.2458  -52.7677 H         1 UNK         0.0800 
@<TRIPOS>BOND
     1    1    2 1    
     2    1  127 1    
     3    1  128 1    
     4    1  129 1    
     5    2    3 2    
     6    2    4 am   BACKBONE|DICT|INTERRES
     7    4    5 1    
     8    4  130 1    
     9    5    6 1    
    10    5   65 1    
    11    5  131 1    
    12    6    7 1    
    13    6  132 1    
    14    6  133 1    
    15    7    8 1    
    16    8    9 1    
    17    8  134 1    
    18    8  135 1    
    19    9   10 ar   
    20    9   14 ar   
    21   10   11 ar   
    22   10  136 1    
    23   11   12 ar   
    24   11  126 1    
    25   12   13 ar   
    26   12  137 1    
    27   13   14 ar   
    28   13   15 1    
    29   14  138 1    
    30   15   16 1    
    31   15  139 1    
    32   15  140 1    
    33   16   17 1    
    34   17   18 1    
    35   17  141 1    
    36   17  142 1    
    37   18   19 1    
    38   18   67 1    
    39   18  143 1    
    40   19   20 am   BACKBONE|DICT|INTERRES
    41   19  144 1    
    42   20   21 2    
    43   20   22 1    
    44   22   23 1    
    45   22   24 1    
    46   22  145 1    
    47   23  146 1    
    48   23  147 1    
    49   23  148 1    
    50   24   25 am   BACKBONE|DICT|INTERRES
    51   24  149 1    
    52   25   26 2    
    53   25   27 1    
    54   27   28 1    
    55   27   29 1    
    56   27  150 1    
    57   28  151 1    
    58   28  152 1    
    59   28  153 1    
    60   29   30 am   BACKBONE|DICT|INTERRES
    61   29  154 1    
    62   30   31 2    
    63   30   32 1    
    64   32   33 1    
    65   32   34 1    
    66   32  155 1    
    67   33  156 1    
    68   33  157 1    
    69   33  158 1    
    70   34   35 am   BACKBONE|DICT|INTERRES
    71   34  159 1    
    72   35   36 2    
    73   35   37 1    
    74   37   38 1    
    75   37   39 1    
    76   37  160 1    
    77   38  161 1    
    78   38  162 1    
    79   38  163 1    
    80   39   40 am   BACKBONE|DICT|INTERRES
    81   39  164 1    
    82   40   41 2    
    83   40   42 1    
    84   42   43 1    
    85   42   44 1    
    86   42  165 1    
    87   43  166 1    
    88   43  167 1    
    89   43  168 1    
    90   44   45 am   BACKBONE|DICT|INTERRES
    91   44  169 1    
    92   45   46 2    
    93   45   47 1    
    94   47   48 1    
    95   47   49 1    
    96   47  170 1    
    97   48  171 1    
    98   48  172 1    
    99   48  173 1    
   100   49   50 am   BACKBONE|DICT|INTERRES
   101   49  174 1    
   102   50   51 2    
   103   50   52 1    
   104   52   53 1    
   105   52   54 1    
   106   52  175 1    
   107   53  176 1    
   108   53  177 1    
   109   53  178 1    
   110   54   55 am   BACKBONE|DICT|INTERRES
   111   54  179 1    
   112   55   56 2    
   113   55   57 1    
   114   57   58 1    
   115   57   59 1    
   116   57  180 1    
   117   58  181 1    
   118   58  182 1    
   119   58  183 1    
   120   59   60 am   BACKBONE|DICT|INTERRES
   121   59  184 1    
   122   60   61 2    
   123   60   62 1    
   124   62   63 1    
   125   62   64 1    
   126   62  185 1    
   127   63  186 1    
   128   63  187 1    
   129   63  188 1    
   130   64   65 am   BACKBONE|DICT|INTERRES
   131   64  189 1    
   132   65   66 2    
   133   67   68 2    
   134   67   69 am   BACKBONE|DICT|INTERRES
   135   69   70 1    
   136   69  190 1    
   137   70   71 1    
   138   70   72 1    
   139   70  191 1    
   140   71  192 1    
   141   71  193 1    
   142   71  194 1    
   143   72   73 2    
   144   72   74 am   BACKBONE|DICT|INTERRES
   145   74   75 1    
   146   74  195 1    
   147   75   76 1    
   148   75   77 1    
   149   75  196 1    
   150   76  197 1    
   151   76  198 1    
   152   76  199 1    
   153   77   78 2    
   154   77   79 am   BACKBONE|DICT|INTERRES
   155   79   80 1    
   156   79  200 1    
   157   80   81 1    
   158   80   82 1    
   159   80  201 1    
   160   81  202 1    
   161   81  203 1    
   162   81  204 1    
   163   82   83 2    
   164   82   84 am   BACKBONE|DICT|INTERRES
   165   84   85 1    
   166   84  205 1    
   167   85   86 1    
   168   85   87 1    
   169   85  206 1    
   170   86  207 1    
   171   86  208 1    
   172   86  209 1    
   173   87   88 2    
   174   87   89 am   BACKBONE|DICT|INTERRES
   175   89   90 1    
   176   89  210 1    
   177   90   91 1    
   178   90   92 1    
   179   90  211 1    
   180   91  212 1    
   181   91  213 1    
   182   91  214 1    
   183   92   93 2    
   184   92   94 am   BACKBONE|DICT|INTERRES
   185   94   95 1    
   186   94  215 1    
   187   95   96 1    
   188   95   97 1    
   189   95  216 1    
   190   96  217 1    
   191   96  218 1    
   192   96  219 1    
   193   97   98 2    
   194   97   99 am   BACKBONE|DICT|INTERRES
   195   99  100 1    
   196   99  220 1    
   197  100  101 1    
   198  100  102 1    
   199  100  221 1    
   200  101  222 1    
   201  101  223 1    
   202  101  224 1    
   203  102  103 2    
   204  102  104 am   BACKBONE|DICT|INTERRES
   205  104  105 1    
   206  104  225 1    
   207  105  106 1    
   208  105  107 1    
   209  105  226 1    
   210  106  227 1    
   211  106  228 1    
   212  106  229 1    
   213  107  108 2    
   214  107  109 am   BACKBONE|DICT|INTERRES
   215  109  110 1    
   216  109  230 1    
   217  110  111 1    
   218  110  112 1    
   219  110  231 1    
   220  111  232 1    
   221  111  233 1    
   222  111  234 1    
   223  112  113 2    
   224  112  114 am   BACKBONE|DICT|INTERRES
   225  114  115 1    
   226  114  235 1    
   227  115  116 1    
   228  115  117 1    
   229  115  236 1    
   230  116  237 1    
   231  116  238 1    
   232  116  239 1    
   233  117  118 2    
   234  117  119 am   BACKBONE|DICT|INTERRES
   235  119  120 1    
   236  119  240 1    
   237  120  121 1    
   238  120  124 1    
   239  120  241 1    
   240  121  122 am   BACKBONE|DICT|INTERRES
   241  121  123 2    
   242  122  242 1    
   243  122  243 1    
   244  124  125 1    
   245  124  244 1    
   246  124  245 1    
   247  125  126 1    
   248  126  246 1    
   249  126  247 1    
@<TRIPOS>SUBSTRUCTURE
     1 UNK         1 GROUP             0       ****    0 ROOT    
