@<TRIPOS>MOLECULE
3R540
247   249    1
SMALL
USER_CHARGES


@<TRIPOS>ATOM
      1 CA          0.3934   -9.1929  -51.4809 C.3       0 UNK        -0.1800 
      2 C           0.1123  -10.0071  -50.2256 C.2       0 UNK         0.5000 
      3 O          -0.8837   -9.7543  -49.5482 O.2       0 UNK        -0.5000 
      4 N           0.9869  -10.9769  -49.9243 N.am      1 UNK        -0.5000 
      5 CA          0.9345  -11.8860  -48.7719 C.3       1 UNK         0.1400 
      6 C6         -0.2630  -12.8760  -48.7904 C.3       23 UNK        -0.0398 
      7 S7         -0.2445  -13.9972  -50.2269 S.3       23 UNK        -0.2404 
      8 C8          0.8745  -15.3096  -49.6310 C.3       23 UNK        -0.0205 
      9 C9          0.8957  -16.5078  -50.5710 C.ar      23 UNK        -0.0193 
     10 C10         1.2638  -16.3478  -51.9103 C.ar      23 UNK        -0.1150 
     11 C11         1.2484  -17.4343  -52.7888 C.ar      23 UNK        -0.0193 
     12 C12         0.8878  -18.6974  -52.3112 C.ar      23 UNK        -0.1150 
     13 C13         0.5487  -18.8814  -50.9668 C.ar      23 UNK        -0.0193 
     14 C14         0.5547  -17.7808  -50.1023 C.ar      23 UNK        -0.1150 
     15 C15         0.2024  -20.2749  -50.4562 C.3       23 UNK        -0.0205 
     16 S16        -1.4874  -20.3728  -49.7843 S.3       23 UNK        -0.2404 
     17 C17        -1.1821  -20.3215  -47.9865 C.3       23 UNK        -0.0398 
     18 CA         -1.1714  -21.7277  -47.3326 C.3       11 UNK         0.1400 
     19 N          -0.3869  -21.7443  -46.0921 N.am      11 UNK        -0.5000 
     20 C          -0.0992  -22.8407  -45.3742 C.2       10 UNK         0.5000 
     21 O          -0.4353  -23.9783  -45.6991 O.2       10 UNK        -0.5000 
     22 CA          0.6430  -22.6300  -44.0417 C.3       10 UNK         0.1400 
     23 CB          2.1482  -22.4376  -44.2763 C.3       10 UNK        -0.1800 
     24 N           0.1094  -21.5054  -43.2719 N.am      10 UNK        -0.5000 
     25 C          -1.1383  -21.4464  -42.7832 C.2       9 UNK         0.5000 
     26 O          -1.9531  -22.3626  -42.8800 O.2       9 UNK        -0.5000 
     27 CA         -1.5738  -20.1204  -42.1350 C.3       9 UNK         0.1400 
     28 CB         -1.0612  -20.0155  -40.6911 C.3       9 UNK        -0.1800 
     29 N          -1.1316  -18.9567  -42.9017 N.am      9 UNK        -0.5000 
     30 C          -1.4993  -18.6876  -44.1629 C.2       8 UNK         0.5000 
     31 O          -2.3092  -19.3603  -44.8016 O.2       8 UNK        -0.5000 
     32 CA         -0.7887  -17.5079  -44.8454 C.3       8 UNK         0.1400 
     33 CB         -1.4133  -16.1655  -44.4366 C.3       8 UNK        -0.1800 
     34 N           0.6423  -17.5017  -44.5431 N.am      8 UNK        -0.5000 
     35 C           1.5211  -18.3834  -45.0389 C.2       7 UNK         0.5000 
     36 O           1.2181  -19.2727  -45.8324 O.2       7 UNK        -0.5000 
     37 CA          2.9718  -18.2828  -44.5342 C.3       7 UNK         0.1400 
     38 CB          3.7993  -17.3560  -45.4340 C.3       7 UNK        -0.1800 
     39 N           3.0563  -17.8435  -43.1378 N.am      7 UNK        -0.5000 
     40 C           2.6832  -18.6242  -42.1127 C.2       6 UNK         0.5000 
     41 O           2.2116  -19.7523  -42.2565 O.2       6 UNK        -0.5000 
     42 CA          2.8312  -18.0530  -40.6930 C.3       6 UNK         0.1400 
     43 CB          4.2969  -18.1116  -40.2376 C.3       6 UNK        -0.1800 
     44 N           2.3365  -16.6872  -40.5339 N.am      6 UNK        -0.5000 
     45 C           1.1088  -16.2373  -40.8176 C.2       5 UNK         0.5000 
     46 O           0.2410  -16.9219  -41.3594 O.2       5 UNK        -0.5000 
     47 CA          0.7937  -14.7710  -40.4522 C.3       5 UNK         0.1400 
     48 CB          0.3459  -14.6494  -38.9841 C.3       5 UNK        -0.1800 
     49 N           1.8705  -13.8230  -40.7720 N.am      5 UNK        -0.5000 
     50 C           3.1103  -13.7290  -40.2633 C.2       4 UNK         0.5000 
     51 O           3.5117  -14.3947  -39.3072 O.2       4 UNK        -0.5000 
     52 CA          4.0765  -12.7830  -41.0130 C.3       4 UNK         0.1400 
     53 CB          5.5608  -13.1128  -40.7526 C.3       4 UNK        -0.1800 
     54 N           3.8011  -12.7393  -42.4557 N.am      4 UNK        -0.5000 
     55 C           3.7810  -13.7703  -43.3113 C.2       3 UNK         0.5000 
     56 O           4.1069  -14.9205  -43.0082 O.2       3 UNK        -0.5000 
     57 CA          3.2386  -13.5159  -44.7313 C.3       3 UNK         0.1400 
     58 CB          1.7932  -14.0412  -44.8378 C.3       3 UNK        -0.1800 
     59 N           3.3035  -12.1524  -45.2758 N.am      3 UNK        -0.5000 
     60 C           2.7127  -11.0236  -44.8511 C.2       2 UNK         0.5000 
     61 O           2.2197  -10.8678  -43.7340 O.2       2 UNK        -0.5000 
     62 CA          2.5774   -9.9113  -45.9116 C.3       2 UNK         0.1400 
     63 CB          3.8862   -9.1195  -46.0525 C.3       2 UNK        -0.1800 
     64 N           2.1868  -10.4634  -47.2161 N.am      2 UNK        -0.5000 
     65 C           1.0373  -11.1225  -47.4348 C.2       1 UNK         0.5000 
     66 O           0.1097  -11.1602  -46.6236 O.2       1 UNK        -0.5000 
     67 C          -2.6014  -22.2742  -47.1236 C.2       11 UNK         0.5000 
     68 O          -3.0852  -23.0568  -47.9443 O.2       11 UNK        -0.5000 
     69 N          -3.2364  -21.8817  -46.0107 N.am      12 UNK        -0.5000 
     70 CA         -4.5412  -22.3810  -45.5837 C.3       12 UNK         0.1400 
     71 CB         -5.0807  -21.5065  -44.4421 C.3       12 UNK        -0.1800 
     72 C          -4.5007  -23.8662  -45.1815 C.2       12 UNK         0.5000 
     73 O          -5.3337  -24.6396  -45.6540 O.2       12 UNK        -0.5000 
     74 N          -3.5217  -24.2461  -44.3475 N.am      13 UNK        -0.5000 
     75 CA         -3.3278  -25.6096  -43.8433 C.3       13 UNK         0.1400 
     76 CB         -2.2200  -25.6115  -42.7794 C.3       13 UNK        -0.1800 
     77 C          -3.0161  -26.6377  -44.9463 C.2       13 UNK         0.5000 
     78 O          -3.5090  -27.7645  -44.8838 O.2       13 UNK        -0.5000 
     79 N          -2.2315  -26.2244  -45.9498 N.am      14 UNK        -0.5000 
     80 CA         -1.9023  -27.0184  -47.1352 C.3       14 UNK         0.1400 
     81 CB         -0.6629  -26.4044  -47.8070 C.3       14 UNK        -0.1800 
     82 C          -3.0577  -27.1163  -48.1524 C.2       14 UNK         0.5000 
     83 O          -2.9552  -27.9016  -49.0950 O.2       14 UNK        -0.5000 
     84 N          -4.1035  -26.2925  -47.9754 N.am      15 UNK        -0.5000 
     85 CA         -5.2402  -26.0715  -48.8783 C.3       15 UNK         0.1400 
     86 CB         -6.0635  -27.3590  -49.0842 C.3       15 UNK        -0.1800 
     87 C          -4.8427  -25.4010  -50.2109 C.2       15 UNK         0.5000 
     88 O          -5.6408  -25.3734  -51.1478 O.2       15 UNK        -0.5000 
     89 N          -3.6382  -24.8186  -50.2600 N.am      16 UNK        -0.5000 
     90 CA         -3.1095  -24.0497  -51.3833 C.3       16 UNK         0.1400 
     91 CB         -1.6124  -23.8007  -51.1489 C.3       16 UNK        -0.1800 
     92 C          -3.8780  -22.7326  -51.5902 C.2       16 UNK         0.5000 
     93 O          -4.0660  -22.3104  -52.7314 O.2       16 UNK        -0.5000 
     94 N          -4.3586  -22.1415  -50.4870 N.am      17 UNK        -0.5000 
     95 CA         -5.2244  -20.9630  -50.4877 C.3       17 UNK         0.1400 
     96 CB         -5.3390  -20.4098  -49.0593 C.3       17 UNK        -0.1800 
     97 C          -6.6202  -21.2698  -51.0606 C.2       17 UNK         0.5000 
     98 O          -7.1668  -20.4505  -51.7981 O.2       17 UNK        -0.5000 
     99 N          -7.1537  -22.4577  -50.7385 N.am      18 UNK        -0.5000 
    100 CA        -8.4355  -22.9599  -51.2394 C.3       18 UNK         0.1400 
    101 CB        -8.8948  -24.1469  -50.3785 C.3       18 UNK        -0.1800 
    102 C         -8.3636  -23.3508  -52.7267 C.2       18 UNK         0.5000 
    103 O         -9.3083  -23.0903  -53.4722 O.2       18 UNK        -0.5000 
    104 N         -7.2261  -23.9288  -53.1374 N.am      19 UNK        -0.5000 
    105 CA        -6.8932  -24.2403  -54.5295 C.3       19 UNK         0.1400 
    106 CB        -5.6948  -25.2020  -54.5456 C.3       19 UNK        -0.1800 
    107 C         -6.5846  -22.9916  -55.3831 C.2       19 UNK         0.5000 
    108 O         -6.5752  -23.0939  -56.6103 O.2       19 UNK        -0.5000 
    109 N         -6.3293  -21.8525  -54.7213 N.am      20 UNK        -0.5000 
    110 CA        -5.9388  -20.5544  -55.2757 C.3       20 UNK         0.1400 
    111 CB        -7.0721  -19.9516  -56.1313 C.3       20 UNK        -0.1800 
    112 C         -4.5855  -20.6203  -56.0111 C.2       20 UNK         0.5000 
    113 O         -4.4355  -20.0586  -57.0999 O.2       20 UNK        -0.5000 
    114 N         -3.6089  -21.2962  -55.3885 N.am      21 UNK        -0.5000 
    115 CA        -2.2559  -21.5583  -55.8943 C.3       21 UNK         0.1400 
    116 CB        -1.6544  -22.7246  -55.0923 C.3       21 UNK        -0.1800 
    117 C         -1.3328  -20.3153  -55.9097 C.2       21 UNK         0.5000 
    118 O         -0.1590  -20.4015  -55.5449 O.2       21 UNK        -0.5000 
    119 N         -1.8836  -19.1810  -56.3422 N.am      22 UNK        -0.5000 
    120 CA        -1.2186  -17.8886  -56.5322 C.3       22 UNK         0.1400 
    121 C         -1.8944  -17.0234  -57.6399 C.2       22 UNK         0.5000 
    122 N         -2.9429  -17.4858  -58.3162 N.am      22 UNK        -0.7600 
    123 O         -1.4518  -15.9120  -57.9151 O.2       22 UNK        -0.5000 
    124 C124       -1.0373  -17.1307  -55.1870 C.3       23 UNK        -0.0398 
    125 S125        0.4902  -16.1324  -55.1336 S.3       23 UNK        -0.2404 
    126 C126        1.6322  -17.2446  -54.2502 C.3       23 UNK        -0.0205 
    127 H127        1.3016   -9.5237  -51.9853 H         1 UNK         0.0600 
    128 H128        0.5104   -8.1395  -51.2266 H         1 UNK         0.0600 
    129 H129       -0.4366   -9.2856  -52.1814 H         1 UNK         0.0600 
    130 H130        1.7757  -11.1176  -50.5399 H         1 UNK         0.3000 
    131 H131        1.8426  -12.4881  -48.8291 H         1 UNK         0.0600 
    132 H132       -1.2093  -12.3334  -48.7945 H         1 UNK         0.0800 
    133 H133       -0.2762  -13.4860  -47.8853 H         1 UNK         0.0800 
    134 H134        0.5664  -15.6183  -48.6307 H         1 UNK         0.0800 
    135 H135        1.8859  -14.9122  -49.5386 H         1 UNK         0.0800 
    136 H136        1.5391  -15.3687  -52.2770 H         1 UNK         0.1150 
    137 H137        0.8793  -19.5407  -52.9882 H         1 UNK         0.1150 
    138 H138        0.2876  -17.9148  -49.0643 H         1 UNK         0.1150 
    139 H139        0.9343  -20.5823  -49.7082 H         1 UNK         0.0800 
    140 H140        0.2801  -21.0030  -51.2651 H         1 UNK         0.0800 
    141 H141       -1.9231  -19.6706  -47.5195 H         1 UNK         0.0800 
    142 H142       -0.2249  -19.8284  -47.8289 H         1 UNK         0.0800 
    143 H143       -0.6629  -22.4142  -48.0125 H         1 UNK         0.0600 
    144 H144       -0.0261  -20.8503  -45.7754 H         1 UNK         0.3000 
    145 H145        0.5100  -23.5327  -43.4423 H         1 UNK         0.0600 
    146 H146        2.5694  -23.2855  -44.8178 H         1 UNK         0.0600 
    147 H147        2.6867  -22.3547  -43.3321 H         1 UNK         0.0600 
    148 H148        2.3556  -21.5409  -44.8594 H         1 UNK         0.0600 
    149 H149        0.7436  -20.7325  -43.0923 H         1 UNK         0.3000 
    150 H150       -2.6653  -20.1057  -42.1104 H         1 UNK         0.0600 
    151 H151        0.0278  -20.0034  -40.6482 H         1 UNK         0.0600 
    152 H152       -1.4047  -20.8604  -40.0930 H         1 UNK         0.0600 
    153 H153       -1.4234  -19.1066  -40.2103 H         1 UNK         0.0600 
    154 H154       -0.4911  -18.3217  -42.4328 H         1 UNK         0.3000 
    155 H155       -0.9127  -17.6224  -45.9246 H         1 UNK         0.0600 
    156 H156       -0.9573  -15.3376  -44.9794 H         1 UNK         0.0600 
    157 H157       -1.2999  -15.9709  -43.3700 H         1 UNK         0.0600 
    158 H158       -2.4807  -16.1501  -44.6604 H         1 UNK         0.0600 
    159 H159        0.9566  -16.8566  -43.8341 H         1 UNK         0.3000 
    160 H160        3.4126  -19.2799  -44.5986 H         1 UNK         0.0600 
    161 H161        3.3615  -16.3631  -45.4985 H         1 UNK         0.0600 
    162 H162        3.8544  -17.7513  -46.4491 H         1 UNK         0.0600 
    163 H163        4.8208  -17.2527  -45.0675 H         1 UNK         0.0600 
    164 H164        3.4351  -16.9193  -42.9560 H         1 UNK         0.3000 
    165 H165        2.2435  -18.6861  -40.0255 H         1 UNK         0.0600 
    166 H166        4.6979  -19.1215  -40.3331 H         1 UNK         0.0600 
    167 H167        4.9281  -17.4478  -40.8303 H         1 UNK         0.0600 
    168 H168        4.3961  -17.8204  -39.1917 H         1 UNK         0.0600 
    169 H169        2.9673  -16.0279  -40.0871 H         1 UNK         0.3000 
    170 H170       -0.0515  -14.4741  -41.0753 H         1 UNK         0.0600 
    171 H171        0.0684  -13.6239  -38.7405 H         1 UNK         0.0600 
    172 H172        1.1267  -14.9601  -38.2895 H         1 UNK         0.0600 
    173 H173       -0.5257  -15.2765  -38.7924 H         1 UNK         0.0600 
    174 H174        1.6754  -13.2266  -41.5639 H         1 UNK         0.3000 
    175 H175        3.8841  -11.7803  -40.6292 H         1 UNK         0.0600 
    176 H176        5.8089  -14.1314  -41.0529 H         1 UNK         0.0600 
    177 H177        5.8030  -13.0165  -39.6936 H         1 UNK         0.0600 
    178 H178        6.2164  -12.4336  -41.2974 H         1 UNK         0.0600 
    179 H179        3.4200  -11.8630  -42.8062 H         1 UNK         0.3000 
    180 H180        3.8634  -14.1162  -45.3932 H         1 UNK         0.0600 
    181 H181        1.0867  -13.4019  -44.3076 H         1 UNK         0.0600 
    182 H182        1.7023  -15.0371  -44.4089 H         1 UNK         0.0600 
    183 H183        1.4712  -14.1039  -45.8773 H         1 UNK         0.0600 
    184 H184        3.7278  -12.1039  -46.1909 H         1 UNK         0.3000 
    185 H185        1.7937   -9.2256  -45.5826 H         1 UNK         0.0600 
    186 H186        4.1870   -8.6916  -45.0953 H         1 UNK         0.0600 
    187 H187        4.7059   -9.7473  -46.4037 H         1 UNK         0.0600 
    188 H188        3.7722   -8.2933  -46.7546 H         1 UNK         0.0600 
    189 H189        2.8817  -10.4364  -47.9484 H         1 UNK         0.3000 
    190 H190       -2.7907  -21.1943  -45.4106 H         1 UNK         0.3000 
    191 H191       -5.2284  -22.2899  -46.4262 H         1 UNK         0.0600 
    192 H192       -5.1775  -20.4672  -44.7566 H         1 UNK         0.0600 
    193 H193       -6.0677  -21.8447  -44.1244 H         1 UNK         0.0600 
    194 H194       -4.4284  -21.5299  -43.5692 H         1 UNK         0.0600 
    195 H195       -2.8911  -23.5378  -43.9782 H         1 UNK         0.3000 
    196 H196       -4.2588  -25.9170  -43.3628 H         1 UNK         0.0600 
    197 H197       -2.4749  -24.9597  -41.9437 H         1 UNK         0.0600 
    198 H198       -1.2691  -25.2722  -43.1911 H         1 UNK         0.0600 
    199 H199       -2.0658  -26.6127  -42.3752 H         1 UNK         0.0600 
    200 H200       -1.8052  -25.3025  -45.8908 H         1 UNK         0.3000 
    201 H201       -1.6546  -28.0337  -46.8190 H         1 UNK         0.0600 
    202 H202       -0.3580  -26.9842  -48.6791 H         1 UNK         0.0600 
    203 H203        0.1850  -26.3803  -47.1222 H         1 UNK         0.0600 
    204 H204       -0.8521  -25.3830  -48.1407 H         1 UNK         0.0600 
    205 H205       -4.0962  -25.6993  -47.1543 H         1 UNK         0.3000 
    206 H206       -5.8839  -25.3534  -48.3686 H         1 UNK         0.0600 
    207 H207       -6.3266  -27.8151  -48.1299 H         1 UNK         0.0600 
    208 H208       -6.9955  -27.1461  -49.6088 H         1 UNK         0.0600 
    209 H209       -5.5230  -28.0991  -49.6744 H         1 UNK         0.0600 
    210 H210       -3.0928  -24.8016  -49.4091 H         1 UNK         0.3000 
    211 H211       -3.2201  -24.6448  -52.2915 H         1 UNK         0.0600 
    212 H212       -1.0537  -24.7366  -51.1639 H         1 UNK         0.0600 
    213 H213       -1.1884  -23.1560  -51.9175 H         1 UNK         0.0600 
    214 H214       -1.4303  -23.3232  -50.1870 H         1 UNK         0.0600 
    215 H215       -4.0994  -22.5293  -49.5855 H         1 UNK         0.3000 
    216 H216       -4.7595  -20.1998  -51.1156 H         1 UNK         0.0600 
    217 H217       -5.8029  -21.1302  -48.3859 H         1 UNK         0.0600 
    218 H218       -5.9472  -19.5047  -49.0402 H         1 UNK         0.0600 
    219 H219       -4.3616  -20.1507  -48.6534 H         1 UNK         0.0600 
    220 H220       -6.6186  -23.0824  -50.1555 H         1 UNK         0.3000 
    221 H221       -9.1762  -22.1635  -51.1395 H         1 UNK         0.0600 
    222 H222       -8.2012  -24.9855  -50.4381 H         1 UNK         0.0600 
    223 H223       -8.9880  -23.8620  -49.3305 H         1 UNK         0.0600 
    224 H224       -9.8710  -24.5077  -50.7048 H         1 UNK         0.0600 
    225 H225       -6.5371  -24.1929  -52.4396 H         1 UNK         0.3000 
    226 H226       -7.7479  -24.7473  -54.9818 H         1 UNK         0.0600 
    227 H227       -5.9033  -26.1046  -53.9707 H         1 UNK         0.0600 
    228 H228       -5.4549  -25.5123  -55.5633 H         1 UNK         0.0600 
    229 H229       -4.8030  -24.7356  -54.1268 H         1 UNK         0.0600 
    230 H230       -6.3299  -21.9031  -53.7119 H         1 UNK         0.3000 
    231 H231       -5.7874  -19.8939  -54.4207 H         1 UNK         0.0600 
    232 H232       -7.2461  -20.5263  -57.0413 H         1 UNK         0.0600 
    233 H233       -6.8324  -18.9310  -56.4315 H         1 UNK         0.0600 
    234 H234       -8.0079  -19.9142  -55.5735 H         1 UNK         0.0600 
    235 H235       -3.8149  -21.6850  -54.4702 H         1 UNK         0.3000 
    236 H236       -2.3495  -21.8873  -56.9311 H         1 UNK         0.0600 
    237 H237       -1.4838  -22.4374  -54.0557 H         1 UNK         0.0600 
    238 H238       -2.3130  -23.5934  -55.0974 H         1 UNK         0.0600 
    239 H239       -0.6973  -23.0395  -55.5097 H         1 UNK         0.0600 
    240 H240       -2.8572  -19.2269  -56.6248 H         1 UNK         0.3000 
    241 H241       -0.2294  -18.1188  -56.9324 H         1 UNK         0.0600 
    242 H242       -3.3437  -18.3968  -58.1441 H         1 UNK         0.3800 
    243 H243       -3.3487  -16.9023  -59.0313 H         1 UNK         0.3800 
    244 H244       -1.8906  -16.4808  -54.9868 H         1 UNK         0.0800 
    245 H245       -1.0147  -17.8311  -54.3520 H         1 UNK         0.0800 
    246 H246        1.6714  -18.2024  -54.7721 H         1 UNK         0.0800 
    247 H247        2.6387  -16.8269  -54.2987 H         1 UNK         0.0800 
@<TRIPOS>BOND
     1    1    2 1    
     2    1  127 1    
     3    1  128 1    
     4    1  129 1    
     5    2    3 2    
     6    2    4 am   BACKBONE|DICT|INTERRES
     7    4    5 1    
     8    4  130 1    
     9    5    6 1    
    10    5   65 1    
    11    5  131 1    
    12    6    7 1    
    13    6  132 1    
    14    6  133 1    
    15    7    8 1    
    16    8    9 1    
    17    8  134 1    
    18    8  135 1    
    19    9   10 ar   
    20    9   14 ar   
    21   10   11 ar   
    22   10  136 1    
    23   11   12 ar   
    24   11  126 1    
    25   12   13 ar   
    26   12  137 1    
    27   13   14 ar   
    28   13   15 1    
    29   14  138 1    
    30   15   16 1    
    31   15  139 1    
    32   15  140 1    
    33   16   17 1    
    34   17   18 1    
    35   17  141 1    
    36   17  142 1    
    37   18   19 1    
    38   18   67 1    
    39   18  143 1    
    40   19   20 am   BACKBONE|DICT|INTERRES
    41   19  144 1    
    42   20   21 2    
    43   20   22 1    
    44   22   23 1    
    45   22   24 1    
    46   22  145 1    
    47   23  146 1    
    48   23  147 1    
    49   23  148 1    
    50   24   25 am   BACKBONE|DICT|INTERRES
    51   24  149 1    
    52   25   26 2    
    53   25   27 1    
    54   27   28 1    
    55   27   29 1    
    56   27  150 1    
    57   28  151 1    
    58   28  152 1    
    59   28  153 1    
    60   29   30 am   BACKBONE|DICT|INTERRES
    61   29  154 1    
    62   30   31 2    
    63   30   32 1    
    64   32   33 1    
    65   32   34 1    
    66   32  155 1    
    67   33  156 1    
    68   33  157 1    
    69   33  158 1    
    70   34   35 am   BACKBONE|DICT|INTERRES
    71   34  159 1    
    72   35   36 2    
    73   35   37 1    
    74   37   38 1    
    75   37   39 1    
    76   37  160 1    
    77   38  161 1    
    78   38  162 1    
    79   38  163 1    
    80   39   40 am   BACKBONE|DICT|INTERRES
    81   39  164 1    
    82   40   41 2    
    83   40   42 1    
    84   42   43 1    
    85   42   44 1    
    86   42  165 1    
    87   43  166 1    
    88   43  167 1    
    89   43  168 1    
    90   44   45 am   BACKBONE|DICT|INTERRES
    91   44  169 1    
    92   45   46 2    
    93   45   47 1    
    94   47   48 1    
    95   47   49 1    
    96   47  170 1    
    97   48  171 1    
    98   48  172 1    
    99   48  173 1    
   100   49   50 am   BACKBONE|DICT|INTERRES
   101   49  174 1    
   102   50   51 2    
   103   50   52 1    
   104   52   53 1    
   105   52   54 1    
   106   52  175 1    
   107   53  176 1    
   108   53  177 1    
   109   53  178 1    
   110   54   55 am   BACKBONE|DICT|INTERRES
   111   54  179 1    
   112   55   56 2    
   113   55   57 1    
   114   57   58 1    
   115   57   59 1    
   116   57  180 1    
   117   58  181 1    
   118   58  182 1    
   119   58  183 1    
   120   59   60 am   BACKBONE|DICT|INTERRES
   121   59  184 1    
   122   60   61 2    
   123   60   62 1    
   124   62   63 1    
   125   62   64 1    
   126   62  185 1    
   127   63  186 1    
   128   63  187 1    
   129   63  188 1    
   130   64   65 am   BACKBONE|DICT|INTERRES
   131   64  189 1    
   132   65   66 2    
   133   67   68 2    
   134   67   69 am   BACKBONE|DICT|INTERRES
   135   69   70 1    
   136   69  190 1    
   137   70   71 1    
   138   70   72 1    
   139   70  191 1    
   140   71  192 1    
   141   71  193 1    
   142   71  194 1    
   143   72   73 2    
   144   72   74 am   BACKBONE|DICT|INTERRES
   145   74   75 1    
   146   74  195 1    
   147   75   76 1    
   148   75   77 1    
   149   75  196 1    
   150   76  197 1    
   151   76  198 1    
   152   76  199 1    
   153   77   78 2    
   154   77   79 am   BACKBONE|DICT|INTERRES
   155   79   80 1    
   156   79  200 1    
   157   80   81 1    
   158   80   82 1    
   159   80  201 1    
   160   81  202 1    
   161   81  203 1    
   162   81  204 1    
   163   82   83 2    
   164   82   84 am   BACKBONE|DICT|INTERRES
   165   84   85 1    
   166   84  205 1    
   167   85   86 1    
   168   85   87 1    
   169   85  206 1    
   170   86  207 1    
   171   86  208 1    
   172   86  209 1    
   173   87   88 2    
   174   87   89 am   BACKBONE|DICT|INTERRES
   175   89   90 1    
   176   89  210 1    
   177   90   91 1    
   178   90   92 1    
   179   90  211 1    
   180   91  212 1    
   181   91  213 1    
   182   91  214 1    
   183   92   93 2    
   184   92   94 am   BACKBONE|DICT|INTERRES
   185   94   95 1    
   186   94  215 1    
   187   95   96 1    
   188   95   97 1    
   189   95  216 1    
   190   96  217 1    
   191   96  218 1    
   192   96  219 1    
   193   97   98 2    
   194   97   99 am   BACKBONE|DICT|INTERRES
   195   99  100 1    
   196   99  220 1    
   197  100  101 1    
   198  100  102 1    
   199  100  221 1    
   200  101  222 1    
   201  101  223 1    
   202  101  224 1    
   203  102  103 2    
   204  102  104 am   BACKBONE|DICT|INTERRES
   205  104  105 1    
   206  104  225 1    
   207  105  106 1    
   208  105  107 1    
   209  105  226 1    
   210  106  227 1    
   211  106  228 1    
   212  106  229 1    
   213  107  108 2    
   214  107  109 am   BACKBONE|DICT|INTERRES
   215  109  110 1    
   216  109  230 1    
   217  110  111 1    
   218  110  112 1    
   219  110  231 1    
   220  111  232 1    
   221  111  233 1    
   222  111  234 1    
   223  112  113 2    
   224  112  114 am   BACKBONE|DICT|INTERRES
   225  114  115 1    
   226  114  235 1    
   227  115  116 1    
   228  115  117 1    
   229  115  236 1    
   230  116  237 1    
   231  116  238 1    
   232  116  239 1    
   233  117  118 2    
   234  117  119 am   BACKBONE|DICT|INTERRES
   235  119  120 1    
   236  119  240 1    
   237  120  121 1    
   238  120  124 1    
   239  120  241 1    
   240  121  122 am   BACKBONE|DICT|INTERRES
   241  121  123 2    
   242  122  242 1    
   243  122  243 1    
   244  124  125 1    
   245  124  244 1    
   246  124  245 1    
   247  125  126 1    
   248  126  246 1    
   249  126  247 1    
@<TRIPOS>SUBSTRUCTURE
     1 UNK         1 GROUP             0       ****    0 ROOT    
