@<TRIPOS>MOLECULE
3R540
247   249    1
SMALL
USER_CHARGES


@<TRIPOS>ATOM
      1 CA          2.6119  -15.8875  -50.8312 C.3       0 UNK        -0.1800 
      2 C           1.8720  -15.0016  -49.8395 C.2       0 UNK         0.5000 
      3 O           1.4207  -13.9186  -50.2113 O.2       0 UNK        -0.5000 
      4 N           1.7655  -15.4509  -48.5795 N.am      1 UNK        -0.5000 
      5 CA          1.0915  -14.7675  -47.4625 C.3       1 UNK         0.1400 
      6 C6         -0.4429  -14.6080  -47.6700 C.3       23 UNK        -0.0398 
      7 S7         -1.3428  -16.1812  -47.4683 S.3       23 UNK        -0.2404 
      8 C8         -1.9111  -16.5780  -49.1605 C.3       23 UNK        -0.0205 
      9 C9         -0.9556  -17.4214  -50.0073 C.ar      23 UNK        -0.0193 
     10 C10        -1.1560  -17.4735  -51.3888 C.ar      23 UNK        -0.1150 
     11 C11        -0.3405  -18.2648  -52.2006 C.ar      23 UNK        -0.0193 
     12 C12         0.7070  -18.9878  -51.6248 C.ar      23 UNK        -0.1150 
     13 C13         0.9325  -18.9525  -50.2452 C.ar      23 UNK        -0.0193 
     14 C14         0.0804  -18.1795  -49.4481 C.ar      23 UNK        -0.1150 
     15 C15         2.0893  -19.7753  -49.6672 C.3       23 UNK        -0.0205 
     16 S16         2.8871  -19.1040  -48.1640 S.3       23 UNK        -0.2404 
     17 C17         1.8451  -19.5339  -46.7170 C.3       23 UNK        -0.0398 
     18 CA          1.2304  -20.9590  -46.6045 C.3       11 UNK         0.1400 
     19 N           0.9929  -21.3064  -45.1975 N.am      11 UNK        -0.5000 
     20 C           0.4972  -22.4605  -44.7271 C.2       10 UNK         0.5000 
     21 O           0.2507  -23.4417  -45.4265 O.2       10 UNK        -0.5000 
     22 CA          0.1615  -22.5031  -43.2245 C.3       10 UNK         0.1400 
     23 CB          1.4171  -22.7597  -42.3777 C.3       10 UNK        -0.1800 
     24 N          -0.5044  -21.2804  -42.7704 N.am      10 UNK        -0.5000 
     25 C          -1.7294  -20.9009  -43.1640 C.2       9 UNK         0.5000 
     26 O          -2.4435  -21.5684  -43.9127 O.2       9 UNK        -0.5000 
     27 CA         -2.2225  -19.5250  -42.6766 C.3       9 UNK         0.1400 
     28 CB         -2.7708  -19.6182  -41.2451 C.3       9 UNK        -0.1800 
     29 N          -1.1855  -18.4932  -42.7429 N.am      9 UNK        -0.5000 
     30 C          -0.5967  -18.0897  -43.8779 C.2       8 UNK         0.5000 
     31 O          -0.9092  -18.5097  -44.9889 O.2       8 UNK        -0.5000 
     32 CA          0.5853  -17.1124  -43.7550 C.3       8 UNK         0.1400 
     33 CB          0.0966  -15.6623  -43.6388 C.3       8 UNK        -0.1800 
     34 N           1.4622  -17.4328  -42.6303 N.am      8 UNK        -0.5000 
     35 C           2.1499  -18.5740  -42.4906 C.2       7 UNK         0.5000 
     36 O           2.1559  -19.4724  -43.3300 O.2       7 UNK        -0.5000 
     37 CA          2.9154  -18.7666  -41.1723 C.3       7 UNK         0.1400 
     38 CB          4.2813  -18.0677  -41.2135 C.3       7 UNK        -0.1800 
     39 N           2.1490  -18.2705  -40.0318 N.am      7 UNK        -0.5000 
     40 C           1.1093  -18.9117  -39.4841 C.2       6 UNK         0.5000 
     41 O           0.7135  -20.0165  -39.8584 O.2       6 UNK        -0.5000 
     42 CA          0.3758  -18.1809  -38.3429 C.3       6 UNK         0.1400 
     43 CB          1.0815  -18.4283  -37.0012 C.3       6 UNK        -0.1800 
     44 N           0.2567  -16.7373  -38.5678 N.am      6 UNK        -0.5000 
     45 C          -0.5030  -16.1895  -39.5258 C.2       5 UNK         0.5000 
     46 O          -1.1745  -16.8470  -40.3204 O.2       5 UNK        -0.5000 
     47 CA         -0.4882  -14.6522  -39.6436 C.3       5 UNK         0.1400 
     48 CB         -1.4458  -14.0291  -38.6165 C.3       5 UNK        -0.1800 
     49 N           0.8277  -14.0080  -39.5298 N.am      5 UNK        -0.5000 
     50 C           1.9407  -14.3587  -40.1883 C.2       4 UNK         0.5000 
     51 O           2.0559  -15.4013  -40.8330 O.2       4 UNK        -0.5000 
     52 CA          3.1377  -13.3914  -40.0955 C.3       4 UNK         0.1400 
     53 CB          3.9169  -13.6354  -38.7940 C.3       4 UNK        -0.1800 
     54 N           4.0571  -13.5437  -41.2282 N.am      4 UNK        -0.5000 
     55 C           3.7436  -13.3267  -42.5138 C.2       3 UNK         0.5000 
     56 O           2.6715  -12.8385  -42.8810 O.2       3 UNK        -0.5000 
     57 CA          4.8058  -13.7591  -43.5476 C.3       3 UNK         0.1400 
     58 CB          5.0877  -15.2692  -43.4539 C.3       3 UNK        -0.1800 
     59 N           4.4020  -13.4670  -44.9218 N.am      3 UNK        -0.5000 
     60 C           4.4467  -12.2673  -45.5146 C.2       2 UNK         0.5000 
     61 O           4.8845  -11.2516  -44.9718 O.2       2 UNK        -0.5000 
     62 CA          3.9406  -12.1944  -46.9704 C.3       2 UNK         0.1400 
     63 CB          5.1247  -12.1243  -47.9477 C.3       2 UNK        -0.1800 
     64 N           3.0970  -13.3355  -47.3397 N.am      2 UNK        -0.5000 
     65 C           1.7917  -13.4457  -47.0521 C.2       1 UNK         0.5000 
     66 O           1.1604  -12.5665  -46.4642 O.2       1 UNK        -0.5000 
     67 C          -0.0671  -21.1243  -47.4253 C.2       11 UNK         0.5000 
     68 O          -0.0888  -21.9120  -48.3712 O.2       11 UNK        -0.5000 
     69 N          -1.1392  -20.4373  -47.0050 N.am      12 UNK        -0.5000 
     70 CA         -2.4616  -20.4708  -47.6292 C.3       12 UNK         0.1400 
     71 CB         -3.4147  -19.5415  -46.8621 C.3       12 UNK        -0.1800 
     72 C          -3.0609  -21.8835  -47.7268 C.2       12 UNK         0.5000 
     73 O          -3.6037  -22.2350  -48.7744 O.2       12 UNK        -0.5000 
     74 N          -2.9284  -22.6700  -46.6499 N.am      13 UNK        -0.5000 
     75 CA         -3.3668  -24.0624  -46.5849 C.3       13 UNK         0.1400 
     76 CB         -3.2971  -24.5561  -45.1318 C.3       13 UNK        -0.1800 
     77 C          -2.5616  -24.9869  -47.5158 C.2       13 UNK         0.5000 
     78 O          -3.1597  -25.8018  -48.2188 O.2       13 UNK        -0.5000 
     79 N          -1.2290  -24.8416  -47.5131 N.am      14 UNK        -0.5000 
     80 CA         -0.3059  -25.6393  -48.3218 C.3       14 UNK         0.1400 
     81 CB          1.1350  -25.4037  -47.8431 C.3       14 UNK        -0.1800 
     82 C          -0.4268  -25.3570  -49.8289 C.2       14 UNK         0.5000 
     83 O          -0.4236  -26.2971  -50.6248 O.2       14 UNK        -0.5000 
     84 N          -0.5365  -24.0733  -50.1927 N.am      15 UNK        -0.5000 
     85 CA         -0.6733  -23.6200  -51.5774 C.3       15 UNK         0.1400 
     86 CB         -0.2297  -22.1548  -51.6655 C.3       15 UNK        -0.1800 
     87 C          -2.0990  -23.7722  -52.1354 C.2       15 UNK         0.5000 
     88 O          -2.2643  -23.7274  -53.3537 O.2       15 UNK        -0.5000 
     89 N          -3.0891  -23.9268  -51.2437 N.am      16 UNK        -0.5000 
     90 CA         -4.5299  -23.9151  -51.5064 C.3       16 UNK         0.1400 
     91 CB         -4.9821  -25.1668  -52.2856 C.3       16 UNK        -0.1800 
     92 C          -4.9870  -22.5674  -52.1031 C.2       16 UNK         0.5000 
     93 O          -5.5902  -22.5032  -53.1791 O.2       16 UNK        -0.5000 
     94 N          -4.6774  -21.5014  -51.3545 N.am      17 UNK        -0.5000 
     95 CA         -5.1885  -20.1490  -51.5622 C.3       17 UNK         0.1400 
     96 CB         -4.3683  -19.1750  -50.7065 C.3       17 UNK        -0.1800 
     97 C          -6.6869  -20.0724  -51.2058 C.2       17 UNK         0.5000 
     98 O          -7.2070  -20.9614  -50.5267 O.2       17 UNK        -0.5000 
     99 N          -7.3718  -19.0385  -51.7145 N.am      18 UNK        -0.5000 
    100 CA        -8.8281  -18.8006  -51.6715 C.3       18 UNK         0.1400 
    101 CB        -9.3760  -18.7604  -50.2317 C.3       18 UNK        -0.1800 
    102 C         -9.6338  -19.7703  -52.5634 C.2       18 UNK         0.5000 
    103 O        -10.5631  -19.3360  -53.2440 O.2       18 UNK        -0.5000 
    104 N         -9.2096  -21.0403  -52.6176 N.am      19 UNK        -0.5000 
    105 CA        -9.5713  -22.0194  -53.6467 C.3       19 UNK         0.1400 
    106 CB        -9.1681  -23.4209  -53.1624 C.3       19 UNK        -0.1800 
    107 C         -8.9218  -21.7052  -55.0143 C.2       19 UNK         0.5000 
    108 O         -9.3650  -22.2406  -56.0306 O.2       19 UNK        -0.5000 
    109 N         -7.9073  -20.8255  -55.0066 N.am      20 UNK        -0.5000 
    110 CA        -7.2028  -20.2441  -56.1509 C.3       20 UNK         0.1400 
    111 CB        -8.1642  -19.4115  -57.0254 C.3       20 UNK        -0.1800 
    112 C         -6.3804  -21.2704  -56.9525 C.2       20 UNK         0.5000 
    113 O         -6.3170  -21.1870  -58.1804 O.2       20 UNK        -0.5000 
    114 N         -5.7336  -22.2050  -56.2421 N.am      21 UNK        -0.5000 
    115 CA        -4.7973  -23.1673  -56.8302 C.3       21 UNK         0.1400 
    116 CB        -4.7050  -24.3914  -55.9151 C.3       21 UNK        -0.1800 
    117 C         -3.3968  -22.5669  -57.0836 C.2       21 UNK         0.5000 
    118 O         -2.6015  -23.1852  -57.7930 O.2       21 UNK        -0.5000 
    119 N         -3.1232  -21.3848  -56.5110 N.am      22 UNK        -0.5000 
    120 CA        -1.9197  -20.5645  -56.7241 C.3       22 UNK         0.1400 
    121 C         -1.6537  -20.2519  -58.2256 C.2       22 UNK         0.5000 
    122 N         -0.4134  -20.3654  -58.6812 N.am      22 UNK        -0.7600 
    123 O         -2.5529  -19.8590  -58.9656 O.2       22 UNK        -0.5000 
    124 C124       -2.0086  -19.2351  -55.9304 C.3       23 UNK        -0.0398 
    125 S125       -1.9459  -19.4653  -54.1198 S.3       23 UNK        -0.2404 
    126 C126       -0.5861  -18.3264  -53.6993 C.3       23 UNK        -0.0205 
    127 H127        3.0146  -16.7817  -50.3556 H         1 UNK         0.0600 
    128 H128        1.9365  -16.2004  -51.6273 H         1 UNK         0.0600 
    129 H129        3.4402  -15.3399  -51.2804 H         1 UNK         0.0600 
    130 H130        2.1534  -16.3574  -48.3584 H         1 UNK         0.3000 
    131 H131        1.2337  -15.4180  -46.5984 H         1 UNK         0.0600 
    132 H132       -0.8738  -13.9381  -46.9248 H         1 UNK         0.0800 
    133 H133       -0.6707  -14.1557  -48.6350 H         1 UNK         0.0800 
    134 H134       -2.1561  -15.6531  -49.6843 H         1 UNK         0.0800 
    135 H135       -2.8460  -17.1318  -49.0716 H         1 UNK         0.0800 
    136 H136       -1.9650  -16.9122  -51.8351 H         1 UNK         0.1150 
    137 H137        1.3437  -19.5922  -52.2554 H         1 UNK         0.1150 
    138 H138        0.2203  -18.1611  -48.3847 H         1 UNK         0.1150 
    139 H139        1.7940  -20.8098  -49.5195 H         1 UNK         0.0800 
    140 H140        2.8764  -19.8192  -50.4214 H         1 UNK         0.0800 
    141 H141        1.0937  -18.7624  -46.5668 H         1 UNK         0.0800 
    142 H142        2.5280  -19.3959  -45.8788 H         1 UNK         0.0800 
    143 H143        1.9595  -21.6766  -46.9856 H         1 UNK         0.0600 
    144 H144        1.2085  -20.5799  -44.5196 H         1 UNK         0.3000 
    145 H145       -0.5263  -23.3359  -43.0633 H         1 UNK         0.0600 
    146 H146        1.1696  -22.8323  -41.3185 H         1 UNK         0.0600 
    147 H147        1.8942  -23.6972  -42.6660 H         1 UNK         0.0600 
    148 H148        2.1570  -21.9682  -42.4933 H         1 UNK         0.0600 
    149 H149        0.0194  -20.6745  -42.1532 H         1 UNK         0.3000 
    150 H150       -3.0391  -19.2164  -43.3324 H         1 UNK         0.0600 
    151 H151       -3.5444  -20.3835  -41.1713 H         1 UNK         0.0600 
    152 H152       -3.2175  -18.6741  -40.9332 H         1 UNK         0.0600 
    153 H153       -1.9882  -19.8701  -40.5289 H         1 UNK         0.0600 
    154 H154       -0.9214  -18.0534  -41.8666 H         1 UNK         0.3000 
    155 H155        1.1793  -17.1939  -44.6669 H         1 UNK         0.0600 
    156 H156       -0.4929  -15.5097  -42.7355 H         1 UNK         0.0600 
    157 H157       -0.5303  -15.3916  -44.4890 H         1 UNK         0.0600 
    158 H158        0.9335  -14.9640  -43.6151 H         1 UNK         0.0600 
    159 H159        1.5553  -16.7226  -41.9055 H         1 UNK         0.3000 
    160 H160        3.0887  -19.8372  -41.0431 H         1 UNK         0.0600 
    161 H161        4.8774  -18.3218  -40.3370 H         1 UNK         0.0600 
    162 H162        4.1756  -16.9839  -41.2389 H         1 UNK         0.0600 
    163 H163        4.8514  -18.3672  -42.0940 H         1 UNK         0.0600 
    164 H164        2.3460  -17.3244  -39.7342 H         1 UNK         0.3000 
    165 H165       -0.6315  -18.5982  -38.2786 H         1 UNK         0.0600 
    166 H166        0.5244  -17.9858  -36.1752 H         1 UNK         0.0600 
    167 H167        1.1687  -19.4965  -36.7975 H         1 UNK         0.0600 
    168 H168        2.0882  -18.0086  -36.9911 H         1 UNK         0.0600 
    169 H169        0.7914  -16.1291  -37.9653 H         1 UNK         0.3000 
    170 H170       -0.8673  -14.4080  -40.6374 H         1 UNK         0.0600 
    171 H171       -2.4396  -14.4738  -38.6868 H         1 UNK         0.0600 
    172 H172       -1.0917  -14.1760  -37.5954 H         1 UNK         0.0600 
    173 H173       -1.5602  -12.9576  -38.7816 H         1 UNK         0.0600 
    174 H174        0.8447  -13.1509  -38.9962 H         1 UNK         0.3000 
    175 H175        2.7591  -12.3674  -40.0997 H         1 UNK         0.0600 
    176 H176        4.3191  -14.6486  -38.7503 H         1 UNK         0.0600 
    177 H177        4.7500  -12.9390  -38.6962 H         1 UNK         0.0600 
    178 H178        3.2781  -13.4983  -37.9206 H         1 UNK         0.0600 
    179 H179        4.9493  -13.9637  -41.0152 H         1 UNK         0.3000 
    180 H180        5.7287  -13.2167  -43.3322 H         1 UNK         0.0600 
    181 H181        4.1730  -15.8563  -43.5517 H         1 UNK         0.0600 
    182 H182        5.5477  -15.5256  -42.4997 H         1 UNK         0.0600 
    183 H183        5.7784  -15.5930  -44.2328 H         1 UNK         0.0600 
    184 H184        3.9962  -14.2304  -45.4396 H         1 UNK         0.3000 
    185 H185        3.3616  -11.2741  -47.0726 H         1 UNK         0.0600 
    186 H186        5.7618  -11.2662  -47.7293 H         1 UNK         0.0600 
    187 H187        5.7474  -13.0181  -47.8916 H         1 UNK         0.0600 
    188 H188        4.7805  -12.0180  -48.9767 H         1 UNK         0.0600 
    189 H189        3.5427  -14.0881  -47.8440 H         1 UNK         0.3000 
    190 H190       -1.0413  -19.8089  -46.2084 H         1 UNK         0.3000 
    191 H191       -2.3468  -20.0882  -48.6450 H         1 UNK         0.0600 
    192 H192       -3.5014  -19.8327  -45.8152 H         1 UNK         0.0600 
    193 H193       -4.4177  -19.5601  -47.2891 H         1 UNK         0.0600 
    194 H194       -3.0680  -18.5099  -46.8898 H         1 UNK         0.0600 
    195 H195       -2.5055  -22.2851  -45.8111 H         1 UNK         0.3000 
    196 H196       -4.4107  -24.0988  -46.9034 H         1 UNK         0.0600 
    197 H197       -3.6279  -25.5925  -45.0539 H         1 UNK         0.0600 
    198 H198       -3.9389  -23.9599  -44.4828 H         1 UNK         0.0600 
    199 H199       -2.2823  -24.5031  -44.7362 H         1 UNK         0.0600 
    200 H200       -0.8065  -24.1599  -46.8880 H         1 UNK         0.3000 
    201 H201       -0.5452  -26.6927  -48.1621 H         1 UNK         0.0600 
    202 H202        1.2558  -25.6976  -46.8003 H         1 UNK         0.0600 
    203 H203        1.4208  -24.3545  -47.9295 H         1 UNK         0.0600 
    204 H204        1.8443  -25.9885  -48.4301 H         1 UNK         0.0600 
    205 H205       -0.4906  -23.3494  -49.4771 H         1 UNK         0.3000 
    206 H206       -0.0081  -24.2122  -52.2094 H         1 UNK         0.0600 
    207 H207        0.8056  -22.0410  -51.3465 H         1 UNK         0.0600 
    208 H208       -0.2964  -21.7840  -52.6891 H         1 UNK         0.0600 
    209 H209       -0.8499  -21.5084  -51.0423 H         1 UNK         0.0600 
    210 H210       -2.8335  -23.9123  -50.2652 H         1 UNK         0.3000 
    211 H211       -5.0135  -23.9711  -50.5298 H         1 UNK         0.0600 
    212 H212       -4.3781  -25.3517  -53.1702 H         1 UNK         0.0600 
    213 H213       -6.0227  -25.0859  -52.6016 H         1 UNK         0.0600 
    214 H214       -4.9056  -26.0539  -51.6570 H         1 UNK         0.0600 
    215 H215       -4.2223  -21.6771  -50.4624 H         1 UNK         0.3000 
    216 H216       -5.0594  -19.8910  -52.6154 H         1 UNK         0.0600 
    217 H217       -4.6311  -18.1396  -50.9251 H         1 UNK         0.0600 
    218 H218       -3.3016  -19.2882  -50.8999 H         1 UNK         0.0600 
    219 H219       -4.5367  -19.3396  -49.6430 H         1 UNK         0.0600 
    220 H220       -6.8557  -18.3546  -52.2511 H         1 UNK         0.3000 
    221 H221       -8.9693  -17.8047  -52.0947 H         1 UNK         0.0600 
    222 H222       -9.3549  -19.7397  -49.7536 H         1 UNK         0.0600 
    223 H223       -8.8047  -18.0701  -49.6112 H         1 UNK         0.0600 
    224 H224      -10.4129  -18.4227  -50.2244 H         1 UNK         0.0600 
    225 H225       -8.4746  -21.3087  -51.9700 H         1 UNK         0.3000 
    226 H226      -10.6545  -21.9980  -53.7816 H         1 UNK         0.0600 
    227 H227       -9.6659  -23.6727  -52.2259 H         1 UNK         0.0600 
    228 H228       -9.4451  -24.1821  -53.8928 H         1 UNK         0.0600 
    229 H229       -8.0927  -23.4975  -53.0012 H         1 UNK         0.0600 
    230 H230       -7.6087  -20.4962  -54.1016 H         1 UNK         0.3000 
    231 H231       -6.4737  -19.5507  -55.7292 H         1 UNK         0.0600 
    232 H232       -8.7146  -18.6863  -56.4258 H         1 UNK         0.0600 
    233 H233       -8.8903  -20.0396  -57.5422 H         1 UNK         0.0600 
    234 H234       -7.6170  -18.8531  -57.7858 H         1 UNK         0.0600 
    235 H235       -5.8351  -22.2312  -55.2317 H         1 UNK         0.3000 
    236 H236       -5.1902  -23.5010  -57.7929 H         1 UNK         0.0600 
    237 H237       -4.0841  -25.1709  -56.3580 H         1 UNK         0.0600 
    238 H238       -4.2568  -24.1142  -54.9647 H         1 UNK         0.0600 
    239 H239       -5.6869  -24.8215  -55.7171 H         1 UNK         0.0600 
    240 H240       -3.8316  -20.9777  -55.9212 H         1 UNK         0.3000 
    241 H241       -1.0733  -21.1390  -56.3430 H         1 UNK         0.0600 
    242 H242       -0.2256  -20.1496  -59.6483 H         1 UNK         0.3800 
    243 H243        0.3416  -20.6797  -58.0910 H         1 UNK         0.3800 
    244 H244       -1.1944  -18.5688  -56.2221 H         1 UNK         0.0800 
    245 H245       -2.9280  -18.7020  -56.1791 H         1 UNK         0.0800 
    246 H246        0.3212  -18.6403  -54.2180 H         1 UNK         0.0800 
    247 H247       -0.8230  -17.3269  -54.0674 H         1 UNK         0.0800 
@<TRIPOS>BOND
     1    1    2 1    
     2    1  127 1    
     3    1  128 1    
     4    1  129 1    
     5    2    3 2    
     6    2    4 am   BACKBONE|DICT|INTERRES
     7    4    5 1    
     8    4  130 1    
     9    5    6 1    
    10    5   65 1    
    11    5  131 1    
    12    6    7 1    
    13    6  132 1    
    14    6  133 1    
    15    7    8 1    
    16    8    9 1    
    17    8  134 1    
    18    8  135 1    
    19    9   10 ar   
    20    9   14 ar   
    21   10   11 ar   
    22   10  136 1    
    23   11   12 ar   
    24   11  126 1    
    25   12   13 ar   
    26   12  137 1    
    27   13   14 ar   
    28   13   15 1    
    29   14  138 1    
    30   15   16 1    
    31   15  139 1    
    32   15  140 1    
    33   16   17 1    
    34   17   18 1    
    35   17  141 1    
    36   17  142 1    
    37   18   19 1    
    38   18   67 1    
    39   18  143 1    
    40   19   20 am   BACKBONE|DICT|INTERRES
    41   19  144 1    
    42   20   21 2    
    43   20   22 1    
    44   22   23 1    
    45   22   24 1    
    46   22  145 1    
    47   23  146 1    
    48   23  147 1    
    49   23  148 1    
    50   24   25 am   BACKBONE|DICT|INTERRES
    51   24  149 1    
    52   25   26 2    
    53   25   27 1    
    54   27   28 1    
    55   27   29 1    
    56   27  150 1    
    57   28  151 1    
    58   28  152 1    
    59   28  153 1    
    60   29   30 am   BACKBONE|DICT|INTERRES
    61   29  154 1    
    62   30   31 2    
    63   30   32 1    
    64   32   33 1    
    65   32   34 1    
    66   32  155 1    
    67   33  156 1    
    68   33  157 1    
    69   33  158 1    
    70   34   35 am   BACKBONE|DICT|INTERRES
    71   34  159 1    
    72   35   36 2    
    73   35   37 1    
    74   37   38 1    
    75   37   39 1    
    76   37  160 1    
    77   38  161 1    
    78   38  162 1    
    79   38  163 1    
    80   39   40 am   BACKBONE|DICT|INTERRES
    81   39  164 1    
    82   40   41 2    
    83   40   42 1    
    84   42   43 1    
    85   42   44 1    
    86   42  165 1    
    87   43  166 1    
    88   43  167 1    
    89   43  168 1    
    90   44   45 am   BACKBONE|DICT|INTERRES
    91   44  169 1    
    92   45   46 2    
    93   45   47 1    
    94   47   48 1    
    95   47   49 1    
    96   47  170 1    
    97   48  171 1    
    98   48  172 1    
    99   48  173 1    
   100   49   50 am   BACKBONE|DICT|INTERRES
   101   49  174 1    
   102   50   51 2    
   103   50   52 1    
   104   52   53 1    
   105   52   54 1    
   106   52  175 1    
   107   53  176 1    
   108   53  177 1    
   109   53  178 1    
   110   54   55 am   BACKBONE|DICT|INTERRES
   111   54  179 1    
   112   55   56 2    
   113   55   57 1    
   114   57   58 1    
   115   57   59 1    
   116   57  180 1    
   117   58  181 1    
   118   58  182 1    
   119   58  183 1    
   120   59   60 am   BACKBONE|DICT|INTERRES
   121   59  184 1    
   122   60   61 2    
   123   60   62 1    
   124   62   63 1    
   125   62   64 1    
   126   62  185 1    
   127   63  186 1    
   128   63  187 1    
   129   63  188 1    
   130   64   65 am   BACKBONE|DICT|INTERRES
   131   64  189 1    
   132   65   66 2    
   133   67   68 2    
   134   67   69 am   BACKBONE|DICT|INTERRES
   135   69   70 1    
   136   69  190 1    
   137   70   71 1    
   138   70   72 1    
   139   70  191 1    
   140   71  192 1    
   141   71  193 1    
   142   71  194 1    
   143   72   73 2    
   144   72   74 am   BACKBONE|DICT|INTERRES
   145   74   75 1    
   146   74  195 1    
   147   75   76 1    
   148   75   77 1    
   149   75  196 1    
   150   76  197 1    
   151   76  198 1    
   152   76  199 1    
   153   77   78 2    
   154   77   79 am   BACKBONE|DICT|INTERRES
   155   79   80 1    
   156   79  200 1    
   157   80   81 1    
   158   80   82 1    
   159   80  201 1    
   160   81  202 1    
   161   81  203 1    
   162   81  204 1    
   163   82   83 2    
   164   82   84 am   BACKBONE|DICT|INTERRES
   165   84   85 1    
   166   84  205 1    
   167   85   86 1    
   168   85   87 1    
   169   85  206 1    
   170   86  207 1    
   171   86  208 1    
   172   86  209 1    
   173   87   88 2    
   174   87   89 am   BACKBONE|DICT|INTERRES
   175   89   90 1    
   176   89  210 1    
   177   90   91 1    
   178   90   92 1    
   179   90  211 1    
   180   91  212 1    
   181   91  213 1    
   182   91  214 1    
   183   92   93 2    
   184   92   94 am   BACKBONE|DICT|INTERRES
   185   94   95 1    
   186   94  215 1    
   187   95   96 1    
   188   95   97 1    
   189   95  216 1    
   190   96  217 1    
   191   96  218 1    
   192   96  219 1    
   193   97   98 2    
   194   97   99 am   BACKBONE|DICT|INTERRES
   195   99  100 1    
   196   99  220 1    
   197  100  101 1    
   198  100  102 1    
   199  100  221 1    
   200  101  222 1    
   201  101  223 1    
   202  101  224 1    
   203  102  103 2    
   204  102  104 am   BACKBONE|DICT|INTERRES
   205  104  105 1    
   206  104  225 1    
   207  105  106 1    
   208  105  107 1    
   209  105  226 1    
   210  106  227 1    
   211  106  228 1    
   212  106  229 1    
   213  107  108 2    
   214  107  109 am   BACKBONE|DICT|INTERRES
   215  109  110 1    
   216  109  230 1    
   217  110  111 1    
   218  110  112 1    
   219  110  231 1    
   220  111  232 1    
   221  111  233 1    
   222  111  234 1    
   223  112  113 2    
   224  112  114 am   BACKBONE|DICT|INTERRES
   225  114  115 1    
   226  114  235 1    
   227  115  116 1    
   228  115  117 1    
   229  115  236 1    
   230  116  237 1    
   231  116  238 1    
   232  116  239 1    
   233  117  118 2    
   234  117  119 am   BACKBONE|DICT|INTERRES
   235  119  120 1    
   236  119  240 1    
   237  120  121 1    
   238  120  124 1    
   239  120  241 1    
   240  121  122 am   BACKBONE|DICT|INTERRES
   241  121  123 2    
   242  122  242 1    
   243  122  243 1    
   244  124  125 1    
   245  124  244 1    
   246  124  245 1    
   247  125  126 1    
   248  126  246 1    
   249  126  247 1    
@<TRIPOS>SUBSTRUCTURE
     1 UNK         1 GROUP             0       ****    0 ROOT    
