@<TRIPOS>MOLECULE
3R540
247   249    1
SMALL
USER_CHARGES


@<TRIPOS>ATOM
      1 CA          2.1208  -15.4312  -52.4164 C.3       0 UNK        -0.1800 
      2 C           2.9975  -14.7978  -51.3460 C.2       0 UNK         0.5000 
      3 O           4.1299  -14.4056  -51.6301 O.2       0 UNK        -0.5000 
      4 N           2.4842  -14.7143  -50.1148 N.am      1 UNK        -0.5000 
      5 CA          3.1552  -14.1207  -48.9568 C.3       1 UNK         0.1400 
      6 C6          2.5029  -14.6031  -47.6359 C.3       23 UNK        -0.0398 
      7 S7          0.7668  -14.0600  -47.4263 S.3       23 UNK        -0.2404 
      8 C8         -0.1017  -15.6269  -47.1588 C.3       23 UNK        -0.0205 
      9 C9         -0.1761  -16.4829  -48.4111 C.ar      23 UNK        -0.0193 
     10 C10        -1.1178  -16.1917  -49.3995 C.ar      23 UNK        -0.1150 
     11 C11        -1.2293  -16.9997  -50.5333 C.ar      23 UNK        -0.0193 
     12 C12        -0.3888  -18.1083  -50.6747 C.ar      23 UNK        -0.1150 
     13 C13         0.5563  -18.4144  -49.6896 C.ar      23 UNK        -0.0193 
     14 C14         0.6628  -17.5893  -48.5647 C.ar      23 UNK        -0.1150 
     15 C15         1.4585  -19.6343  -49.8518 C.3       23 UNK        -0.0205 
     16 S16         1.5644  -20.6690  -48.3512 S.3       23 UNK        -0.2404 
     17 C17        -0.1889  -21.0838  -48.0691 C.3       23 UNK        -0.0398 
     18 CA         -0.3516  -22.3842  -47.2487 C.3       11 UNK         0.1400 
     19 N           0.1207  -22.2371  -45.8651 N.am      11 UNK        -0.5000 
     20 C           0.2590  -23.2313  -44.9758 C.2       10 UNK         0.5000 
     21 O          -0.0648  -24.3974  -45.1996 O.2       10 UNK        -0.5000 
     22 CA          0.8090  -22.8575  -43.5893 C.3       10 UNK         0.1400 
     23 CB          2.2886  -22.4491  -43.6616 C.3       10 UNK        -0.1800 
     24 N           0.0227  -21.7947  -42.9674 N.am      10 UNK        -0.5000 
     25 C          -1.2234  -21.9575  -42.5001 C.2       9 UNK         0.5000 
     26 O          -1.8072  -23.0412  -42.4745 O.2       9 UNK        -0.5000 
     27 CA         -1.9536  -20.6973  -41.9981 C.3       9 UNK         0.1400 
     28 CB         -1.6362  -20.4403  -40.5175 C.3       9 UNK        -0.1800 
     29 N          -1.6354  -19.4988  -42.7735 N.am      9 UNK        -0.5000 
     30 C          -1.9044  -19.3325  -44.0763 C.2       8 UNK         0.5000 
     31 O          -2.4846  -20.1645  -44.7728 O.2       8 UNK        -0.5000 
     32 CA         -1.3741  -18.0398  -44.7192 C.3       8 UNK         0.1400 
     33 CB         -2.2678  -16.8434  -44.3542 C.3       8 UNK        -0.1800 
     34 N           0.0123  -17.7658  -44.3338 N.am      8 UNK        -0.5000 
     35 C           1.0471  -18.5723  -44.6143 C.2       7 UNK         0.5000 
     36 O           0.9408  -19.6229  -45.2408 O.2       7 UNK        -0.5000 
     37 CA          2.4226  -18.1679  -44.0636 C.3       7 UNK         0.1400 
     38 CB          3.1153  -17.1690  -45.0003 C.3       7 UNK        -0.1800 
     39 N           2.3167  -17.6060  -42.7191 N.am      7 UNK        -0.5000 
     40 C           2.0200  -18.3284  -41.6288 C.2       6 UNK         0.5000 
     41 O           1.8728  -19.5508  -41.6360 O.2       6 UNK        -0.5000 
     42 CA          1.8056  -17.5422  -40.3227 C.3       6 UNK         0.1400 
     43 CB          3.1474  -17.2670  -39.6278 C.3       6 UNK        -0.1800 
     44 N           1.1034  -16.2761  -40.5433 N.am      6 UNK        -0.5000 
     45 C          -0.1666  -16.1794  -40.9622 C.2       5 UNK         0.5000 
     46 O          -0.8937  -17.1526  -41.1604 O.2       5 UNK        -0.5000 
     47 CA         -0.6982  -14.7621  -41.2484 C.3       5 UNK         0.1400 
     48 CB         -1.3375  -14.1625  -39.9875 C.3       5 UNK        -0.1800 
     49 N           0.3287  -13.8457  -41.7549 N.am      5 UNK        -0.5000 
     50 C           0.9522  -13.9797  -42.9325 C.2       4 UNK         0.5000 
     51 O           0.7429  -14.9106  -43.7136 O.2       4 UNK        -0.5000 
     52 CA          2.0158  -12.9233  -43.2741 C.3       4 UNK         0.1400 
     53 CB          3.4022  -13.5681  -43.4282 C.3       4 UNK        -0.1800 
     54 N           1.6734  -12.2258  -44.5102 N.am      4 UNK        -0.5000 
     55 C           0.8402  -11.1806  -44.5910 C.2       3 UNK         0.5000 
     56 O           0.2760  -10.6906  -43.6107 O.2       3 UNK        -0.5000 
     57 CA          0.6022  -10.5867  -45.9996 C.3       3 UNK         0.1400 
     58 CB          0.0995   -9.1283  -45.9581 C.3       3 UNK        -0.1800 
     59 N           1.7544  -10.7118  -46.9045 N.am      3 UNK        -0.5000 
     60 C           2.9821  -10.1895  -46.7552 C.2       2 UNK         0.5000 
     61 O           3.3148   -9.4940  -45.7942 O.2       2 UNK        -0.5000 
     62 CA          4.0145  -10.5374  -47.8543 C.3       2 UNK         0.1400 
     63 CB          5.4476  -10.1204  -47.4763 C.3       2 UNK        -0.1800 
     64 N           4.0070  -11.9731  -48.1492 N.am      2 UNK        -0.5000 
     65 C           3.1914  -12.5764  -49.0234 C.2       1 UNK         0.5000 
     66 O           2.4269  -11.9599  -49.7704 O.2       1 UNK        -0.5000 
     67 C          -1.7963  -22.9124  -47.3491 C.2       11 UNK         0.5000 
     68 O          -2.1235  -23.5683  -48.3396 O.2       11 UNK        -0.5000 
     69 N          -2.6252  -22.6780  -46.3221 N.am      12 UNK        -0.5000 
     70 CA         -3.9611  -23.2611  -46.1907 C.3       12 UNK         0.1400 
     71 CB         -4.6309  -22.7480  -44.9085 C.3       12 UNK        -0.1800 
     72 C          -3.9581  -24.8032  -46.2231 C.2       12 UNK         0.5000 
     73 O          -4.8625  -25.3939  -46.8139 O.2       12 UNK        -0.5000 
     74 N          -2.9226  -25.4184  -45.6393 N.am      13 UNK        -0.5000 
     75 CA         -2.6960  -26.8594  -45.6771 C.3       13 UNK         0.1400 
     76 CB         -2.1454  -27.3194  -44.3173 C.3       13 UNK        -0.1800 
     77 C          -1.7320  -27.2339  -46.8143 C.2       13 UNK         0.5000 
     78 O          -2.0616  -28.0876  -47.6380 O.2       13 UNK        -0.5000 
     79 N          -0.5562  -26.5917  -46.8363 N.am      14 UNK        -0.5000 
     80 CA          0.5868  -26.9513  -47.6779 C.3       14 UNK         0.1400 
     81 CB          1.8328  -26.2060  -47.1743 C.3       14 UNK        -0.1800 
     82 C           0.3850  -26.6933  -49.1804 C.2       14 UNK         0.5000 
     83 O           1.0035  -27.3836  -49.9916 O.2       14 UNK        -0.5000 
     84 N          -0.4628  -25.7172  -49.5251 N.am      15 UNK        -0.5000 
     85 CA         -0.7765  -25.3324  -50.9004 C.3       15 UNK         0.1400 
     86 CB         -0.2666  -23.9016  -51.1574 C.3       15 UNK        -0.1800 
     87 C          -2.2776  -25.4912  -51.2034 C.2       15 UNK         0.5000 
     88 O          -2.7507  -24.8991  -52.1717 O.2       15 UNK        -0.5000 
     89 N          -2.9905  -26.2915  -50.3916 N.am      16 UNK        -0.5000 
     90 CA         -4.3984  -26.6857  -50.5310 C.3       16 UNK         0.1400 
     91 CB         -4.5571  -27.6644  -51.7122 C.3       16 UNK        -0.1800 
     92 C          -5.3490  -25.4767  -50.6433 C.2       16 UNK         0.5000 
     93 O          -5.7642  -25.1107  -51.7450 O.2       16 UNK        -0.5000 
     94 N          -5.6393  -24.8557  -49.4921 N.am      17 UNK        -0.5000 
     95 CA         -6.4294  -23.6296  -49.3350 C.3       17 UNK         0.1400 
     96 CB         -7.8919  -23.8425  -49.7827 C.3       17 UNK        -0.1800 
     97 C          -5.7604  -22.4128  -50.0074 C.2       17 UNK         0.5000 
     98 O          -6.4547  -21.5699  -50.5765 O.2       17 UNK        -0.5000 
     99 N          -4.4188  -22.3597  -49.9476 N.am      18 UNK        -0.5000 
    100 CA        -3.5517  -21.3281  -50.5279 C.3       18 UNK         0.1400 
    101 CB        -3.6843  -20.0118  -49.7361 C.3       18 UNK        -0.1800 
    102 C         -3.7608  -21.1604  -52.0480 C.2       18 UNK         0.5000 
    103 O         -3.9022  -20.0395  -52.5379 O.2       18 UNK        -0.5000 
    104 N         -3.8147  -22.3029  -52.7500 N.am      19 UNK        -0.5000 
    105 CA        -4.0855  -22.4753  -54.1807 C.3       19 UNK         0.1400 
    106 CB        -2.9779  -21.8193  -55.0314 C.3       19 UNK        -0.1800 
    107 C         -5.5038  -22.0388  -54.6087 C.2       19 UNK         0.5000 
    108 O         -5.7293  -21.7909  -55.7937 O.2       19 UNK        -0.5000 
    109 N         -6.4314  -21.9373  -53.6440 N.am      20 UNK        -0.5000 
    110 CA        -7.8229  -21.4702  -53.7286 C.3       20 UNK         0.1400 
    111 CB        -8.6494  -22.3051  -54.7251 C.3       20 UNK        -0.1800 
    112 C         -7.9704  -19.9576  -53.9974 C.2       20 UNK         0.5000 
    113 O         -8.8869  -19.3377  -53.4559 O.2       20 UNK        -0.5000 
    114 N         -7.0653  -19.3820  -54.7923 N.am      21 UNK        -0.5000 
    115 CA        -6.9081  -17.9567  -55.0393 C.3       21 UNK         0.1400 
    116 CB        -7.7265  -17.5465  -56.2744 C.3       21 UNK        -0.1800 
    117 C         -5.4121  -17.6796  -55.2398 C.2       21 UNK         0.5000 
    118 O         -4.7066  -18.5186  -55.8052 O.2       21 UNK        -0.5000 
    119 N         -4.9582  -16.5087  -54.7812 N.am      22 UNK        -0.5000 
    120 CA        -3.5451  -16.0913  -54.8158 C.3       22 UNK         0.1400 
    121 C         -3.0436  -15.5737  -56.1984 C.2       22 UNK         0.5000 
    122 N         -3.9022  -15.4000  -57.1961 N.am      22 UNK        -0.7600 
    123 O         -1.8530  -15.3315  -56.3745 O.2       22 UNK        -0.5000 
    124 C124       -3.2369  -15.0895  -53.6666 C.3       23 UNK        -0.0398 
    125 S125       -1.6825  -15.4662  -52.7902 S.3       23 UNK        -0.2404 
    126 C126       -2.2830  -16.6868  -51.5825 C.3       23 UNK        -0.0205 
    127 H127        1.7798  -14.6737  -53.1220 H         1 UNK         0.0600 
    128 H128        1.2449  -15.9131  -51.9823 H         1 UNK         0.0600 
    129 H129        2.6814  -16.1868  -52.9667 H         1 UNK         0.0600 
    130 H130        1.5354  -15.0213  -49.9496 H         1 UNK         0.3000 
    131 H131        4.1906  -14.4683  -48.9618 H         1 UNK         0.0600 
    132 H132        2.5573  -15.6900  -47.5887 H         1 UNK         0.0800 
    133 H133        3.0747  -14.2548  -46.7752 H         1 UNK         0.0800 
    134 H134       -1.1128  -15.4069  -46.8170 H         1 UNK         0.0800 
    135 H135        0.3912  -16.1613  -46.3509 H         1 UNK         0.0800 
    136 H136       -1.7717  -15.3389  -49.2813 H         1 UNK         0.1150 
    137 H137       -0.4795  -18.7364  -51.5499 H         1 UNK         0.1150 
    138 H138        1.3855  -17.8253  -47.7966 H         1 UNK         0.1150 
    139 H139        1.1189  -20.2584  -50.6799 H         1 UNK         0.0800 
    140 H140        2.4606  -19.2929  -50.1135 H         1 UNK         0.0800 
    141 H141       -0.6651  -21.1779  -49.0455 H         1 UNK         0.0800 
    142 H142       -0.6767  -20.2461  -47.5670 H         1 UNK         0.0800 
    143 H143        0.2740  -23.1486  -47.7141 H         1 UNK         0.0600 
    144 H144        0.4116  -21.2968  -45.5983 H         1 UNK         0.3000 
    145 H145        0.7424  -23.7445  -42.9557 H         1 UNK         0.0600 
    146 H146        2.6849  -22.2319  -42.6695 H         1 UNK         0.0600 
    147 H147        2.8923  -23.2527  -44.0850 H         1 UNK         0.0600 
    148 H148        2.4417  -21.5659  -44.2808 H         1 UNK         0.0600 
    149 H149        0.4420  -20.8748  -42.9309 H         1 UNK         0.3000 
    150 H150       -3.0263  -20.8781  -42.0926 H         1 UNK         0.0600 
    151 H151       -1.8838  -21.3097  -39.9071 H         1 UNK         0.0600 
    152 H152       -2.2102  -19.5974  -40.1322 H         1 UNK         0.0600 
    153 H153       -0.5787  -20.2208  -40.3657 H         1 UNK         0.0600 
    154 H154       -1.1884  -18.7374  -42.2703 H         1 UNK         0.3000 
    155 H155       -1.3946  -18.1661  -45.8039 H         1 UNK         0.0600 
    156 H156       -2.4264  -16.7660  -43.2791 H         1 UNK         0.0600 
    157 H157       -3.2496  -16.9420  -44.8184 H         1 UNK         0.0600 
    158 H158       -1.8397  -15.8998  -44.6895 H         1 UNK         0.0600 
    159 H159        0.1926  -16.8918  -43.8521 H         1 UNK         0.3000 
    160 H160        3.0417  -19.0662  -44.0125 H         1 UNK         0.0600 
    161 H161        2.5266  -16.2616  -45.1256 H         1 UNK         0.0600 
    162 H162        3.2612  -17.6044  -45.9895 H         1 UNK         0.0600 
    163 H163        4.0971  -16.8852  -44.6213 H         1 UNK         0.0600 
    164 H164        2.3726  -16.6020  -42.6386 H         1 UNK         0.3000 
    165 H165        1.1955  -18.1588  -39.6591 H         1 UNK         0.0600 
    166 H166        2.9997  -16.7754  -38.6661 H         1 UNK         0.0600 
    167 H167        3.6851  -18.1967  -39.4371 H         1 UNK         0.0600 
    168 H168        3.7944  -16.6319  -40.2343 H         1 UNK         0.0600 
    169 H169        1.6288  -15.4273  -40.3955 H         1 UNK         0.3000 
    170 H170       -1.4728  -14.8498  -42.0128 H         1 UNK         0.0600 
    171 H171       -2.1231  -14.8134  -39.6012 H         1 UNK         0.0600 
    172 H172       -0.6056  -14.0228  -39.1911 H         1 UNK         0.0600 
    173 H173       -1.7940  -13.1952  -40.1986 H         1 UNK         0.0600 
    174 H174        0.5476  -13.0500  -41.1727 H         1 UNK         0.3000 
    175 H175        2.0763  -12.1994  -42.4584 H         1 UNK         0.0600 
    176 H176        3.4376  -14.2611  -44.2678 H         1 UNK         0.0600 
    177 H177        4.1692  -12.8107  -43.5917 H         1 UNK         0.0600 
    178 H178        3.6799  -14.1223  -42.5307 H         1 UNK         0.0600 
    179 H179        2.0413  -12.6104  -45.3662 H         1 UNK         0.3000 
    180 H180       -0.1920  -11.1896  -46.4419 H         1 UNK         0.0600 
    181 H181        0.8142   -8.4672  -45.4673 H         1 UNK         0.0600 
    182 H182       -0.8422   -9.0532  -45.4131 H         1 UNK         0.0600 
    183 H183       -0.0786   -8.7440  -46.9624 H         1 UNK         0.0600 
    184 H184        1.5897  -11.2652  -47.7361 H         1 UNK         0.3000 
    185 H185        3.7330   -9.9770  -48.7483 H         1 UNK         0.0600 
    186 H186        5.5106   -9.0455  -47.3024 H         1 UNK         0.0600 
    187 H187        5.7879  -10.6218  -46.5694 H         1 UNK         0.0600 
    188 H188        6.1504  -10.3586  -48.2750 H         1 UNK         0.0600 
    189 H189        4.5974  -12.5409  -47.5585 H         1 UNK         0.3000 
    190 H190       -2.3234  -22.0561  -45.5793 H         1 UNK         0.3000 
    191 H191       -4.5481  -22.9107  -47.0392 H         1 UNK         0.0600 
    192 H192       -4.0553  -23.0113  -44.0210 H         1 UNK         0.0600 
    193 H193       -5.6289  -23.1723  -44.7913 H         1 UNK         0.0600 
    194 H194       -4.7417  -21.6639  -44.9278 H         1 UNK         0.0600 
    195 H195       -2.1891  -24.8547  -45.2264 H         1 UNK         0.3000 
    196 H196       -3.6374  -27.3864  -45.8476 H         1 UNK         0.0600 
    197 H197       -1.9446  -28.3915  -44.3190 H         1 UNK         0.0600 
    198 H198       -2.8620  -27.1242  -43.5194 H         1 UNK         0.0600 
    199 H199       -1.2157  -26.8101  -44.0597 H         1 UNK         0.0600 
    200 H200       -0.3844  -25.8606  -46.1474 H         1 UNK         0.3000 
    201 H201        0.7619  -28.0221  -47.5543 H         1 UNK         0.0600 
    202 H202        2.0279  -26.4265  -46.1246 H         1 UNK         0.0600 
    203 H203        1.7238  -25.1257  -47.2745 H         1 UNK         0.0600 
    204 H204        2.7193  -26.4994  -47.7380 H         1 UNK         0.0600 
    205 H205       -0.9536  -25.1999  -48.8042 H         1 UNK         0.3000 
    206 H206       -0.2679  -25.9905  -51.6073 H         1 UNK         0.0600 
    207 H207        0.8068  -23.8314  -50.9810 H         1 UNK         0.0600 
    208 H208       -0.4439  -23.5963  -52.1894 H         1 UNK         0.0600 
    209 H209       -0.7549  -23.1750  -50.5124 H         1 UNK         0.0600 
    210 H210       -2.4982  -26.7222  -49.6202 H         1 UNK         0.3000 
    211 H211       -4.6652  -27.2243  -49.6200 H         1 UNK         0.0600 
    212 H212       -4.2770  -27.2068  -52.6617 H         1 UNK         0.0600 
    213 H213       -5.5908  -27.9999  -51.8034 H         1 UNK         0.0600 
    214 H214       -3.9383  -28.5510  -51.5736 H         1 UNK         0.0600 
    215 H215       -5.2621  -25.2300  -48.6238 H         1 UNK         0.3000 
    216 H216       -6.4537  -23.4144  -48.2668 H         1 UNK         0.0600 
    217 H217       -8.5094  -22.9849  -49.5135 H         1 UNK         0.0600 
    218 H218       -8.3279  -24.7182  -49.3021 H         1 UNK         0.0600 
    219 H219       -7.9754  -23.9745  -50.8618 H         1 UNK         0.0600 
    220 H220       -3.9286  -23.1108  -49.4764 H         1 UNK         0.3000 
    221 H221       -2.5291  -21.6810  -50.4064 H         1 UNK         0.0600 
    222 H222       -4.6791  -19.5769  -49.8363 H         1 UNK         0.0600 
    223 H223       -3.4905  -20.1688  -48.6748 H         1 UNK         0.0600 
    224 H224       -2.9677  -19.2715  -50.0884 H         1 UNK         0.0600 
    225 H225       -3.6622  -23.1806  -52.2598 H         1 UNK         0.3000 
    226 H226       -4.0414  -23.5505  -54.3596 H         1 UNK         0.0600 
    227 H227       -1.9888  -22.1470  -54.7114 H         1 UNK         0.0600 
    228 H228       -3.0821  -22.0863  -56.0835 H         1 UNK         0.0600 
    229 H229       -3.0097  -20.7311  -54.9684 H         1 UNK         0.0600 
    230 H230       -6.1191  -22.1132  -52.6966 H         1 UNK         0.3000 
    231 H231       -8.2419  -21.6464  -52.7367 H         1 UNK         0.0600 
    232 H232       -8.5714  -23.3702  -54.5069 H         1 UNK         0.0600 
    233 H233       -8.3313  -22.1473  -55.7557 H         1 UNK         0.0600 
    234 H234       -9.7052  -22.0378  -54.6692 H         1 UNK         0.0600 
    235 H235       -6.3408  -19.9651  -55.2025 H         1 UNK         0.3000 
    236 H236       -7.2546  -17.3950  -54.1691 H         1 UNK         0.0600 
    237 H237       -7.6194  -16.4805  -56.4783 H         1 UNK         0.0600 
    238 H238       -7.4057  -18.0876  -57.1656 H         1 UNK         0.0600 
    239 H239       -8.7883  -17.7443  -56.1271 H         1 UNK         0.0600 
    240 H240       -5.6065  -15.8575  -54.3627 H         1 UNK         0.3000 
    241 H241       -2.9621  -16.9963  -54.6324 H         1 UNK         0.0600 
    242 H242       -3.5670  -15.0697  -58.0876 H         1 UNK         0.3800 
    243 H243       -4.8808  -15.6031  -57.0723 H         1 UNK         0.3800 
    244 H244       -4.0382  -15.0827  -52.9264 H         1 UNK         0.0800 
    245 H245       -3.1890  -14.0622  -54.0326 H         1 UNK         0.0800 
    246 H246       -2.5803  -17.5971  -52.1060 H         1 UNK         0.0800 
    247 H247       -3.1806  -16.3105  -51.0895 H         1 UNK         0.0800 
@<TRIPOS>BOND
     1    1    2 1    
     2    1  127 1    
     3    1  128 1    
     4    1  129 1    
     5    2    3 2    
     6    2    4 am   BACKBONE|DICT|INTERRES
     7    4    5 1    
     8    4  130 1    
     9    5    6 1    
    10    5   65 1    
    11    5  131 1    
    12    6    7 1    
    13    6  132 1    
    14    6  133 1    
    15    7    8 1    
    16    8    9 1    
    17    8  134 1    
    18    8  135 1    
    19    9   10 ar   
    20    9   14 ar   
    21   10   11 ar   
    22   10  136 1    
    23   11   12 ar   
    24   11  126 1    
    25   12   13 ar   
    26   12  137 1    
    27   13   14 ar   
    28   13   15 1    
    29   14  138 1    
    30   15   16 1    
    31   15  139 1    
    32   15  140 1    
    33   16   17 1    
    34   17   18 1    
    35   17  141 1    
    36   17  142 1    
    37   18   19 1    
    38   18   67 1    
    39   18  143 1    
    40   19   20 am   BACKBONE|DICT|INTERRES
    41   19  144 1    
    42   20   21 2    
    43   20   22 1    
    44   22   23 1    
    45   22   24 1    
    46   22  145 1    
    47   23  146 1    
    48   23  147 1    
    49   23  148 1    
    50   24   25 am   BACKBONE|DICT|INTERRES
    51   24  149 1    
    52   25   26 2    
    53   25   27 1    
    54   27   28 1    
    55   27   29 1    
    56   27  150 1    
    57   28  151 1    
    58   28  152 1    
    59   28  153 1    
    60   29   30 am   BACKBONE|DICT|INTERRES
    61   29  154 1    
    62   30   31 2    
    63   30   32 1    
    64   32   33 1    
    65   32   34 1    
    66   32  155 1    
    67   33  156 1    
    68   33  157 1    
    69   33  158 1    
    70   34   35 am   BACKBONE|DICT|INTERRES
    71   34  159 1    
    72   35   36 2    
    73   35   37 1    
    74   37   38 1    
    75   37   39 1    
    76   37  160 1    
    77   38  161 1    
    78   38  162 1    
    79   38  163 1    
    80   39   40 am   BACKBONE|DICT|INTERRES
    81   39  164 1    
    82   40   41 2    
    83   40   42 1    
    84   42   43 1    
    85   42   44 1    
    86   42  165 1    
    87   43  166 1    
    88   43  167 1    
    89   43  168 1    
    90   44   45 am   BACKBONE|DICT|INTERRES
    91   44  169 1    
    92   45   46 2    
    93   45   47 1    
    94   47   48 1    
    95   47   49 1    
    96   47  170 1    
    97   48  171 1    
    98   48  172 1    
    99   48  173 1    
   100   49   50 am   BACKBONE|DICT|INTERRES
   101   49  174 1    
   102   50   51 2    
   103   50   52 1    
   104   52   53 1    
   105   52   54 1    
   106   52  175 1    
   107   53  176 1    
   108   53  177 1    
   109   53  178 1    
   110   54   55 am   BACKBONE|DICT|INTERRES
   111   54  179 1    
   112   55   56 2    
   113   55   57 1    
   114   57   58 1    
   115   57   59 1    
   116   57  180 1    
   117   58  181 1    
   118   58  182 1    
   119   58  183 1    
   120   59   60 am   BACKBONE|DICT|INTERRES
   121   59  184 1    
   122   60   61 2    
   123   60   62 1    
   124   62   63 1    
   125   62   64 1    
   126   62  185 1    
   127   63  186 1    
   128   63  187 1    
   129   63  188 1    
   130   64   65 am   BACKBONE|DICT|INTERRES
   131   64  189 1    
   132   65   66 2    
   133   67   68 2    
   134   67   69 am   BACKBONE|DICT|INTERRES
   135   69   70 1    
   136   69  190 1    
   137   70   71 1    
   138   70   72 1    
   139   70  191 1    
   140   71  192 1    
   141   71  193 1    
   142   71  194 1    
   143   72   73 2    
   144   72   74 am   BACKBONE|DICT|INTERRES
   145   74   75 1    
   146   74  195 1    
   147   75   76 1    
   148   75   77 1    
   149   75  196 1    
   150   76  197 1    
   151   76  198 1    
   152   76  199 1    
   153   77   78 2    
   154   77   79 am   BACKBONE|DICT|INTERRES
   155   79   80 1    
   156   79  200 1    
   157   80   81 1    
   158   80   82 1    
   159   80  201 1    
   160   81  202 1    
   161   81  203 1    
   162   81  204 1    
   163   82   83 2    
   164   82   84 am   BACKBONE|DICT|INTERRES
   165   84   85 1    
   166   84  205 1    
   167   85   86 1    
   168   85   87 1    
   169   85  206 1    
   170   86  207 1    
   171   86  208 1    
   172   86  209 1    
   173   87   88 2    
   174   87   89 am   BACKBONE|DICT|INTERRES
   175   89   90 1    
   176   89  210 1    
   177   90   91 1    
   178   90   92 1    
   179   90  211 1    
   180   91  212 1    
   181   91  213 1    
   182   91  214 1    
   183   92   93 2    
   184   92   94 am   BACKBONE|DICT|INTERRES
   185   94   95 1    
   186   94  215 1    
   187   95   96 1    
   188   95   97 1    
   189   95  216 1    
   190   96  217 1    
   191   96  218 1    
   192   96  219 1    
   193   97   98 2    
   194   97   99 am   BACKBONE|DICT|INTERRES
   195   99  100 1    
   196   99  220 1    
   197  100  101 1    
   198  100  102 1    
   199  100  221 1    
   200  101  222 1    
   201  101  223 1    
   202  101  224 1    
   203  102  103 2    
   204  102  104 am   BACKBONE|DICT|INTERRES
   205  104  105 1    
   206  104  225 1    
   207  105  106 1    
   208  105  107 1    
   209  105  226 1    
   210  106  227 1    
   211  106  228 1    
   212  106  229 1    
   213  107  108 2    
   214  107  109 am   BACKBONE|DICT|INTERRES
   215  109  110 1    
   216  109  230 1    
   217  110  111 1    
   218  110  112 1    
   219  110  231 1    
   220  111  232 1    
   221  111  233 1    
   222  111  234 1    
   223  112  113 2    
   224  112  114 am   BACKBONE|DICT|INTERRES
   225  114  115 1    
   226  114  235 1    
   227  115  116 1    
   228  115  117 1    
   229  115  236 1    
   230  116  237 1    
   231  116  238 1    
   232  116  239 1    
   233  117  118 2    
   234  117  119 am   BACKBONE|DICT|INTERRES
   235  119  120 1    
   236  119  240 1    
   237  120  121 1    
   238  120  124 1    
   239  120  241 1    
   240  121  122 am   BACKBONE|DICT|INTERRES
   241  121  123 2    
   242  122  242 1    
   243  122  243 1    
   244  124  125 1    
   245  124  244 1    
   246  124  245 1    
   247  125  126 1    
   248  126  246 1    
   249  126  247 1    
@<TRIPOS>SUBSTRUCTURE
     1 UNK         1 GROUP             0       ****    0 ROOT    
