@<TRIPOS>MOLECULE
3R540
247   249    1
SMALL
USER_CHARGES


@<TRIPOS>ATOM
      1 CA          5.1267  -14.6926  -48.2820 C.3       0 UNK        -0.1800 
      2 C           3.9920  -14.1665  -47.4159 C.2       0 UNK         0.5000 
      3 O           3.9232  -14.4873  -46.2302 O.2       0 UNK        -0.5000 
      4 N           3.1084  -13.3442  -47.9936 N.am      1 UNK        -0.5000 
      5 CA          1.9180  -12.7779  -47.3472 C.3       1 UNK         0.1400 
      6 C6          0.7856  -12.5031  -48.3708 C.3       23 UNK        -0.0398 
      7 S7          0.0417  -14.0487  -48.9822 S.3       23 UNK        -0.2404 
      8 C8          0.8645  -14.2693  -50.5898 C.3       23 UNK        -0.0205 
      9 C9          0.4615  -15.6069  -51.1843 C.ar      23 UNK        -0.0193 
     10 C10        -0.5470  -15.6856  -52.1481 C.ar      23 UNK        -0.1150 
     11 C11        -0.9842  -16.9291  -52.6147 C.ar      23 UNK        -0.0193 
     12 C12        -0.4106  -18.0975  -52.1026 C.ar      23 UNK        -0.1150 
     13 C13         0.6013  -18.0300  -51.1390 C.ar      23 UNK        -0.0193 
     14 C14         1.0547  -16.7786  -50.7106 C.ar      23 UNK        -0.1150 
     15 C15         1.1490  -19.3104  -50.5155 C.3       23 UNK        -0.0205 
     16 S16         1.2501  -19.2561  -48.6871 S.3       23 UNK        -0.2404 
     17 C17        -0.4029  -18.6459  -48.2028 C.3       23 UNK        -0.0398 
     18 CA         -1.3644  -19.7791  -47.7888 C.3       11 UNK         0.1400 
     19 N          -0.9386  -20.4488  -46.5608 N.am      11 UNK        -0.5000 
     20 C          -1.3309  -21.6635  -46.1604 C.2       10 UNK         0.5000 
     21 O          -2.0281  -22.4127  -46.8486 O.2       10 UNK        -0.5000 
     22 CA         -0.9047  -22.0781  -44.7354 C.3       10 UNK         0.1400 
     23 CB         -0.8537  -23.6061  -44.5406 C.3       10 UNK        -0.1800 
     24 N           0.3376  -21.4286  -44.2980 N.am      10 UNK        -0.5000 
     25 C           1.5773  -21.6246  -44.7739 C.2       9 UNK         0.5000 
     26 O           1.8683  -22.4846  -45.6036 O.2       9 UNK        -0.5000 
     27 CA          2.6875  -20.6883  -44.2570 C.3       9 UNK         0.1400 
     28 CB          3.0694  -19.6772  -45.3500 C.3       9 UNK        -0.1800 
     29 N           2.3196  -19.9545  -43.0444 N.am      9 UNK        -0.5000 
     30 C           2.2648  -20.4855  -41.8152 C.2       8 UNK         0.5000 
     31 O           2.5657  -21.6518  -41.5597 O.2       8 UNK        -0.5000 
     32 CA          1.7552  -19.5666  -40.6872 C.3       8 UNK         0.1400 
     33 CB          2.8939  -18.6896  -40.1468 C.3       8 UNK        -0.1800 
     34 N           0.6357  -18.7158  -41.1007 N.am      8 UNK        -0.5000 
     35 C          -0.5664  -19.1717  -41.4830 C.2       7 UNK         0.5000 
     36 O          -0.8667  -20.3642  -41.5284 O.2       7 UNK        -0.5000 
     37 CA         -1.5903  -18.1235  -41.9431 C.3       7 UNK         0.1400 
     38 CB         -2.3044  -17.4749  -40.7481 C.3       7 UNK        -0.1800 
     39 N          -0.9638  -17.0928  -42.7672 N.am      7 UNK        -0.5000 
     40 C          -0.6060  -17.2706  -44.0458 C.2       6 UNK         0.5000 
     41 O          -0.8295  -18.3031  -44.6788 O.2       6 UNK        -0.5000 
     42 CA          0.1303  -16.1044  -44.7288 C.3       6 UNK         0.1400 
     43 CB         -0.8944  -15.1173  -45.3074 C.3       6 UNK        -0.1800 
     44 N           1.0409  -15.4035  -43.8196 N.am      6 UNK        -0.5000 
     45 C           2.1314  -15.9663  -43.2713 C.2       5 UNK         0.5000 
     46 O           2.4948  -17.1156  -43.5139 O.2       5 UNK        -0.5000 
     47 CA          2.9117  -15.1489  -42.2218 C.3       5 UNK         0.1400 
     48 CB          4.0751  -14.4007  -42.8797 C.3       5 UNK        -0.1800 
     49 N           2.0765  -14.2041  -41.4802 N.am      5 UNK        -0.5000 
     50 C           1.0211  -14.5537  -40.7295 C.2       4 UNK         0.5000 
     51 O           0.6988  -15.7251  -40.5239 O.2       4 UNK        -0.5000 
     52 CA          0.1441  -13.4217  -40.1575 C.3       4 UNK         0.1400 
     53 CB          0.4305  -13.2288  -38.6611 C.3       4 UNK        -0.1800 
     54 N           0.2864  -12.1309  -40.8393 N.am      4 UNK        -0.5000 
     55 C           0.0514  -11.8891  -42.1372 C.2       3 UNK         0.5000 
     56 O          -0.3049  -12.7548  -42.9391 O.2       3 UNK        -0.5000 
     57 CA          0.3000  -10.4527  -42.6442 C.3       3 UNK         0.1400 
     58 CB          0.4946   -9.4074  -41.5225 C.3       3 UNK        -0.1800 
     59 N           1.4219  -10.4048  -43.5862 N.am      3 UNK        -0.5000 
     60 C           2.6833  -10.8058  -43.3719 C.2       2 UNK         0.5000 
     61 O           3.0821  -11.2812  -42.3064 O.2       2 UNK        -0.5000 
     62 CA          3.6320  -10.7050  -44.5833 C.3       2 UNK         0.1400 
     63 CB          5.1107  -10.9130  -44.2102 C.3       2 UNK        -0.1800 
     64 N           3.2529  -11.6869  -45.5982 N.am      2 UNK        -0.5000 
     65 C           2.2615  -11.5421  -46.4849 C.2       1 UNK         0.5000 
     66 O           1.6235  -10.4944  -46.6082 O.2       1 UNK        -0.5000 
     67 C          -2.7907  -19.2242  -47.6318 C.2       11 UNK         0.5000 
     68 O          -3.5727  -19.3022  -48.5775 O.2       11 UNK        -0.5000 
     69 N          -3.1251  -18.7210  -46.4332 N.am      12 UNK        -0.5000 
     70 CA         -4.4585  -18.2151  -46.0864 C.3       12 UNK         0.1400 
     71 CB         -4.3978  -17.5205  -44.7181 C.3       12 UNK        -0.1800 
     72 C          -5.5381  -19.3169  -46.0877 C.2       12 UNK         0.5000 
     73 O          -6.6996  -19.0367  -46.3833 O.2       12 UNK        -0.5000 
     74 N          -5.1197  -20.5544  -45.7905 N.am      13 UNK        -0.5000 
     75 CA         -5.9330  -21.7680  -45.8795 C.3       13 UNK         0.1400 
     76 CB         -5.3627  -22.7984  -44.8900 C.3       13 UNK        -0.1800 
     77 C          -5.9662  -22.3632  -47.3036 C.2       13 UNK         0.5000 
     78 O          -6.7152  -23.3108  -47.5384 O.2       13 UNK        -0.5000 
     79 N          -5.1202  -21.8390  -48.2051 N.am      14 UNK        -0.5000 
     80 CA         -4.8357  -22.2843  -49.5751 C.3       14 UNK         0.1400 
     81 CB         -6.0926  -22.2185  -50.4657 C.3       14 UNK        -0.1800 
     82 C          -4.1333  -23.6537  -49.6724 C.2       14 UNK         0.5000 
     83 O          -3.8548  -24.1015  -50.7845 O.2       14 UNK        -0.5000 
     84 N          -3.8167  -24.2880  -48.5357 N.am      15 UNK        -0.5000 
     85 CA         -3.1774  -25.6021  -48.4418 C.3       15 UNK         0.1400 
     86 CB         -3.1649  -26.0540  -46.9756 C.3       15 UNK        -0.1800 
     87 C          -1.7571  -25.6223  -49.0322 C.2       15 UNK         0.5000 
     88 O          -1.3662  -26.6186  -49.6411 O.2       15 UNK        -0.5000 
     89 N          -1.0423  -24.4944  -48.9120 N.am      16 UNK        -0.5000 
     90 CA          0.2593  -24.2539  -49.5439 C.3       16 UNK         0.1400 
     91 CB          0.8215  -22.9281  -49.0194 C.3       16 UNK        -0.1800 
     92 C           0.2060  -24.2284  -51.0866 C.2       16 UNK         0.5000 
     93 O           1.2317  -24.4442  -51.7321 O.2       16 UNK        -0.5000 
     94 N          -0.9865  -23.9808  -51.6421 N.am      17 UNK        -0.5000 
     95 CA         -1.2952  -23.9835  -53.0694 C.3       17 UNK         0.1400 
     96 CB         -1.9484  -22.6361  -53.4199 C.3       17 UNK        -0.1800 
     97 C          -2.2009  -25.1795  -53.4326 C.2       17 UNK         0.5000 
     98 O          -2.9544  -25.1007  -54.4037 O.2       17 UNK        -0.5000 
     99 N          -2.1430  -26.2556  -52.6299 N.am      18 UNK        -0.5000 
    100 CA        -2.8591  -27.5292  -52.7864 C.3       18 UNK         0.1400 
    101 CB        -2.3099  -28.2994  -54.0052 C.3       18 UNK        -0.1800 
    102 C         -4.3982  -27.3916  -52.8182 C.2       18 UNK         0.5000 
    103 O         -5.0732  -28.1986  -53.4587 O.2       18 UNK        -0.5000 
    104 N         -4.9180  -26.3553  -52.1437 N.am      19 UNK        -0.5000 
    105 CA        -6.3179  -25.9211  -52.0795 C.3       19 UNK         0.1400 
    106 CB        -7.2302  -27.0273  -51.5106 C.3       19 UNK        -0.1800 
    107 C         -6.8601  -25.3243  -53.3969 C.2       19 UNK         0.5000 
    108 O         -8.0491  -25.0086  -53.4633 O.2       19 UNK        -0.5000 
    109 N         -5.9999  -25.1477  -54.4108 N.am      20 UNK        -0.5000 
    110 CA        -6.3529  -24.5381  -55.6940 C.3       20 UNK         0.1400 
    111 CB        -5.4326  -25.0993  -56.7891 C.3       20 UNK        -0.1800 
    112 C         -6.2675  -23.0011  -55.6522 C.2       20 UNK         0.5000 
    113 O         -6.9653  -22.3433  -56.4255 O.2       20 UNK        -0.5000 
    114 N         -5.4234  -22.4698  -54.7522 N.am      21 UNK        -0.5000 
    115 CA        -5.0837  -21.0526  -54.5689 C.3       21 UNK         0.1400 
    116 CB        -6.3317  -20.2348  -54.1695 C.3       21 UNK        -0.1800 
    117 C         -4.3331  -20.4505  -55.7799 C.2       21 UNK         0.5000 
    118 O         -3.9466  -21.1730  -56.7024 O.2       21 UNK        -0.5000 
    119 N         -4.1000  -19.1344  -55.7361 N.am      22 UNK        -0.5000 
    120 CA        -3.5148  -18.3596  -56.8402 C.3       22 UNK         0.1400 
    121 C         -4.5525  -18.1136  -57.9702 C.2       22 UNK         0.5000 
    122 N         -4.1412  -18.1894  -59.2284 N.am      22 UNK        -0.7600 
    123 O         -5.7163  -17.8117  -57.7154 O.2       22 UNK        -0.5000 
    124 C124       -2.9263  -17.0159  -56.3430 C.3       23 UNK        -0.0398 
    125 S125       -1.4332  -17.2408  -55.3178 S.3       23 UNK        -0.2404 
    126 C126       -2.1011  -17.0095  -53.6433 C.3       23 UNK        -0.0205 
    127 H127        5.1249  -15.7848  -48.2760 H         1 UNK         0.0600 
    128 H128        5.0356  -14.3566  -49.3177 H         1 UNK         0.0600 
    129 H129        6.0874  -14.3480  -47.8921 H         1 UNK         0.0600 
    130 H130        3.2495  -13.0735  -48.9557 H         1 UNK         0.3000 
    131 H131        1.5417  -13.5172  -46.6386 H         1 UNK         0.0600 
    132 H132        1.1412  -11.8930  -49.2025 H         1 UNK         0.0800 
    133 H133       -0.0294  -11.9426  -47.9094 H         1 UNK         0.0800 
    134 H134        1.9473  -14.2347  -50.4655 H         1 UNK         0.0800 
    135 H135        0.5949  -13.4501  -51.2582 H         1 UNK         0.0800 
    136 H136       -1.0096  -14.7803  -52.5157 H         1 UNK         0.1150 
    137 H137       -0.7684  -19.0590  -52.4437 H         1 UNK         0.1150 
    138 H138        1.8230  -16.7159  -49.9526 H         1 UNK         0.1150 
    139 H139        0.5326  -20.1644  -50.7995 H         1 UNK         0.0800 
    140 H140        2.1444  -19.5012  -50.9179 H         1 UNK         0.0800 
    141 H141       -0.8369  -18.0593  -49.0121 H         1 UNK         0.0800 
    142 H142       -0.2675  -17.9420  -47.3807 H         1 UNK         0.0800 
    143 H143       -1.3954  -20.5135  -48.5957 H         1 UNK         0.0600 
    144 H144       -0.4234  -19.8756  -45.9028 H         1 UNK         0.3000 
    145 H145       -1.6804  -21.6949  -44.0711 H         1 UNK         0.0600 
    146 H146       -0.4599  -23.8672  -43.5583 H         1 UNK         0.0600 
    147 H147       -1.8532  -24.0344  -44.6098 H         1 UNK         0.0600 
    148 H148       -0.2340  -24.0933  -45.2942 H         1 UNK         0.0600 
    149 H149        0.2223  -20.7161  -43.5896 H         1 UNK         0.3000 
    150 H150        3.5628  -21.3039  -44.0397 H         1 UNK         0.0600 
    151 H151        3.3721  -20.1834  -46.2676 H         1 UNK         0.0600 
    152 H152        3.9039  -19.0507  -45.0348 H         1 UNK         0.0600 
    153 H153        2.2338  -19.0212  -45.5988 H         1 UNK         0.0600 
    154 H154        2.1359  -18.9610  -43.1599 H         1 UNK         0.3000 
    155 H155        1.4011  -20.2025  -39.8732 H         1 UNK         0.0600 
    156 H156        3.3404  -18.0838  -40.9344 H         1 UNK         0.0600 
    157 H157        3.6875  -19.3045  -39.7207 H         1 UNK         0.0600 
    158 H158        2.5427  -18.0192  -39.3619 H         1 UNK         0.0600 
    159 H159        0.7818  -17.7127  -41.0622 H         1 UNK         0.3000 
    160 H160       -2.3423  -18.6409  -42.5408 H         1 UNK         0.0600 
    161 H161       -3.0562  -16.7591  -41.0810 H         1 UNK         0.0600 
    162 H162       -1.6097  -16.9509  -40.0916 H         1 UNK         0.0600 
    163 H163       -2.8161  -18.2277  -40.1473 H         1 UNK         0.0600 
    164 H164       -0.6989  -16.2368  -42.3003 H         1 UNK         0.3000 
    165 H165        0.7229  -16.5115  -45.5507 H         1 UNK         0.0600 
    166 H166       -0.4114  -14.2736  -45.7957 H         1 UNK         0.0600 
    167 H167       -1.5258  -15.6038  -46.0523 H         1 UNK         0.0600 
    168 H168       -1.5499  -14.7168  -44.5329 H         1 UNK         0.0600 
    169 H169        0.7730  -14.4665  -43.5387 H         1 UNK         0.3000 
    170 H170        3.3306  -15.8489  -41.4981 H         1 UNK         0.0600 
    171 H171        4.7497  -15.0926  -43.3857 H         1 UNK         0.0600 
    172 H172        3.7128  -13.6955  -43.6252 H         1 UNK         0.0600 
    173 H173        4.6609  -13.8479  -42.1452 H         1 UNK         0.0600 
    174 H174        2.2812  -13.2194  -41.6060 H         1 UNK         0.3000 
    175 H175       -0.8949  -13.7375  -40.2693 H         1 UNK         0.0600 
    176 H176       -0.2510  -12.5022  -38.2185 H         1 UNK         0.0600 
    177 H177        0.3043  -14.1645  -38.1145 H         1 UNK         0.0600 
    178 H178        1.4505  -12.8830  -38.4891 H         1 UNK         0.0600 
    179 H179        0.6157  -11.3637  -40.2716 H         1 UNK         0.3000 
    180 H180       -0.5915  -10.1715  -43.2065 H         1 UNK         0.0600 
    181 H181        1.3930   -9.5918  -40.9325 H         1 UNK         0.0600 
    182 H182       -0.3575   -9.3963  -40.8416 H         1 UNK         0.0600 
    183 H183        0.5798   -8.4044  -41.9407 H         1 UNK         0.0600 
    184 H184        1.1897  -10.1061  -44.5267 H         1 UNK         0.3000 
    185 H185        3.5364   -9.6987  -44.9965 H         1 UNK         0.0600 
    186 H186        5.2993  -11.9115  -43.8168 H         1 UNK         0.0600 
    187 H187        5.7566  -10.7702  -45.0765 H         1 UNK         0.0600 
    188 H188        5.4246  -10.1966  -43.4502 H         1 UNK         0.0600 
    189 H189        3.7056  -12.5940  -45.5524 H         1 UNK         0.3000 
    190 H190       -2.4097  -18.6696  -45.7136 H         1 UNK         0.3000 
    191 H191       -4.7411  -17.4725  -46.8355 H         1 UNK         0.0600 
    192 H192       -3.6536  -16.7243  -44.7079 H         1 UNK         0.0600 
    193 H193       -4.1529  -18.2239  -43.9229 H         1 UNK         0.0600 
    194 H194       -5.3588  -17.0689  -44.4687 H         1 UNK         0.0600 
    195 H195       -4.1475  -20.6812  -45.5545 H         1 UNK         0.3000 
    196 H196       -6.9607  -21.5399  -45.5893 H         1 UNK         0.0600 
    197 H197       -5.9590  -23.7118  -44.8867 H         1 UNK         0.0600 
    198 H198       -5.3635  -22.4096  -43.8716 H         1 UNK         0.0600 
    199 H199       -4.3385  -23.0771  -45.1420 H         1 UNK         0.0600 
    200 H200       -4.5770  -21.0347  -47.9179 H         1 UNK         0.3000 
    201 H201       -4.1199  -21.5660  -49.9763 H         1 UNK         0.0600 
    202 H202       -6.5453  -21.2276  -50.4324 H         1 UNK         0.0600 
    203 H203       -6.8480  -22.9428  -50.1613 H         1 UNK         0.0600 
    204 H204       -5.8466  -22.4247  -51.5082 H         1 UNK         0.0600 
    205 H205       -4.0124  -23.8181  -47.6644 H         1 UNK         0.3000 
    206 H206       -3.7834  -26.3080  -49.0137 H         1 UNK         0.0600 
    207 H207       -4.1744  -26.0962  -46.5661 H         1 UNK         0.0600 
    208 H208       -2.7308  -27.0497  -46.8768 H         1 UNK         0.0600 
    209 H209       -2.5786  -25.3767  -46.3559 H         1 UNK         0.0600 
    210 H210       -1.4353  -23.7353  -48.3650 H         1 UNK         0.3000 
    211 H211        0.9339  -25.0593  -49.2471 H         1 UNK         0.0600 
    212 H212        0.1831  -22.0905  -49.2957 H         1 UNK         0.0600 
    213 H213        1.8164  -22.7315  -49.4210 H         1 UNK         0.0600 
    214 H214        0.9048  -22.9400  -47.9348 H         1 UNK         0.0600 
    215 H215       -1.7888  -23.8697  -51.0338 H         1 UNK         0.3000 
    216 H216       -0.3838  -24.0861  -53.6612 H         1 UNK         0.0600 
    217 H217       -2.1883  -22.5727  -54.4821 H         1 UNK         0.0600 
    218 H218       -1.2824  -21.8044  -53.1893 H         1 UNK         0.0600 
    219 H219       -2.8697  -22.4916  -52.8562 H         1 UNK         0.0600 
    220 H220       -1.5400  -26.2052  -51.8179 H         1 UNK         0.3000 
    221 H221       -2.6305  -28.1151  -51.8951 H         1 UNK         0.0600 
    222 H222       -2.5548  -27.7986  -54.9425 H         1 UNK         0.0600 
    223 H223       -1.2259  -28.4002  -53.9520 H         1 UNK         0.0600 
    224 H224       -2.7244  -29.3070  -54.0540 H         1 UNK         0.0600 
    225 H225       -4.2716  -25.7169  -51.6869 H         1 UNK         0.3000 
    226 H226       -6.3344  -25.1006  -51.3626 H         1 UNK         0.0600 
    227 H227       -6.8291  -27.4298  -50.5805 H         1 UNK         0.0600 
    228 H228       -7.3558  -27.8537  -52.2102 H         1 UNK         0.0600 
    229 H229       -8.2245  -26.6370  -51.2908 H         1 UNK         0.0600 
    230 H230       -5.0279  -25.4098  -54.2878 H         1 UNK         0.3000 
    231 H231       -7.3794  -24.8090  -55.9505 H         1 UNK         0.0600 
    232 H232       -5.4832  -26.1875  -56.8294 H         1 UNK         0.0600 
    233 H233       -4.3921  -24.8165  -56.6272 H         1 UNK         0.0600 
    234 H234       -5.7229  -24.7222  -57.7705 H         1 UNK         0.0600 
    235 H235       -4.8755  -23.1213  -54.2096 H         1 UNK         0.3000 
    236 H236       -4.3916  -21.0124  -53.7286 H         1 UNK         0.0600 
    237 H237       -6.0579  -19.2479  -53.7960 H         1 UNK         0.0600 
    238 H238       -7.0086  -20.0879  -55.0117 H         1 UNK         0.0600 
    239 H239       -6.8896  -20.7306  -53.3750 H         1 UNK         0.0600 
    240 H240       -4.4709  -18.5973  -54.9677 H         1 UNK         0.3000 
    241 H241       -2.6952  -18.9435  -57.2649 H         1 UNK         0.0600 
    242 H242       -4.8014  -18.0165  -59.9710 H         1 UNK         0.3800 
    243 H243       -3.1894  -18.4286  -59.4611 H         1 UNK         0.3800 
    244 H244       -2.6284  -16.3970  -57.1915 H         1 UNK         0.0800 
    245 H245       -3.6765  -16.4370  -55.8019 H         1 UNK         0.0800 
    246 H246       -2.7699  -17.8358  -53.3990 H         1 UNK         0.0800 
    247 H247       -2.7043  -16.1008  -53.6109 H         1 UNK         0.0800 
@<TRIPOS>BOND
     1    1    2 1    
     2    1  127 1    
     3    1  128 1    
     4    1  129 1    
     5    2    3 2    
     6    2    4 am   BACKBONE|DICT|INTERRES
     7    4    5 1    
     8    4  130 1    
     9    5    6 1    
    10    5   65 1    
    11    5  131 1    
    12    6    7 1    
    13    6  132 1    
    14    6  133 1    
    15    7    8 1    
    16    8    9 1    
    17    8  134 1    
    18    8  135 1    
    19    9   10 ar   
    20    9   14 ar   
    21   10   11 ar   
    22   10  136 1    
    23   11   12 ar   
    24   11  126 1    
    25   12   13 ar   
    26   12  137 1    
    27   13   14 ar   
    28   13   15 1    
    29   14  138 1    
    30   15   16 1    
    31   15  139 1    
    32   15  140 1    
    33   16   17 1    
    34   17   18 1    
    35   17  141 1    
    36   17  142 1    
    37   18   19 1    
    38   18   67 1    
    39   18  143 1    
    40   19   20 am   BACKBONE|DICT|INTERRES
    41   19  144 1    
    42   20   21 2    
    43   20   22 1    
    44   22   23 1    
    45   22   24 1    
    46   22  145 1    
    47   23  146 1    
    48   23  147 1    
    49   23  148 1    
    50   24   25 am   BACKBONE|DICT|INTERRES
    51   24  149 1    
    52   25   26 2    
    53   25   27 1    
    54   27   28 1    
    55   27   29 1    
    56   27  150 1    
    57   28  151 1    
    58   28  152 1    
    59   28  153 1    
    60   29   30 am   BACKBONE|DICT|INTERRES
    61   29  154 1    
    62   30   31 2    
    63   30   32 1    
    64   32   33 1    
    65   32   34 1    
    66   32  155 1    
    67   33  156 1    
    68   33  157 1    
    69   33  158 1    
    70   34   35 am   BACKBONE|DICT|INTERRES
    71   34  159 1    
    72   35   36 2    
    73   35   37 1    
    74   37   38 1    
    75   37   39 1    
    76   37  160 1    
    77   38  161 1    
    78   38  162 1    
    79   38  163 1    
    80   39   40 am   BACKBONE|DICT|INTERRES
    81   39  164 1    
    82   40   41 2    
    83   40   42 1    
    84   42   43 1    
    85   42   44 1    
    86   42  165 1    
    87   43  166 1    
    88   43  167 1    
    89   43  168 1    
    90   44   45 am   BACKBONE|DICT|INTERRES
    91   44  169 1    
    92   45   46 2    
    93   45   47 1    
    94   47   48 1    
    95   47   49 1    
    96   47  170 1    
    97   48  171 1    
    98   48  172 1    
    99   48  173 1    
   100   49   50 am   BACKBONE|DICT|INTERRES
   101   49  174 1    
   102   50   51 2    
   103   50   52 1    
   104   52   53 1    
   105   52   54 1    
   106   52  175 1    
   107   53  176 1    
   108   53  177 1    
   109   53  178 1    
   110   54   55 am   BACKBONE|DICT|INTERRES
   111   54  179 1    
   112   55   56 2    
   113   55   57 1    
   114   57   58 1    
   115   57   59 1    
   116   57  180 1    
   117   58  181 1    
   118   58  182 1    
   119   58  183 1    
   120   59   60 am   BACKBONE|DICT|INTERRES
   121   59  184 1    
   122   60   61 2    
   123   60   62 1    
   124   62   63 1    
   125   62   64 1    
   126   62  185 1    
   127   63  186 1    
   128   63  187 1    
   129   63  188 1    
   130   64   65 am   BACKBONE|DICT|INTERRES
   131   64  189 1    
   132   65   66 2    
   133   67   68 2    
   134   67   69 am   BACKBONE|DICT|INTERRES
   135   69   70 1    
   136   69  190 1    
   137   70   71 1    
   138   70   72 1    
   139   70  191 1    
   140   71  192 1    
   141   71  193 1    
   142   71  194 1    
   143   72   73 2    
   144   72   74 am   BACKBONE|DICT|INTERRES
   145   74   75 1    
   146   74  195 1    
   147   75   76 1    
   148   75   77 1    
   149   75  196 1    
   150   76  197 1    
   151   76  198 1    
   152   76  199 1    
   153   77   78 2    
   154   77   79 am   BACKBONE|DICT|INTERRES
   155   79   80 1    
   156   79  200 1    
   157   80   81 1    
   158   80   82 1    
   159   80  201 1    
   160   81  202 1    
   161   81  203 1    
   162   81  204 1    
   163   82   83 2    
   164   82   84 am   BACKBONE|DICT|INTERRES
   165   84   85 1    
   166   84  205 1    
   167   85   86 1    
   168   85   87 1    
   169   85  206 1    
   170   86  207 1    
   171   86  208 1    
   172   86  209 1    
   173   87   88 2    
   174   87   89 am   BACKBONE|DICT|INTERRES
   175   89   90 1    
   176   89  210 1    
   177   90   91 1    
   178   90   92 1    
   179   90  211 1    
   180   91  212 1    
   181   91  213 1    
   182   91  214 1    
   183   92   93 2    
   184   92   94 am   BACKBONE|DICT|INTERRES
   185   94   95 1    
   186   94  215 1    
   187   95   96 1    
   188   95   97 1    
   189   95  216 1    
   190   96  217 1    
   191   96  218 1    
   192   96  219 1    
   193   97   98 2    
   194   97   99 am   BACKBONE|DICT|INTERRES
   195   99  100 1    
   196   99  220 1    
   197  100  101 1    
   198  100  102 1    
   199  100  221 1    
   200  101  222 1    
   201  101  223 1    
   202  101  224 1    
   203  102  103 2    
   204  102  104 am   BACKBONE|DICT|INTERRES
   205  104  105 1    
   206  104  225 1    
   207  105  106 1    
   208  105  107 1    
   209  105  226 1    
   210  106  227 1    
   211  106  228 1    
   212  106  229 1    
   213  107  108 2    
   214  107  109 am   BACKBONE|DICT|INTERRES
   215  109  110 1    
   216  109  230 1    
   217  110  111 1    
   218  110  112 1    
   219  110  231 1    
   220  111  232 1    
   221  111  233 1    
   222  111  234 1    
   223  112  113 2    
   224  112  114 am   BACKBONE|DICT|INTERRES
   225  114  115 1    
   226  114  235 1    
   227  115  116 1    
   228  115  117 1    
   229  115  236 1    
   230  116  237 1    
   231  116  238 1    
   232  116  239 1    
   233  117  118 2    
   234  117  119 am   BACKBONE|DICT|INTERRES
   235  119  120 1    
   236  119  240 1    
   237  120  121 1    
   238  120  124 1    
   239  120  241 1    
   240  121  122 am   BACKBONE|DICT|INTERRES
   241  121  123 2    
   242  122  242 1    
   243  122  243 1    
   244  124  125 1    
   245  124  244 1    
   246  124  245 1    
   247  125  126 1    
   248  126  246 1    
   249  126  247 1    
@<TRIPOS>SUBSTRUCTURE
     1 UNK         1 GROUP             0       ****    0 ROOT    
