@<TRIPOS>MOLECULE
3R540
247   249    1
SMALL
USER_CHARGES


@<TRIPOS>ATOM
      1 CA          3.3278  -11.2724  -53.2146 C.3       0 UNK        -0.1800 
      2 C           3.8677  -12.0451  -52.0195 C.2       0 UNK         0.5000 
      3 O           5.0402  -11.8987  -51.6745 O.2       0 UNK        -0.5000 
      4 N           3.0180  -12.8682  -51.3923 N.am      1 UNK        -0.5000 
      5 CA          3.3299  -13.6673  -50.2005 C.3       1 UNK         0.1400 
      6 C6          2.2675  -14.7644  -49.9316 C.3       23 UNK        -0.0398 
      7 S7          0.5330  -14.1803  -50.0341 S.3       23 UNK        -0.2404 
      8 C8         -0.4222  -15.7018  -49.7148 C.3       23 UNK        -0.0205 
      9 C9          0.0708  -16.8893  -50.5306 C.ar      23 UNK        -0.0193 
     10 C10        -0.0781  -16.9040  -51.9200 C.ar      23 UNK        -0.1150 
     11 C11         0.4586  -17.9491  -52.6763 C.ar      23 UNK        -0.0193 
     12 C12         1.1052  -19.0053  -52.0263 C.ar      23 UNK        -0.1150 
     13 C13         1.2453  -19.0203  -50.6347 C.ar      23 UNK        -0.0193 
     14 C14         0.7296  -17.9472  -49.8967 C.ar      23 UNK        -0.1150 
     15 C15         2.0144  -20.1798  -49.9917 C.3       23 UNK        -0.0205 
     16 S16         1.8843  -20.3258  -48.1716 S.3       23 UNK        -0.2404 
     17 C17         0.1919  -20.9719  -47.9766 C.3       23 UNK        -0.0398 
     18 CA          0.1521  -22.3224  -47.2245 C.3       11 UNK         0.1400 
     19 N           0.7056  -22.2473  -45.8694 N.am      11 UNK        -0.5000 
     20 C           1.0512  -23.3193  -45.1462 C.2       10 UNK         0.5000 
     21 O           0.9213  -24.4803  -45.5380 O.2       10 UNK        -0.5000 
     22 CA          1.6221  -23.0429  -43.7472 C.3       10 UNK         0.1400 
     23 CB          2.9934  -22.3540  -43.8371 C.3       10 UNK        -0.1800 
     24 N           0.7354  -22.2435  -42.9013 N.am      10 UNK        -0.5000 
     25 C          -0.4470  -22.6551  -42.4238 C.2       9 UNK         0.5000 
     26 O          -1.0142  -23.6824  -42.7935 O.2       9 UNK        -0.5000 
     27 CA         -1.1003  -21.7767  -41.3453 C.3       9 UNK         0.1400 
     28 CB         -0.1547  -21.5264  -40.1572 C.3       9 UNK        -0.1800 
     29 N          -1.4957  -20.5014  -41.9267 N.am      9 UNK        -0.5000 
     30 C          -2.7580  -20.1332  -42.1794 C.2       8 UNK         0.5000 
     31 O          -3.7420  -20.7763  -41.8121 O.2       8 UNK        -0.5000 
     32 CA         -2.9785  -18.8346  -42.9852 C.3       8 UNK         0.1400 
     33 CB         -3.5586  -17.7356  -42.0809 C.3       8 UNK        -0.1800 
     34 N          -1.7821  -18.3164  -43.6538 N.am      8 UNK        -0.5000 
     35 C          -1.0788  -18.9496  -44.6022 C.2       7 UNK         0.5000 
     36 O          -1.3760  -20.0537  -45.0546 O.2       7 UNK        -0.5000 
     37 CA          0.2214  -18.2719  -45.0673 C.3       7 UNK         0.1400 
     38 CB         -0.0742  -17.2493  -46.1700 C.3       7 UNK        -0.1800 
     39 N           0.9554  -17.6263  -43.9777 N.am      7 UNK        -0.5000 
     40 C           1.4319  -18.2538  -42.8917 C.2       6 UNK         0.5000 
     41 O           1.3159  -19.4637  -42.6923 O.2       6 UNK        -0.5000 
     42 CA          2.1064  -17.3727  -41.8302 C.3       6 UNK         0.1400 
     43 CB          3.5478  -17.0304  -42.2363 C.3       6 UNK        -0.1800 
     44 N           1.3428  -16.1443  -41.6131 N.am      6 UNK        -0.5000 
     45 C           0.2403  -16.0725  -40.8532 C.2       5 UNK         0.5000 
     46 O          -0.1969  -17.0157  -40.1937 O.2       5 UNK        -0.5000 
     47 CA         -0.5133  -14.7279  -40.8353 C.3       5 UNK         0.1400 
     48 CB          0.0068  -13.8348  -39.6990 C.3       5 UNK        -0.1800 
     49 N          -0.4250  -13.9947  -42.0996 N.am      5 UNK        -0.5000 
     50 C          -0.9796  -14.3954  -43.2522 C.2       4 UNK         0.5000 
     51 O          -1.6397  -15.4260  -43.3699 O.2       4 UNK        -0.5000 
     52 CA         -0.7047  -13.5259  -44.4937 C.3       4 UNK         0.1400 
     53 CB         -1.7392  -12.3967  -44.6033 C.3       4 UNK        -0.1800 
     54 N           0.6426  -12.9517  -44.5278 N.am      4 UNK        -0.5000 
     55 C           1.7877  -13.6437  -44.4790 C.2       3 UNK         0.5000 
     56 O           1.8355  -14.8704  -44.3657 O.2       3 UNK        -0.5000 
     57 CA          3.0833  -12.8164  -44.5785 C.3       3 UNK         0.1400 
     58 CB          4.3420  -13.6551  -44.2961 C.3       3 UNK        -0.1800 
     59 N           3.2183  -12.2000  -45.8959 N.am      3 UNK        -0.5000 
     60 C           2.5770  -11.1142  -46.3395 C.2       2 UNK         0.5000 
     61 O           1.7675  -10.4832  -45.6576 O.2       2 UNK        -0.5000 
     62 CA          2.8772  -10.6541  -47.7815 C.3       2 UNK         0.1400 
     63 CB          4.2120   -9.8885  -47.8479 C.3       2 UNK        -0.1800 
     64 N           2.8233  -11.7079  -48.8064 N.am      2 UNK        -0.5000 
     65 C           3.5913  -12.7996  -48.9518 C.2       1 UNK         0.5000 
     66 O           4.4871  -13.1262  -48.1716 O.2       1 UNK        -0.5000 
     67 C          -1.2737  -22.9029  -47.2124 C.2       11 UNK         0.5000 
     68 O          -1.6398  -23.6130  -48.1464 O.2       11 UNK        -0.5000 
     69 N          -2.0472  -22.6123  -46.1584 N.am      12 UNK        -0.5000 
     70 CA         -3.3913  -23.1415  -45.9384 C.3       12 UNK         0.1400 
     71 CB         -4.0337  -22.4300  -44.7424 C.3       12 UNK        -0.1800 
     72 C          -3.3968  -24.6667  -45.7391 C.2       12 UNK         0.5000 
     73 O          -4.2134  -25.3485  -46.3578 O.2       12 UNK        -0.5000 
     74 N          -2.4564  -25.1819  -44.9321 N.am      13 UNK        -0.5000 
     75 CA         -2.2498  -26.6170  -44.7128 C.3       13 UNK         0.1400 
     76 CB         -1.2442  -26.8259  -43.5709 C.3       13 UNK        -0.1800 
     77 C          -1.7879  -27.3578  -45.9821 C.2       13 UNK         0.5000 
     78 O          -2.1848  -28.5034  -46.1973 O.2       13 UNK        -0.5000 
     79 N          -0.9876  -26.6782  -46.8141 N.am      14 UNK        -0.5000 
     80 CA         -0.5462  -27.1569  -48.1253 C.3       14 UNK         0.1400 
     81 CB          0.7015  -26.3607  -48.5406 C.3       14 UNK        -0.1800 
     82 C          -1.6335  -27.0553  -49.2175 C.2       14 UNK         0.5000 
     83 O          -1.4486  -27.6240  -50.2940 O.2       14 UNK        -0.5000 
     84 N          -2.7196  -26.3158  -48.9385 N.am      15 UNK        -0.5000 
     85 CA         -3.7996  -25.9216  -49.8522 C.3       15 UNK         0.1400 
     86 CB         -4.6311  -27.1448  -50.2888 C.3       15 UNK        -0.1800 
     87 C          -3.2885  -25.0743  -51.0391 C.2       15 UNK         0.5000 
     88 O          -3.7884  -25.2012  -52.1568 O.2       15 UNK        -0.5000 
     89 N          -2.2841  -24.2356  -50.7619 N.am      16 UNK        -0.5000 
     90 CA         -1.5487  -23.4204  -51.7253 C.3       16 UNK         0.1400 
     91 CB         -0.0488  -23.7032  -51.5331 C.3       16 UNK        -0.1800 
     92 C          -1.8224  -21.9148  -51.5578 C.2       16 UNK         0.5000 
     93 O          -1.3782  -21.1383  -52.3983 O.2       16 UNK        -0.5000 
     94 N          -2.5057  -21.5231  -50.4730 N.am      17 UNK        -0.5000 
     95 CA         -2.7863  -20.1361  -50.0918 C.3       17 UNK         0.1400 
     96 CB         -3.4334  -20.1393  -48.6940 C.3       17 UNK        -0.1800 
     97 C          -3.6801  -19.3662  -51.0832 C.2       17 UNK         0.5000 
     98 O          -4.2797  -19.9518  -51.9908 O.2       17 UNK        -0.5000 
     99 N          -3.8028  -18.0541  -50.8423 N.am      18 UNK        -0.5000 
    100 CA        -4.7766  -17.1740  -51.4854 C.3       18 UNK         0.1400 
    101 CB        -4.5811  -15.7387  -50.9761 C.3       18 UNK        -0.1800 
    102 C         -6.2154  -17.6646  -51.2340 C.2       18 UNK         0.5000 
    103 O         -6.5799  -17.9083  -50.0826 O.2       18 UNK        -0.5000 
    104 N         -6.9672  -17.8506  -52.3244 N.am      19 UNK        -0.5000 
    105 CA        -8.3109  -18.4308  -52.4312 C.3       19 UNK         0.1400 
    106 CB        -9.3251  -17.7285  -51.5058 C.3       19 UNK        -0.1800 
    107 C         -8.3604  -19.9667  -52.2809 C.2       19 UNK         0.5000 
    108 O         -9.3763  -20.5586  -52.6489 O.2       19 UNK        -0.5000 
    109 N         -7.2827  -20.6000  -51.7944 N.am      20 UNK        -0.5000 
    110 CA        -7.1241  -22.0562  -51.7835 C.3       20 UNK         0.1400 
    111 CB        -6.1981  -22.4803  -50.6323 C.3       20 UNK        -0.1800 
    112 C         -6.5885  -22.5527  -53.1380 C.2       20 UNK         0.5000 
    113 O         -7.0683  -23.5678  -53.6442 O.2       20 UNK        -0.5000 
    114 N         -5.6401  -21.8038  -53.7148 N.am      21 UNK        -0.5000 
    115 CA        -5.0881  -22.0317  -55.0477 C.3       21 UNK         0.1400 
    116 CB        -3.8852  -22.9856  -54.9754 C.3       21 UNK        -0.1800 
    117 C         -4.6978  -20.7067  -55.7162 C.2       21 UNK         0.5000 
    118 O         -5.0289  -20.5027  -56.8852 O.2       21 UNK        -0.5000 
    119 N         -4.0038  -19.8329  -54.9760 N.am      22 UNK        -0.5000 
    120 CA        -3.5686  -18.5106  -55.4510 C.3       22 UNK         0.1400 
    121 C         -4.7290  -17.4780  -55.5096 C.2       22 UNK         0.5000 
    122 N         -4.5829  -16.4196  -56.2942 N.am      22 UNK        -0.7600 
    123 O         -5.7467  -17.6032  -54.8322 O.2       22 UNK        -0.5000 
    124 C124       -2.3735  -17.9777  -54.6201 C.3       23 UNK        -0.0398 
    125 S125       -0.8755  -18.9772  -54.8976 S.3       23 UNK        -0.2404 
    126 C126        0.4139  -17.9036  -54.1978 C.3       23 UNK        -0.0205 
    127 H127        2.2805  -11.5052  -53.4086 H         1 UNK         0.0600 
    128 H128        3.9014  -11.5156  -54.1090 H         1 UNK         0.0600 
    129 H129        3.4104  -10.2003  -53.0361 H         1 UNK         0.0600 
    130 H130        2.0669  -12.9506  -51.7243 H         1 UNK         0.3000 
    131 H131        4.2701  -14.1840  -50.4067 H         1 UNK         0.0600 
    132 H132        2.4015  -15.5478  -50.6783 H         1 UNK         0.0800 
    133 H133        2.4302  -15.2483  -48.9664 H         1 UNK         0.0800 
    134 H134       -0.3788  -15.9182  -48.6480 H         1 UNK         0.0800 
    135 H135       -1.4714  -15.5154  -49.9447 H         1 UNK         0.0800 
    136 H136       -0.5663  -16.0755  -52.4137 H         1 UNK         0.1150 
    137 H137        1.5187  -19.8131  -52.6139 H         1 UNK         0.1150 
    138 H138        0.8654  -17.9104  -48.8277 H         1 UNK         0.1150 
    139 H139        1.7001  -21.1218  -50.4439 H         1 UNK         0.0800 
    140 H140        3.0692  -20.0595  -50.2416 H         1 UNK         0.0800 
    141 H141       -0.2442  -21.0888  -48.9678 H         1 UNK         0.0800 
    142 H142       -0.4080  -20.2176  -47.4692 H         1 UNK         0.0800 
    143 H143        0.7691  -23.0241  -47.7900 H         1 UNK         0.0600 
    144 H144        0.8002  -21.3291  -45.4630 H         1 UNK         0.3000 
    145 H145        1.7645  -24.0086  -43.2574 H         1 UNK         0.0600 
    146 H146        3.4518  -22.2627  -42.8522 H         1 UNK         0.0600 
    147 H147        3.6793  -22.9265  -44.4628 H         1 UNK         0.0600 
    148 H148        2.9178  -21.3522  -44.2622 H         1 UNK         0.0600 
    149 H149        1.0840  -21.3305  -42.6213 H         1 UNK         0.3000 
    150 H150       -1.9694  -22.3186  -40.9665 H         1 UNK         0.0600 
    151 H151        0.2032  -22.4676  -39.7379 H         1 UNK         0.0600 
    152 H152       -0.6682  -20.9899  -39.3593 H         1 UNK         0.0600 
    153 H153        0.7184  -20.9374  -40.4395 H         1 UNK         0.0600 
    154 H154       -0.7442  -19.9226  -42.2807 H         1 UNK         0.3000 
    155 H155       -3.7136  -19.0623  -43.7593 H         1 UNK         0.0600 
    156 H156       -2.8394  -17.4194  -41.3244 H         1 UNK         0.0600 
    157 H157       -3.8440  -16.8581  -42.6609 H         1 UNK         0.0600 
    158 H158       -4.4530  -18.0817  -41.5613 H         1 UNK         0.0600 
    159 H159       -1.4967  -17.3779  -43.3892 H         1 UNK         0.3000 
    160 H160        0.8695  -19.0450  -45.4831 H         1 UNK         0.0600 
    161 H161        0.8449  -16.8115  -46.5605 H         1 UNK         0.0600 
    162 H162       -0.7052  -16.4398  -45.8063 H         1 UNK         0.0600 
    163 H163       -0.5997  -17.7196  -47.0014 H         1 UNK         0.0600 
    164 H164        1.1334  -16.6304  -44.0764 H         1 UNK         0.3000 
    165 H165        2.1464  -17.9381  -40.8965 H         1 UNK         0.0600 
    166 H166        4.0302  -16.4013  -41.4883 H         1 UNK         0.0600 
    167 H167        4.1468  -17.9366  -42.3349 H         1 UNK         0.0600 
    168 H168        3.5898  -16.5084  -43.1922 H         1 UNK         0.0600 
    169 H169        1.6006  -15.3462  -42.1770 H         1 UNK         0.3000 
    170 H170       -1.5667  -14.9444  -40.6447 H         1 UNK         0.0600 
    171 H171        1.0529  -13.5634  -39.8462 H         1 UNK         0.0600 
    172 H172       -0.5725  -12.9143  -39.6238 H         1 UNK         0.0600 
    173 H173       -0.0682  -14.3438  -38.7371 H         1 UNK         0.0600 
    174 H174        0.1063  -13.1365  -42.0950 H         1 UNK         0.3000 
    175 H175       -0.8076  -14.1626  -45.3734 H         1 UNK         0.0600 
    176 H176       -1.6109  -11.8331  -45.5277 H         1 UNK         0.0600 
    177 H177       -1.6616  -11.6971  -43.7701 H         1 UNK         0.0600 
    178 H178       -2.7546  -12.7956  -44.6050 H         1 UNK         0.0600 
    179 H179        0.7099  -11.9504  -44.6763 H         1 UNK         0.3000 
    180 H180        3.0310  -12.0290  -43.8239 H         1 UNK         0.0600 
    181 H181        4.4587  -14.4640  -45.0186 H         1 UNK         0.0600 
    182 H182        4.2990  -14.1019  -43.3022 H         1 UNK         0.0600 
    183 H183        5.2414  -13.0404  -44.3352 H         1 UNK         0.0600 
    184 H184        3.8325  -12.6696  -46.5582 H         1 UNK         0.3000 
    185 H185        2.0881   -9.9495  -48.0489 H         1 UNK         0.0600 
    186 H186        5.0607  -10.5236  -47.5927 H         1 UNK         0.0600 
    187 H187        4.3847   -9.4855  -48.8460 H         1 UNK         0.0600 
    188 H188        4.2138   -9.0480  -47.1528 H         1 UNK         0.0600 
    189 H189        2.1050  -11.5749  -49.5045 H         1 UNK         0.3000 
    190 H190       -1.7011  -21.9405  -45.4800 H         1 UNK         0.3000 
    191 H191       -3.9867  -22.9174  -46.8262 H         1 UNK         0.0600 
    192 H192       -4.0717  -21.3520  -44.8993 H         1 UNK         0.0600 
    193 H193       -5.0567  -22.7735  -44.5850 H         1 UNK         0.0600 
    194 H194       -3.4791  -22.6181  -43.8230 H         1 UNK         0.0600 
    195 H195       -1.8399  -24.5552  -44.4236 H         1 UNK         0.3000 
    196 H196       -3.2046  -27.0502  -44.4078 H         1 UNK         0.0600 
    197 H197       -1.0686  -27.8873  -43.3916 H         1 UNK         0.0600 
    198 H198       -1.6127  -26.3964  -42.6393 H         1 UNK         0.0600 
    199 H199       -0.2811  -26.3650  -43.7940 H         1 UNK         0.0600 
    200 H200       -0.6647  -25.7607  -46.5316 H         1 UNK         0.3000 
    201 H201       -0.2658  -28.2085  -48.0370 H         1 UNK         0.0600 
    202 H202        1.4914  -26.4448  -47.7940 H         1 UNK         0.0600 
    203 H203        0.4770  -25.3025  -48.6724 H         1 UNK         0.0600 
    204 H204        1.1054  -26.7286  -49.4847 H         1 UNK         0.0600 
    205 H205       -2.7667  -25.8934  -48.0203 H         1 UNK         0.3000 
    206 H206       -4.4562  -25.2676  -49.2767 H         1 UNK         0.0600 
    207 H207       -4.9787  -27.7122  -49.4254 H         1 UNK         0.0600 
    208 H208       -5.5136  -26.8357  -50.8502 H         1 UNK         0.0600 
    209 H209       -4.0587  -27.8190  -50.9262 H         1 UNK         0.0600 
    210 H210       -1.9656  -24.1770  -49.7955 H         1 UNK         0.3000 
    211 H211       -1.8214  -23.6973  -52.7446 H         1 UNK         0.0600 
    212 H212        0.2881  -23.4236  -50.5341 H         1 UNK         0.0600 
    213 H213        0.5522  -23.1443  -52.2517 H         1 UNK         0.0600 
    214 H214        0.1733  -24.7609  -51.6766 H         1 UNK         0.0600 
    215 H215       -2.8435  -22.2407  -49.8499 H         1 UNK         0.3000 
    216 H216       -1.8336  -19.6059  -50.0396 H         1 UNK         0.0600 
    217 H217       -3.6597  -19.1298  -48.3492 H         1 UNK         0.0600 
    218 H218       -2.7751  -20.5771  -47.9482 H         1 UNK         0.0600 
    219 H219       -4.3681  -20.7013  -48.6859 H         1 UNK         0.0600 
    220 H220       -3.3028  -17.6578  -50.0614 H         1 UNK         0.3000 
    221 H221       -4.5759  -17.1805  -52.5553 H         1 UNK         0.0600 
    222 H222       -4.7111  -15.6725  -49.8952 H         1 UNK         0.0600 
    223 H223       -3.5867  -15.3659  -51.2212 H         1 UNK         0.0600 
    224 H224       -5.3022  -15.0617  -51.4360 H         1 UNK         0.0600 
    225 H225       -6.5305  -17.6699  -53.2294 H         1 UNK         0.3000 
    226 H226       -8.6205  -18.2268  -53.4573 H         1 UNK         0.0600 
    227 H227       -9.2871  -16.6458  -51.6256 H         1 UNK         0.0600 
    228 H228      -10.3427  -18.0448  -51.7377 H         1 UNK         0.0600 
    229 H229       -9.1500  -17.9594  -50.4550 H         1 UNK         0.0600 
    230 H230       -6.4732  -20.0518  -51.5362 H         1 UNK         0.3000 
    231 H231       -8.0964  -22.5230  -51.6116 H         1 UNK         0.0600 
    232 H232       -5.1805  -22.1241  -50.7781 H         1 UNK         0.0600 
    233 H233       -6.1526  -23.5671  -50.5563 H         1 UNK         0.0600 
    234 H234       -6.5552  -22.1003  -49.6751 H         1 UNK         0.0600 
    235 H235       -5.2869  -20.9970  -53.2080 H         1 UNK         0.3000 
    236 H236       -5.8542  -22.4913  -55.6761 H         1 UNK         0.0600 
    237 H237       -4.1671  -23.9473  -54.5475 H         1 UNK         0.0600 
    238 H238       -3.4792  -23.1776  -55.9692 H         1 UNK         0.0600 
    239 H239       -3.0829  -22.5666  -54.3688 H         1 UNK         0.0600 
    240 H240       -3.7782  -20.0535  -54.0134 H         1 UNK         0.3000 
    241 H241       -3.2236  -18.6330  -56.4800 H         1 UNK         0.0600 
    242 H242       -3.7632  -16.2893  -56.8668 H         1 UNK         0.3800 
    243 H243       -5.3255  -15.7389  -56.3359 H         1 UNK         0.3800 
    244 H244       -2.1441  -16.9452  -54.8884 H         1 UNK         0.0800 
    245 H245       -2.6012  -17.9782  -53.5547 H         1 UNK         0.0800 
    246 H246        1.3795  -18.2261  -54.5896 H         1 UNK         0.0800 
    247 H247        0.2764  -16.8806  -54.5511 H         1 UNK         0.0800 
@<TRIPOS>BOND
     1    1    2 1    
     2    1  127 1    
     3    1  128 1    
     4    1  129 1    
     5    2    3 2    
     6    2    4 am   BACKBONE|DICT|INTERRES
     7    4    5 1    
     8    4  130 1    
     9    5    6 1    
    10    5   65 1    
    11    5  131 1    
    12    6    7 1    
    13    6  132 1    
    14    6  133 1    
    15    7    8 1    
    16    8    9 1    
    17    8  134 1    
    18    8  135 1    
    19    9   10 ar   
    20    9   14 ar   
    21   10   11 ar   
    22   10  136 1    
    23   11   12 ar   
    24   11  126 1    
    25   12   13 ar   
    26   12  137 1    
    27   13   14 ar   
    28   13   15 1    
    29   14  138 1    
    30   15   16 1    
    31   15  139 1    
    32   15  140 1    
    33   16   17 1    
    34   17   18 1    
    35   17  141 1    
    36   17  142 1    
    37   18   19 1    
    38   18   67 1    
    39   18  143 1    
    40   19   20 am   BACKBONE|DICT|INTERRES
    41   19  144 1    
    42   20   21 2    
    43   20   22 1    
    44   22   23 1    
    45   22   24 1    
    46   22  145 1    
    47   23  146 1    
    48   23  147 1    
    49   23  148 1    
    50   24   25 am   BACKBONE|DICT|INTERRES
    51   24  149 1    
    52   25   26 2    
    53   25   27 1    
    54   27   28 1    
    55   27   29 1    
    56   27  150 1    
    57   28  151 1    
    58   28  152 1    
    59   28  153 1    
    60   29   30 am   BACKBONE|DICT|INTERRES
    61   29  154 1    
    62   30   31 2    
    63   30   32 1    
    64   32   33 1    
    65   32   34 1    
    66   32  155 1    
    67   33  156 1    
    68   33  157 1    
    69   33  158 1    
    70   34   35 am   BACKBONE|DICT|INTERRES
    71   34  159 1    
    72   35   36 2    
    73   35   37 1    
    74   37   38 1    
    75   37   39 1    
    76   37  160 1    
    77   38  161 1    
    78   38  162 1    
    79   38  163 1    
    80   39   40 am   BACKBONE|DICT|INTERRES
    81   39  164 1    
    82   40   41 2    
    83   40   42 1    
    84   42   43 1    
    85   42   44 1    
    86   42  165 1    
    87   43  166 1    
    88   43  167 1    
    89   43  168 1    
    90   44   45 am   BACKBONE|DICT|INTERRES
    91   44  169 1    
    92   45   46 2    
    93   45   47 1    
    94   47   48 1    
    95   47   49 1    
    96   47  170 1    
    97   48  171 1    
    98   48  172 1    
    99   48  173 1    
   100   49   50 am   BACKBONE|DICT|INTERRES
   101   49  174 1    
   102   50   51 2    
   103   50   52 1    
   104   52   53 1    
   105   52   54 1    
   106   52  175 1    
   107   53  176 1    
   108   53  177 1    
   109   53  178 1    
   110   54   55 am   BACKBONE|DICT|INTERRES
   111   54  179 1    
   112   55   56 2    
   113   55   57 1    
   114   57   58 1    
   115   57   59 1    
   116   57  180 1    
   117   58  181 1    
   118   58  182 1    
   119   58  183 1    
   120   59   60 am   BACKBONE|DICT|INTERRES
   121   59  184 1    
   122   60   61 2    
   123   60   62 1    
   124   62   63 1    
   125   62   64 1    
   126   62  185 1    
   127   63  186 1    
   128   63  187 1    
   129   63  188 1    
   130   64   65 am   BACKBONE|DICT|INTERRES
   131   64  189 1    
   132   65   66 2    
   133   67   68 2    
   134   67   69 am   BACKBONE|DICT|INTERRES
   135   69   70 1    
   136   69  190 1    
   137   70   71 1    
   138   70   72 1    
   139   70  191 1    
   140   71  192 1    
   141   71  193 1    
   142   71  194 1    
   143   72   73 2    
   144   72   74 am   BACKBONE|DICT|INTERRES
   145   74   75 1    
   146   74  195 1    
   147   75   76 1    
   148   75   77 1    
   149   75  196 1    
   150   76  197 1    
   151   76  198 1    
   152   76  199 1    
   153   77   78 2    
   154   77   79 am   BACKBONE|DICT|INTERRES
   155   79   80 1    
   156   79  200 1    
   157   80   81 1    
   158   80   82 1    
   159   80  201 1    
   160   81  202 1    
   161   81  203 1    
   162   81  204 1    
   163   82   83 2    
   164   82   84 am   BACKBONE|DICT|INTERRES
   165   84   85 1    
   166   84  205 1    
   167   85   86 1    
   168   85   87 1    
   169   85  206 1    
   170   86  207 1    
   171   86  208 1    
   172   86  209 1    
   173   87   88 2    
   174   87   89 am   BACKBONE|DICT|INTERRES
   175   89   90 1    
   176   89  210 1    
   177   90   91 1    
   178   90   92 1    
   179   90  211 1    
   180   91  212 1    
   181   91  213 1    
   182   91  214 1    
   183   92   93 2    
   184   92   94 am   BACKBONE|DICT|INTERRES
   185   94   95 1    
   186   94  215 1    
   187   95   96 1    
   188   95   97 1    
   189   95  216 1    
   190   96  217 1    
   191   96  218 1    
   192   96  219 1    
   193   97   98 2    
   194   97   99 am   BACKBONE|DICT|INTERRES
   195   99  100 1    
   196   99  220 1    
   197  100  101 1    
   198  100  102 1    
   199  100  221 1    
   200  101  222 1    
   201  101  223 1    
   202  101  224 1    
   203  102  103 2    
   204  102  104 am   BACKBONE|DICT|INTERRES
   205  104  105 1    
   206  104  225 1    
   207  105  106 1    
   208  105  107 1    
   209  105  226 1    
   210  106  227 1    
   211  106  228 1    
   212  106  229 1    
   213  107  108 2    
   214  107  109 am   BACKBONE|DICT|INTERRES
   215  109  110 1    
   216  109  230 1    
   217  110  111 1    
   218  110  112 1    
   219  110  231 1    
   220  111  232 1    
   221  111  233 1    
   222  111  234 1    
   223  112  113 2    
   224  112  114 am   BACKBONE|DICT|INTERRES
   225  114  115 1    
   226  114  235 1    
   227  115  116 1    
   228  115  117 1    
   229  115  236 1    
   230  116  237 1    
   231  116  238 1    
   232  116  239 1    
   233  117  118 2    
   234  117  119 am   BACKBONE|DICT|INTERRES
   235  119  120 1    
   236  119  240 1    
   237  120  121 1    
   238  120  124 1    
   239  120  241 1    
   240  121  122 am   BACKBONE|DICT|INTERRES
   241  121  123 2    
   242  122  242 1    
   243  122  243 1    
   244  124  125 1    
   245  124  244 1    
   246  124  245 1    
   247  125  126 1    
   248  126  246 1    
   249  126  247 1    
@<TRIPOS>SUBSTRUCTURE
     1 UNK         1 GROUP             0       ****    0 ROOT    
