@<TRIPOS>MOLECULE
3R540
247   249    1
SMALL
USER_CHARGES


@<TRIPOS>ATOM
      1 CA          2.1251   -6.6608  -48.0497 C.3       0 UNK        -0.1800 
      2 C           2.1245   -8.1723  -48.2288 C.2       0 UNK         0.5000 
      3 O           3.1554   -8.8136  -48.0265 O.2       0 UNK        -0.5000 
      4 N           0.9713   -8.7438  -48.6019 N.am      1 UNK        -0.5000 
      5 CA          0.7781  -10.1855  -48.8152 C.3       1 UNK         0.1400 
      6 C6         -0.4609  -10.4586  -49.7087 C.3       23 UNK        -0.0398 
      7 S7         -0.2958  -11.9922  -50.6847 S.3       23 UNK        -0.2404 
      8 C8         -1.6889  -12.9812  -50.0561 C.3       23 UNK        -0.0205 
      9 C9         -1.5675  -14.4324  -50.4963 C.ar      23 UNK        -0.0193 
     10 C10        -1.8152  -14.7940  -51.8249 C.ar      23 UNK        -0.1150 
     11 C11        -1.6471  -16.1183  -52.2416 C.ar      23 UNK        -0.0193 
     12 C12        -1.2435  -17.0839  -51.3148 C.ar      23 UNK        -0.1150 
     13 C13        -1.0263  -16.7429  -49.9778 C.ar      23 UNK        -0.0193 
     14 C14        -1.1854  -15.4136  -49.5767 C.ar      23 UNK        -0.1150 
     15 C15        -0.5826  -17.7957  -48.9735 C.3       23 UNK        -0.0205 
     16 S16        -2.0002  -18.6157  -48.1690 S.3       23 UNK        -0.2404 
     17 C17        -1.1732  -19.4075  -46.7490 C.3       23 UNK        -0.0398 
     18 CA         -1.0633  -20.9452  -46.8334 C.3       11 UNK         0.1400 
     19 N           0.0742  -21.4338  -46.0545 N.am      11 UNK        -0.5000 
     20 C           0.5640  -22.6784  -46.1219 C.2       10 UNK         0.5000 
     21 O           0.1340  -23.5420  -46.8857 O.2       10 UNK        -0.5000 
     22 CA          1.7120  -23.0267  -45.1585 C.3       10 UNK         0.1400 
     23 CB          3.0677  -22.7099  -45.8074 C.3       10 UNK        -0.1800 
     24 N           1.6290  -22.3357  -43.8716 N.am      10 UNK        -0.5000 
     25 C           0.6401  -22.4611  -42.9758 C.2       9 UNK         0.5000 
     26 O          -0.3454  -23.1831  -43.1450 O.2       9 UNK        -0.5000 
     27 CA          0.7775  -21.6525  -41.6646 C.3       9 UNK         0.1400 
     28 CB          1.9903  -20.6946  -41.6394 C.3       9 UNK        -0.1800 
     29 N          -0.4268  -20.9030  -41.2940 N.am      9 UNK        -0.5000 
     30 C          -1.1413  -20.0723  -42.0661 C.2       8 UNK         0.5000 
     31 O          -0.9969  -19.9546  -43.2843 O.2       8 UNK        -0.5000 
     32 CA         -2.2008  -19.1988  -41.3660 C.3       8 UNK         0.1400 
     33 CB         -2.5719  -19.6412  -39.9324 C.3       8 UNK        -0.1800 
     34 N          -1.7902  -17.7966  -41.4191 N.am      8 UNK        -0.5000 
     35 C          -0.7196  -17.2314  -40.8450 C.2       7 UNK         0.5000 
     36 O          -0.0032  -17.7885  -40.0117 O.2       7 UNK        -0.5000 
     37 CA         -0.3736  -15.8146  -41.3481 C.3       7 UNK         0.1400 
     38 CB          0.6234  -15.0841  -40.4311 C.3       7 UNK        -0.1800 
     39 N           0.1919  -15.8689  -42.6950 N.am      7 UNK        -0.5000 
     40 C          -0.4679  -16.1599  -43.8240 C.2       6 UNK         0.5000 
     41 O          -1.6875  -16.3261  -43.8772 O.2       6 UNK        -0.5000 
     42 CA          0.3677  -16.2951  -45.1066 C.3       6 UNK         0.1400 
     43 CB          0.3149  -14.9961  -45.9216 C.3       6 UNK        -0.1800 
     44 N           1.7640  -16.6394  -44.8307 N.am      6 UNK        -0.5000 
     45 C           2.2524  -17.8854  -44.7328 C.2       5 UNK         0.5000 
     46 O           1.5831  -18.9043  -44.9023 O.2       5 UNK        -0.5000 
     47 CA          3.7532  -18.0315  -44.4107 C.3       5 UNK         0.1400 
     48 CB          4.5457  -18.3135  -45.6961 C.3       5 UNK        -0.1800 
     49 N           4.3212  -16.8537  -43.7524 N.am      5 UNK        -0.5000 
     50 C           4.1523  -16.5515  -42.4574 C.2       4 UNK         0.5000 
     51 O           3.5512  -17.2718  -41.6618 O.2       4 UNK        -0.5000 
     52 CA          4.7169  -15.1959  -41.9804 C.3       4 UNK         0.1400 
     53 CB          6.1446  -15.3681  -41.4409 C.3       4 UNK        -0.1800 
     54 N           4.7134  -14.1486  -43.0111 N.am      4 UNK        -0.5000 
     55 C           3.6156  -13.7003  -43.6341 C.2       3 UNK         0.5000 
     56 O           2.4902  -14.1526  -43.4151 O.2       3 UNK        -0.5000 
     57 CA          3.8219  -12.6306  -44.7246 C.3       3 UNK         0.1400 
     58 CB          4.4884  -13.2520  -45.9631 C.3       3 UNK        -0.1800 
     59 N           2.5539  -12.0363  -45.1443 N.am      3 UNK        -0.5000 
     60 C           1.8116  -11.1858  -44.4281 C.2       2 UNK         0.5000 
     61 O           2.1903  -10.6814  -43.3689 O.2       2 UNK        -0.5000 
     62 CA          0.4186  -10.8446  -45.0068 C.3       2 UNK         0.1400 
     63 CB         -0.3683   -9.8628  -44.1199 C.3       2 UNK        -0.1800 
     64 N           0.4837  -10.2959  -46.3639 N.am      2 UNK        -0.5000 
     65 C           0.7246  -10.9838  -47.4900 C.2       1 UNK         0.5000 
     66 O           0.9212  -12.1991  -47.5031 O.2       1 UNK        -0.5000 
     67 C          -2.3615  -21.6565  -46.4078 C.2       11 UNK         0.5000 
     68 O          -3.0653  -22.1925  -47.2644 O.2       11 UNK        -0.5000 
     69 N          -2.6230  -21.7145  -45.0923 N.am      12 UNK        -0.5000 
     70 CA         -3.7663  -22.4249  -44.5094 C.3       12 UNK         0.1400 
     71 CB         -3.8873  -22.1159  -43.0123 C.3       12 UNK        -0.1800 
     72 C          -3.7154  -23.9439  -44.7403 C.2       12 UNK         0.5000 
     73 O          -4.7499  -24.5399  -45.0405 O.2       12 UNK        -0.5000 
     74 N          -2.5141  -24.5339  -44.6581 N.am      13 UNK        -0.5000 
     75 CA         -2.2594  -25.9471  -44.9589 C.3       13 UNK         0.1400 
     76 CB         -0.8035  -26.2875  -44.6090 C.3       13 UNK        -0.1800 
     77 C          -2.5703  -26.3293  -46.4219 C.2       13 UNK         0.5000 
     78 O          -2.9415  -27.4732  -46.6849 O.2       13 UNK        -0.5000 
     79 N          -2.4536  -25.3557  -47.3334 N.am      14 UNK        -0.5000 
     80 CA         -2.8098  -25.4560  -48.7475 C.3       14 UNK         0.1400 
     81 CB         -1.7437  -24.7098  -49.5664 C.3       14 UNK        -0.1800 
     82 C          -4.2348  -24.9326  -49.0378 C.2       14 UNK         0.5000 
     83 O          -4.5485  -24.6645  -50.1985 O.2       14 UNK        -0.5000 
     84 N          -5.0706  -24.7918  -47.9959 N.am      15 UNK        -0.5000 
     85 CA         -6.4707  -24.3524  -48.0252 C.3       15 UNK         0.1400 
     86 CB         -7.3437  -25.3604  -48.8036 C.3       15 UNK        -0.1800 
     87 C          -6.6243  -22.9031  -48.5272 C.2       15 UNK         0.5000 
     88 O          -7.3967  -22.6439  -49.4490 O.2       15 UNK        -0.5000 
     89 N          -5.8425  -21.9902  -47.9327 N.am      16 UNK        -0.5000 
     90 CA         -5.6582  -20.5873  -48.3339 C.3       16 UNK         0.1400 
     91 CB         -6.9641  -19.7785  -48.1896 C.3       16 UNK        -0.1800 
     92 C          -5.0193  -20.4865  -49.7350 C.2       16 UNK         0.5000 
     93 O          -5.4169  -19.6532  -50.5498 O.2       16 UNK        -0.5000 
     94 N          -4.0642  -21.3948  -49.9818 N.am      17 UNK        -0.5000 
     95 CA         -3.3404  -21.6450  -51.2298 C.3       17 UNK         0.1400 
     96 CB         -2.4352  -20.4564  -51.5876 C.3       17 UNK        -0.1800 
     97 C          -4.2138  -22.0999  -52.4169 C.2       17 UNK         0.5000 
     98 O          -3.7095  -22.1516  -53.5398 O.2       17 UNK        -0.5000 
     99 N          -5.4767  -22.4791  -52.1700 N.am      18 UNK        -0.5000 
    100 CA        -6.4036  -22.9914  -53.1807 C.3       18 UNK         0.1400 
    101 CB        -7.8112  -23.1180  -52.5836 C.3       18 UNK        -0.1800 
    102 C         -5.9544  -24.3337  -53.7838 C.2       18 UNK         0.5000 
    103 O         -6.1924  -24.5669  -54.9688 O.2       18 UNK        -0.5000 
    104 N         -5.2591  -25.1630  -52.9902 N.am      19 UNK        -0.5000 
    105 CA        -4.6570  -26.4242  -53.4343 C.3       19 UNK         0.1400 
    106 CB        -4.1733  -27.2128  -52.2080 C.3       19 UNK        -0.1800 
    107 C         -3.4999  -26.2248  -54.4356 C.2       19 UNK         0.5000 
    108 O         -3.2201  -27.1263  -55.2262 O.2       19 UNK        -0.5000 
    109 N         -2.8657  -25.0460  -54.3929 N.am      20 UNK        -0.5000 
    110 CA        -1.8062  -24.6146  -55.3040 C.3       20 UNK         0.1400 
    111 CB        -0.7092  -23.9321  -54.4683 C.3       20 UNK        -0.1800 
    112 C         -2.3306  -23.6526  -56.3899 C.2       20 UNK         0.5000 
    113 O         -1.5321  -23.1678  -57.1929 O.2       20 UNK        -0.5000 
    114 N         -3.6382  -23.3425  -56.3691 N.am      21 UNK        -0.5000 
    115 CA        -4.3340  -22.3402  -57.1886 C.3       21 UNK         0.1400 
    116 CB        -4.4427  -22.8253  -58.6484 C.3       21 UNK        -0.1800 
    117 C         -3.7213  -20.9240  -57.0701 C.2       21 UNK         0.5000 
    118 O         -3.7193  -20.1651  -58.0410 O.2       21 UNK        -0.5000 
    119 N         -3.1815  -20.6117  -55.8841 N.am      22 UNK        -0.5000 
    120 CA        -2.3584  -19.4319  -55.5741 C.3       22 UNK         0.1400 
    121 C         -0.9932  -19.3587  -56.3323 C.2       22 UNK         0.5000 
    122 N         -0.5113  -20.4267  -56.9579 N.am      22 UNK        -0.7600 
    123 O         -0.3314  -18.3245  -56.3272 O.2       22 UNK        -0.5000 
    124 C124       -3.1664  -18.0946  -55.6047 C.3       23 UNK        -0.0398 
    125 S125       -3.4224  -17.4084  -53.9331 S.3       23 UNK        -0.2404 
    126 C126       -1.8582  -16.5086  -53.6964 C.3       23 UNK        -0.0205 
    127 H127        2.8526   -6.2040  -48.7207 H         1 UNK         0.0600 
    128 H128        1.1479   -6.2262  -48.2615 H         1 UNK         0.0600 
    129 H129        2.3965   -6.4045  -47.0256 H         1 UNK         0.0600 
    130 H130        0.1593   -8.1616  -48.7543 H         1 UNK         0.3000 
    131 H131        1.6613  -10.5402  -49.3516 H         1 UNK         0.0600 
    132 H132       -1.3839  -10.4636  -49.1259 H         1 UNK         0.0800 
    133 H133       -0.5794   -9.6539  -50.4359 H         1 UNK         0.0800 
    134 H134       -2.6286  -12.5615  -50.4178 H         1 UNK         0.0800 
    135 H135       -1.7153  -12.9182  -48.9668 H         1 UNK         0.0800 
    136 H136       -2.1106  -14.0373  -52.5383 H         1 UNK         0.1150 
    137 H137       -1.0930  -18.1017  -51.6402 H         1 UNK         0.1150 
    138 H138       -0.9973  -15.1394  -48.5491 H         1 UNK         0.1150 
    139 H139        0.0365  -18.5484  -49.4640 H         1 UNK         0.0800 
    140 H140        0.0503  -17.3215  -48.2221 H         1 UNK         0.0800 
    141 H141       -0.1633  -19.0077  -46.7115 H         1 UNK         0.0800 
    142 H142       -1.6533  -19.0843  -45.8234 H         1 UNK         0.0800 
    143 H143       -0.8700  -21.2127  -47.8749 H         1 UNK         0.0600 
    144 H144        0.4785  -20.7830  -45.3889 H         1 UNK         0.3000 
    145 H145        1.6675  -24.0996  -44.9629 H         1 UNK         0.0600 
    146 H146        3.8944  -23.0298  -45.1729 H         1 UNK         0.0600 
    147 H147        3.1739  -23.2262  -46.7625 H         1 UNK         0.0600 
    148 H148        3.1823  -21.6416  -45.9967 H         1 UNK         0.0600 
    149 H149        2.3812  -21.6975  -43.6590 H         1 UNK         0.3000 
    150 H150        0.9283  -22.3930  -40.8781 H         1 UNK         0.0600 
    151 H151        2.9308  -21.2248  -41.7930 H         1 UNK         0.0600 
    152 H152        2.0674  -20.1915  -40.6751 H         1 UNK         0.0600 
    153 H153        1.9073  -19.9179  -42.3994 H         1 UNK         0.0600 
    154 H154       -0.6650  -20.9368  -40.3134 H         1 UNK         0.3000 
    155 H155       -3.1044  -19.2595  -41.9712 H         1 UNK         0.0600 
    156 H156       -3.3622  -19.0100  -39.5261 H         1 UNK         0.0600 
    157 H157       -1.7291  -19.5938  -39.2429 H         1 UNK         0.0600 
    158 H158       -2.9468  -20.6655  -39.9270 H         1 UNK         0.0600 
    159 H159       -2.2116  -17.2650  -42.1747 H         1 UNK         0.3000 
    160 H160       -1.2956  -15.2304  -41.3769 H         1 UNK         0.0600 
    161 H161        1.5805  -15.6048  -40.3798 H         1 UNK         0.0600 
    162 H162        0.2350  -15.0063  -39.4150 H         1 UNK         0.0600 
    163 H163        0.8151  -14.0711  -40.7862 H         1 UNK         0.0600 
    164 H164        1.1834  -15.6785  -42.7679 H         1 UNK         0.3000 
    165 H165       -0.0896  -17.0761  -45.7077 H         1 UNK         0.0600 
    166 H166        0.7112  -14.1523  -45.3600 H         1 UNK         0.0600 
    167 H167        0.8863  -15.0822  -46.8459 H         1 UNK         0.0600 
    168 H168       -0.7116  -14.7477  -46.1930 H         1 UNK         0.0600 
    169 H169        2.3708  -15.8606  -44.6099 H         1 UNK         0.3000 
    170 H170        3.8652  -18.8922  -43.7480 H         1 UNK         0.0600 
    171 H171        4.1657  -19.2016  -46.2030 H         1 UNK         0.0600 
    172 H172        4.4819  -17.4822  -46.3994 H         1 UNK         0.0600 
    173 H173        5.5991  -18.4910  -45.4791 H         1 UNK         0.0600 
    174 H174        4.8423  -16.2127  -44.3322 H         1 UNK         0.3000 
    175 H175        4.0822  -14.8518  -41.1610 H         1 UNK         0.0600 
    176 H176        6.8363  -15.6797  -42.2245 H         1 UNK         0.0600 
    177 H177        6.5192  -14.4390  -41.0109 H         1 UNK         0.0600 
    178 H178        6.1768  -16.1239  -40.6549 H         1 UNK         0.0600 
    179 H179        5.6098  -13.7465  -43.2454 H         1 UNK         0.3000 
    180 H180        4.4657  -11.8446  -44.3250 H         1 UNK         0.0600 
    181 H181        5.4675  -13.6678  -45.7228 H         1 UNK         0.0600 
    182 H182        3.8829  -14.0557  -46.3850 H         1 UNK         0.0600 
    183 H183        4.6397  -12.5054  -46.7431 H         1 UNK         0.0600 
    184 H184        2.1507  -12.3832  -46.0091 H         1 UNK         0.3000 
    185 H185       -0.1464  -11.7784  -45.0412 H         1 UNK         0.0600 
    186 H186       -0.4845  -10.2550  -43.1087 H         1 UNK         0.0600 
    187 H187        0.1338   -8.8975  -44.0437 H         1 UNK         0.0600 
    188 H188       -1.3696   -9.6902  -44.5148 H         1 UNK         0.0600 
    189 H189        0.3769   -9.2955  -46.4428 H         1 UNK         0.3000 
    190 H190       -1.9768  -21.2675  -44.4484 H         1 UNK         0.3000 
    191 H191       -4.6694  -22.0532  -44.9979 H         1 UNK         0.0600 
    192 H192       -4.7035  -22.6814  -42.5606 H         1 UNK         0.0600 
    193 H193       -4.1066  -21.0625  -42.8523 H         1 UNK         0.0600 
    194 H194       -2.9758  -22.3704  -42.4710 H         1 UNK         0.0600 
    195 H195       -1.7202  -23.9810  -44.3475 H         1 UNK         0.3000 
    196 H196       -2.9120  -26.5432  -44.3179 H         1 UNK         0.0600 
    197 H197       -0.6064  -27.3504  -44.7529 H         1 UNK         0.0600 
    198 H198       -0.5805  -26.0526  -43.5680 H         1 UNK         0.0600 
    199 H199       -0.1022  -25.7374  -45.2357 H         1 UNK         0.0600 
    200 H200       -2.1253  -24.4485  -47.0262 H         1 UNK         0.3000 
    201 H201       -2.7940  -26.5021  -49.0586 H         1 UNK         0.0600 
    202 H202       -0.7563  -25.1422  -49.4040 H         1 UNK         0.0600 
    203 H203       -1.6893  -23.6578  -49.2856 H         1 UNK         0.0600 
    204 H204       -1.9460  -24.7671  -50.6365 H         1 UNK         0.0600 
    205 H205       -4.7106  -24.9924  -47.0698 H         1 UNK         0.3000 
    206 H206       -6.8153  -24.3543  -46.9903 H         1 UNK         0.0600 
    207 H207       -7.2364  -26.3671  -48.4000 H         1 UNK         0.0600 
    208 H208       -8.3991  -25.0946  -48.7362 H         1 UNK         0.0600 
    209 H209       -7.0845  -25.3952  -49.8621 H         1 UNK         0.0600 
    210 H210       -5.1604  -22.3276  -47.2648 H         1 UNK         0.3000 
    211 H211       -4.9341  -20.1600  -47.6388 H         1 UNK         0.0600 
    212 H212       -7.7195  -20.0875  -48.9123 H         1 UNK         0.0600 
    213 H213       -6.7799  -18.7154  -48.3482 H         1 UNK         0.0600 
    214 H214       -7.3879  -19.8891  -47.1916 H         1 UNK         0.0600 
    215 H215       -3.8165  -22.0037  -49.2101 H         1 UNK         0.3000 
    216 H216       -2.6850  -22.4892  -51.0275 H         1 UNK         0.0600 
    217 H217       -3.0183  -19.5720  -51.8434 H         1 UNK         0.0600 
    218 H218       -1.7928  -20.6893  -52.4368 H         1 UNK         0.0600 
    219 H219       -1.7821  -20.2034  -50.7534 H         1 UNK         0.0600 
    220 H220       -5.8149  -22.4521  -51.2168 H         1 UNK         0.3000 
    221 H221       -6.4432  -22.2609  -53.9914 H         1 UNK         0.0600 
    222 H222       -7.8446  -23.8659  -51.7908 H         1 UNK         0.0600 
    223 H223       -8.1514  -22.1697  -52.1670 H         1 UNK         0.0600 
    224 H224       -8.5323  -23.4169  -53.3453 H         1 UNK         0.0600 
    225 H225       -5.0915  -24.8949  -52.0225 H         1 UNK         0.3000 
    226 H226       -5.4312  -27.0095  -53.9345 H         1 UNK         0.0600 
    227 H227       -4.9820  -27.3709  -51.4941 H         1 UNK         0.0600 
    228 H228       -3.7982  -28.1948  -52.4988 H         1 UNK         0.0600 
    229 H229       -3.3654  -26.6941  -51.6913 H         1 UNK         0.0600 
    230 H230       -3.1863  -24.3504  -53.7321 H         1 UNK         0.3000 
    231 H231       -1.3664  -25.4747  -55.8126 H         1 UNK         0.0600 
    232 H232       -1.0799  -23.0341  -53.9721 H         1 UNK         0.0600 
    233 H233       -0.3235  -24.6035  -53.7009 H         1 UNK         0.0600 
    234 H234        0.1351  -23.6365  -55.0924 H         1 UNK         0.0600 
    235 H235       -4.2152  -23.8002  -55.6758 H         1 UNK         0.3000 
    236 H236       -5.3455  -22.2670  -56.7866 H         1 UNK         0.0600 
    237 H237       -4.8914  -23.8173  -58.7007 H         1 UNK         0.0600 
    238 H238       -5.0695  -22.1561  -59.2389 H         1 UNK         0.0600 
    239 H239       -3.4667  -22.8724  -59.1323 H         1 UNK         0.0600 
    240 H240       -3.2760  -21.2833  -55.1251 H         1 UNK         0.3000 
    241 H241       -2.0413  -19.6118  -54.5475 H         1 UNK         0.0600 
    242 H242       -1.0179  -21.3061  -56.9866 H         1 UNK         0.3800 
    243 H243        0.3764  -20.3559  -57.4288 H         1 UNK         0.3800 
    244 H244       -4.1524  -18.2443  -56.0455 H         1 UNK         0.0800 
    245 H245       -2.6978  -17.3321  -56.2290 H         1 UNK         0.0800 
    246 H246       -1.0229  -17.1333  -54.0141 H         1 UNK         0.0800 
    247 H247       -1.8469  -15.6280  -54.3405 H         1 UNK         0.0800 
@<TRIPOS>BOND
     1    1    2 1    
     2    1  127 1    
     3    1  128 1    
     4    1  129 1    
     5    2    3 2    
     6    2    4 am   BACKBONE|DICT|INTERRES
     7    4    5 1    
     8    4  130 1    
     9    5    6 1    
    10    5   65 1    
    11    5  131 1    
    12    6    7 1    
    13    6  132 1    
    14    6  133 1    
    15    7    8 1    
    16    8    9 1    
    17    8  134 1    
    18    8  135 1    
    19    9   10 ar   
    20    9   14 ar   
    21   10   11 ar   
    22   10  136 1    
    23   11   12 ar   
    24   11  126 1    
    25   12   13 ar   
    26   12  137 1    
    27   13   14 ar   
    28   13   15 1    
    29   14  138 1    
    30   15   16 1    
    31   15  139 1    
    32   15  140 1    
    33   16   17 1    
    34   17   18 1    
    35   17  141 1    
    36   17  142 1    
    37   18   19 1    
    38   18   67 1    
    39   18  143 1    
    40   19   20 am   BACKBONE|DICT|INTERRES
    41   19  144 1    
    42   20   21 2    
    43   20   22 1    
    44   22   23 1    
    45   22   24 1    
    46   22  145 1    
    47   23  146 1    
    48   23  147 1    
    49   23  148 1    
    50   24   25 am   BACKBONE|DICT|INTERRES
    51   24  149 1    
    52   25   26 2    
    53   25   27 1    
    54   27   28 1    
    55   27   29 1    
    56   27  150 1    
    57   28  151 1    
    58   28  152 1    
    59   28  153 1    
    60   29   30 am   BACKBONE|DICT|INTERRES
    61   29  154 1    
    62   30   31 2    
    63   30   32 1    
    64   32   33 1    
    65   32   34 1    
    66   32  155 1    
    67   33  156 1    
    68   33  157 1    
    69   33  158 1    
    70   34   35 am   BACKBONE|DICT|INTERRES
    71   34  159 1    
    72   35   36 2    
    73   35   37 1    
    74   37   38 1    
    75   37   39 1    
    76   37  160 1    
    77   38  161 1    
    78   38  162 1    
    79   38  163 1    
    80   39   40 am   BACKBONE|DICT|INTERRES
    81   39  164 1    
    82   40   41 2    
    83   40   42 1    
    84   42   43 1    
    85   42   44 1    
    86   42  165 1    
    87   43  166 1    
    88   43  167 1    
    89   43  168 1    
    90   44   45 am   BACKBONE|DICT|INTERRES
    91   44  169 1    
    92   45   46 2    
    93   45   47 1    
    94   47   48 1    
    95   47   49 1    
    96   47  170 1    
    97   48  171 1    
    98   48  172 1    
    99   48  173 1    
   100   49   50 am   BACKBONE|DICT|INTERRES
   101   49  174 1    
   102   50   51 2    
   103   50   52 1    
   104   52   53 1    
   105   52   54 1    
   106   52  175 1    
   107   53  176 1    
   108   53  177 1    
   109   53  178 1    
   110   54   55 am   BACKBONE|DICT|INTERRES
   111   54  179 1    
   112   55   56 2    
   113   55   57 1    
   114   57   58 1    
   115   57   59 1    
   116   57  180 1    
   117   58  181 1    
   118   58  182 1    
   119   58  183 1    
   120   59   60 am   BACKBONE|DICT|INTERRES
   121   59  184 1    
   122   60   61 2    
   123   60   62 1    
   124   62   63 1    
   125   62   64 1    
   126   62  185 1    
   127   63  186 1    
   128   63  187 1    
   129   63  188 1    
   130   64   65 am   BACKBONE|DICT|INTERRES
   131   64  189 1    
   132   65   66 2    
   133   67   68 2    
   134   67   69 am   BACKBONE|DICT|INTERRES
   135   69   70 1    
   136   69  190 1    
   137   70   71 1    
   138   70   72 1    
   139   70  191 1    
   140   71  192 1    
   141   71  193 1    
   142   71  194 1    
   143   72   73 2    
   144   72   74 am   BACKBONE|DICT|INTERRES
   145   74   75 1    
   146   74  195 1    
   147   75   76 1    
   148   75   77 1    
   149   75  196 1    
   150   76  197 1    
   151   76  198 1    
   152   76  199 1    
   153   77   78 2    
   154   77   79 am   BACKBONE|DICT|INTERRES
   155   79   80 1    
   156   79  200 1    
   157   80   81 1    
   158   80   82 1    
   159   80  201 1    
   160   81  202 1    
   161   81  203 1    
   162   81  204 1    
   163   82   83 2    
   164   82   84 am   BACKBONE|DICT|INTERRES
   165   84   85 1    
   166   84  205 1    
   167   85   86 1    
   168   85   87 1    
   169   85  206 1    
   170   86  207 1    
   171   86  208 1    
   172   86  209 1    
   173   87   88 2    
   174   87   89 am   BACKBONE|DICT|INTERRES
   175   89   90 1    
   176   89  210 1    
   177   90   91 1    
   178   90   92 1    
   179   90  211 1    
   180   91  212 1    
   181   91  213 1    
   182   91  214 1    
   183   92   93 2    
   184   92   94 am   BACKBONE|DICT|INTERRES
   185   94   95 1    
   186   94  215 1    
   187   95   96 1    
   188   95   97 1    
   189   95  216 1    
   190   96  217 1    
   191   96  218 1    
   192   96  219 1    
   193   97   98 2    
   194   97   99 am   BACKBONE|DICT|INTERRES
   195   99  100 1    
   196   99  220 1    
   197  100  101 1    
   198  100  102 1    
   199  100  221 1    
   200  101  222 1    
   201  101  223 1    
   202  101  224 1    
   203  102  103 2    
   204  102  104 am   BACKBONE|DICT|INTERRES
   205  104  105 1    
   206  104  225 1    
   207  105  106 1    
   208  105  107 1    
   209  105  226 1    
   210  106  227 1    
   211  106  228 1    
   212  106  229 1    
   213  107  108 2    
   214  107  109 am   BACKBONE|DICT|INTERRES
   215  109  110 1    
   216  109  230 1    
   217  110  111 1    
   218  110  112 1    
   219  110  231 1    
   220  111  232 1    
   221  111  233 1    
   222  111  234 1    
   223  112  113 2    
   224  112  114 am   BACKBONE|DICT|INTERRES
   225  114  115 1    
   226  114  235 1    
   227  115  116 1    
   228  115  117 1    
   229  115  236 1    
   230  116  237 1    
   231  116  238 1    
   232  116  239 1    
   233  117  118 2    
   234  117  119 am   BACKBONE|DICT|INTERRES
   235  119  120 1    
   236  119  240 1    
   237  120  121 1    
   238  120  124 1    
   239  120  241 1    
   240  121  122 am   BACKBONE|DICT|INTERRES
   241  121  123 2    
   242  122  242 1    
   243  122  243 1    
   244  124  125 1    
   245  124  244 1    
   246  124  245 1    
   247  125  126 1    
   248  126  246 1    
   249  126  247 1    
@<TRIPOS>SUBSTRUCTURE
     1 UNK         1 GROUP             0       ****    0 ROOT    
