@<TRIPOS>MOLECULE
3R540
247   249    1
SMALL
USER_CHARGES


@<TRIPOS>ATOM
      1 CA         -3.5586  -14.0849  -49.6323 C.3       0 UNK        -0.1800 
      2 C          -2.2562  -13.8134  -48.8931 C.2       0 UNK         0.5000 
      3 O          -1.9989  -12.6779  -48.4939 O.2       0 UNK        -0.5000 
      4 N          -1.4399  -14.8565  -48.6942 N.am      1 UNK        -0.5000 
      5 CA         -0.1410  -14.7951  -48.0063 C.3       1 UNK         0.1400 
      6 C6          0.7373  -16.0203  -48.3707 C.3       23 UNK        -0.0398 
      7 S7          2.5282  -15.6533  -48.3351 S.3       23 UNK        -0.2404 
      8 C8          3.1066  -16.2820  -49.9438 C.3       23 UNK        -0.0205 
      9 C9          2.7783  -17.7553  -50.1436 C.ar      23 UNK        -0.0193 
     10 C10         1.8496  -18.1354  -51.1149 C.ar      23 UNK        -0.1150 
     11 C11         1.5161  -19.4798  -51.2924 C.ar      23 UNK        -0.0193 
     12 C12         2.1473  -20.4519  -50.5120 C.ar      23 UNK        -0.1150 
     13 C13         3.0909  -20.0891  -49.5442 C.ar      23 UNK        -0.0193 
     14 C14         3.3991  -18.7365  -49.3643 C.ar      23 UNK        -0.1150 
     15 C15         3.8136  -21.1492  -48.7192 C.3       23 UNK        -0.0205 
     16 S16         2.7096  -22.4268  -48.0314 S.3       23 UNK        -0.2404 
     17 C17         1.8151  -21.4878  -46.7519 C.3       23 UNK        -0.0398 
     18 CA          0.4520  -22.1388  -46.4088 C.3       11 UNK         0.1400 
     19 N           0.0731  -21.9150  -45.0106 N.am      11 UNK        -0.5000 
     20 C          -0.9396  -22.5322  -44.3852 C.2       10 UNK         0.5000 
     21 O          -1.6323  -23.4051  -44.9064 O.2       10 UNK        -0.5000 
     22 CA         -1.2733  -22.0523  -42.9593 C.3       10 UNK         0.1400 
     23 CB         -0.3707  -22.7293  -41.9176 C.3       10 UNK        -0.1800 
     24 N          -1.1791  -20.5976  -42.8289 N.am      10 UNK        -0.5000 
     25 C          -1.9611  -19.7346  -43.4922 C.2       9 UNK         0.5000 
     26 O          -2.8965  -20.0773  -44.2132 O.2       9 UNK        -0.5000 
     27 CA         -1.6032  -18.2447  -43.3868 C.3       9 UNK         0.1400 
     28 CB         -2.1878  -17.6272  -42.1064 C.3       9 UNK        -0.1800 
     29 N          -0.1593  -18.0111  -43.4508 N.am      9 UNK        -0.5000 
     30 C           0.6062  -18.2647  -44.5227 C.2       8 UNK         0.5000 
     31 O           0.1581  -18.6479  -45.6010 O.2       8 UNK        -0.5000 
     32 CA          2.1297  -18.1342  -44.3485 C.3       8 UNK         0.1400 
     33 CB          2.6056  -16.7053  -44.6240 C.3       8 UNK        -0.1800 
     34 N           2.5636  -18.5396  -43.0148 N.am      8 UNK        -0.5000 
     35 C           2.5727  -19.8053  -42.5777 C.2       7 UNK         0.5000 
     36 O           2.2701  -20.7701  -43.2794 O.2       7 UNK        -0.5000 
     37 CA          2.9308  -20.0128  -41.0944 C.3       7 UNK         0.1400 
     38 CB          4.4534  -20.0912  -40.9108 C.3       7 UNK        -0.1800 
     39 N           2.3926  -18.9477  -40.2437 N.am      7 UNK        -0.5000 
     40 C           1.0851  -18.7547  -40.0170 C.2       6 UNK         0.5000 
     41 O           0.2071  -19.5035  -40.4445 O.2       6 UNK        -0.5000 
     42 CA          0.6931  -17.4871  -39.2308 C.3       6 UNK         0.1400 
     43 CB          0.6842  -17.7699  -37.7215 C.3       6 UNK        -0.1800 
     44 N           1.5736  -16.3467  -39.5083 N.am      6 UNK        -0.5000 
     45 C           1.6648  -15.7318  -40.6951 C.2       5 UNK         0.5000 
     46 O           0.9797  -16.0358  -41.6736 O.2       5 UNK        -0.5000 
     47 CA          2.7577  -14.6626  -40.8298 C.3       5 UNK         0.1400 
     48 CB          4.1399  -15.3490  -40.9030 C.3       5 UNK        -0.1800 
     49 N           2.5226  -13.8630  -42.0328 N.am      5 UNK        -0.5000 
     50 C           3.2046  -12.7633  -42.3793 C.2       4 UNK         0.5000 
     51 O           4.0657  -12.2418  -41.6691 O.2       4 UNK        -0.5000 
     52 CA          2.8879  -12.1378  -43.7492 C.3       4 UNK         0.1400 
     53 CB          3.5894  -12.9102  -44.8774 C.3       4 UNK        -0.1800 
     54 N           1.4547  -12.0527  -44.0282 N.am      4 UNK        -0.5000 
     55 C           0.6450  -11.1234  -43.4968 C.2       3 UNK         0.5000 
     56 O           1.0232  -10.2814  -42.6810 O.2       3 UNK        -0.5000 
     57 CA         -0.8265  -11.0971  -43.9630 C.3       3 UNK         0.1400 
     58 CB         -1.0294  -10.0153  -45.0351 C.3       3 UNK        -0.1800 
     59 N          -1.2953  -12.3750  -44.4944 N.am      3 UNK        -0.5000 
     60 C          -1.4868  -13.4767  -43.7594 C.2       2 UNK         0.5000 
     61 O          -1.3802  -13.5015  -42.5333 O.2       2 UNK        -0.5000 
     62 CA         -1.8387  -14.7748  -44.5110 C.3       2 UNK         0.1400 
     63 CB         -3.3371  -15.0856  -44.3644 C.3       2 UNK        -0.1800 
     64 N          -1.4930  -14.8119  -45.9359 N.am      2 UNK        -0.5000 
     65 C          -0.2779  -14.6214  -46.4727 C.2       1 UNK         0.5000 
     66 O           0.7035  -14.2961  -45.8062 O.2       1 UNK        -0.5000 
     67 C          -0.6638  -21.7070  -47.3874 C.2       11 UNK         0.5000 
     68 O          -1.0010  -22.4632  -48.2983 O.2       11 UNK        -0.5000 
     69 N          -1.2594  -20.5303  -47.1450 N.am      12 UNK        -0.5000 
     70 CA         -2.3999  -20.0014  -47.8933 C.3       12 UNK         0.1400 
     71 CB         -2.6795  -18.5532  -47.4613 C.3       12 UNK        -0.1800 
     72 C          -3.6582  -20.8791  -47.7666 C.2       12 UNK         0.5000 
     73 O          -4.3331  -21.1141  -48.7673 O.2       12 UNK        -0.5000 
     74 N          -3.9263  -21.3814  -46.5528 N.am      13 UNK        -0.5000 
     75 CA         -5.0119  -22.3183  -46.2602 C.3       13 UNK         0.1400 
     76 CB         -5.1669  -22.4690  -44.7395 C.3       13 UNK        -0.1800 
     77 C          -4.8181  -23.6923  -46.9295 C.2       13 UNK         0.5000 
     78 O          -5.7953  -24.2727  -47.4042 O.2       13 UNK        -0.5000 
     79 N          -3.5687  -24.1798  -46.9749 N.am      14 UNK        -0.5000 
     80 CA         -3.1787  -25.3936  -47.6975 C.3       14 UNK         0.1400 
     81 CB         -1.7501  -25.7982  -47.3031 C.3       14 UNK        -0.1800 
     82 C          -3.3037  -25.2344  -49.2251 C.2       14 UNK         0.5000 
     83 O          -3.6820  -26.1911  -49.9028 O.2       14 UNK        -0.5000 
     84 N          -3.0105  -24.0249  -49.7251 N.am      15 UNK        -0.5000 
     85 CA         -3.1956  -23.5035  -51.0850 C.3       15 UNK         0.1400 
     86 CB         -4.6730  -23.6067  -51.5122 C.3       15 UNK        -0.1800 
     87 C          -2.2666  -24.1173  -52.1496 C.2       15 UNK         0.5000 
     88 O          -1.7192  -23.3819  -52.9716 O.2       15 UNK        -0.5000 
     89 N          -2.1038  -25.4468  -52.1241 N.am      16 UNK        -0.5000 
     90 CA         -1.3524  -26.2654  -53.0769 C.3       16 UNK         0.1400 
     91 CB          0.1660  -26.0237  -52.9152 C.3       16 UNK        -0.1800 
     92 C          -1.8853  -26.0697  -54.5134 C.2       16 UNK         0.5000 
     93 O          -3.0720  -26.3054  -54.7491 O.2       16 UNK        -0.5000 
     94 N          -1.0217  -25.6341  -55.4395 N.am      17 UNK        -0.5000 
     95 CA         -1.3758  -25.3274  -56.8261 C.3       17 UNK         0.1400 
     96 CB         -0.0905  -25.2695  -57.6658 C.3       17 UNK        -0.1800 
     97 C          -2.1756  -24.0179  -56.9783 C.2       17 UNK         0.5000 
     98 O          -2.9105  -23.8717  -57.9562 O.2       17 UNK        -0.5000 
     99 N          -2.0372  -23.0902  -56.0209 N.am      18 UNK        -0.5000 
    100 CA        -2.7171  -21.7963  -56.0036 C.3       18 UNK         0.1400 
    101 CB        -1.8010  -20.7581  -55.3372 C.3       18 UNK        -0.1800 
    102 C         -4.0826  -21.9288  -55.3060 C.2       18 UNK         0.5000 
    103 O         -4.3044  -21.3431  -54.2435 O.2       18 UNK        -0.5000 
    104 N         -4.9725  -22.7113  -55.9336 N.am      19 UNK        -0.5000 
    105 CA        -6.2891  -23.1523  -55.4523 C.3       19 UNK         0.1400 
    106 CB        -6.9117  -24.0681  -56.5175 C.3       19 UNK        -0.1800 
    107 C         -7.2820  -22.0397  -55.0494 C.2       19 UNK         0.5000 
    108 O         -8.2757  -22.3315  -54.3838 O.2       19 UNK        -0.5000 
    109 N         -6.9840  -20.7862  -55.4139 N.am      20 UNK        -0.5000 
    110 CA        -7.6582  -19.5711  -54.9479 C.3       20 UNK         0.1400 
    111 CB        -7.2644  -18.4161  -55.8839 C.3       20 UNK        -0.1800 
    112 C         -7.3520  -19.2084  -53.4733 C.2       20 UNK         0.5000 
    113 O         -7.8800  -18.2078  -52.9876 O.2       20 UNK        -0.5000 
    114 N         -6.5094  -20.0110  -52.8044 N.am      21 UNK        -0.5000 
    115 CA        -5.9639  -19.8467  -51.4537 C.3       21 UNK         0.1400 
    116 CB        -7.0630  -19.6513  -50.3867 C.3       21 UNK        -0.1800 
    117 C         -4.8558  -18.7797  -51.4223 C.2       21 UNK         0.5000 
    118 O         -4.7882  -17.9742  -50.4916 O.2       21 UNK        -0.5000 
    119 N         -3.9972  -18.8188  -52.4513 N.am      22 UNK        -0.5000 
    120 CA        -2.8216  -17.9536  -52.6389 C.3       22 UNK         0.1400 
    121 C         -3.1685  -16.4398  -52.8119 C.2       22 UNK         0.5000 
    122 N         -2.1980  -15.5386  -52.7183 N.am      22 UNK        -0.7600 
    123 O         -4.3035  -16.0645  -53.0964 O.2       22 UNK        -0.5000 
    124 C124       -1.7184  -18.2334  -51.5774 C.3       23 UNK        -0.0398 
    125 S125       -1.1836  -19.9819  -51.5836 S.3       23 UNK        -0.2404 
    126 C126        0.4752  -19.8868  -52.3233 C.3       23 UNK        -0.0205 
    127 H127       -3.5874  -13.5180  -50.5627 H         1 UNK         0.0600 
    128 H128       -4.4084  -13.7821  -49.0207 H         1 UNK         0.0600 
    129 H129       -3.6759  -15.1416  -49.8758 H         1 UNK         0.0600 
    130 H130       -1.7156  -15.7639  -49.0389 H         1 UNK         0.3000 
    131 H131        0.3633  -13.8985  -48.3738 H         1 UNK         0.0600 
    132 H132        0.4878  -16.3565  -49.3768 H         1 UNK         0.0800 
    133 H133        0.5348  -16.8732  -47.7202 H         1 UNK         0.0800 
    134 H134        4.1867  -16.1447  -50.0089 H         1 UNK         0.0800 
    135 H135        2.6728  -15.6734  -50.7388 H         1 UNK         0.0800 
    136 H136        1.3819  -17.3798  -51.7284 H         1 UNK         0.1150 
    137 H137        1.8988  -21.4939  -50.6573 H         1 UNK         0.1150 
    138 H138        4.1253  -18.4413  -48.6199 H         1 UNK         0.1150 
    139 H139        4.5503  -21.6362  -49.3593 H         1 UNK         0.0800 
    140 H140        4.3722  -20.6916  -47.9011 H         1 UNK         0.0800 
    141 H141        1.6983  -20.4454  -47.0545 H         1 UNK         0.0800 
    142 H142        2.4609  -21.4733  -45.8732 H         1 UNK         0.0800 
    143 H143        0.5596  -23.2212  -46.5102 H         1 UNK         0.0600 
    144 H144        0.6266  -21.2459  -44.4880 H         1 UNK         0.3000 
    145 H145       -2.3052  -22.3383  -42.7463 H         1 UNK         0.0600 
    146 H146       -0.6356  -22.4194  -40.9065 H         1 UNK         0.0600 
    147 H147        0.6809  -22.4920  -42.0742 H         1 UNK         0.0600 
    148 H148       -0.4715  -23.8143  -41.9634 H         1 UNK         0.0600 
    149 H149       -0.4732  -20.2326  -42.1978 H         1 UNK         0.3000 
    150 H150       -2.0530  -17.7465  -44.2457 H         1 UNK         0.0600 
    151 H151       -3.2777  -17.6372  -42.1390 H         1 UNK         0.0600 
    152 H152       -1.8748  -16.5913  -41.9766 H         1 UNK         0.0600 
    153 H153       -1.8883  -18.1766  -41.2153 H         1 UNK         0.0600 
    154 H154        0.2786  -17.6112  -42.6276 H         1 UNK         0.3000 
    155 H155        2.6060  -18.7923  -45.0786 H         1 UNK         0.0600 
    156 H156        3.6843  -16.6103  -44.4999 H         1 UNK         0.0600 
    157 H157        2.3710  -16.4212  -45.6464 H         1 UNK         0.0600 
    158 H158        2.1233  -15.9791  -43.9727 H         1 UNK         0.0600 
    159 H159        2.7847  -17.8008  -42.3657 H         1 UNK         0.3000 
    160 H160        2.4961  -20.9624  -40.7748 H         1 UNK         0.0600 
    161 H161        4.7146  -20.3055  -39.8743 H         1 UNK         0.0600 
    162 H162        4.9440  -19.1595  -41.1953 H         1 UNK         0.0600 
    163 H163        4.8791  -20.8871  -41.5233 H         1 UNK         0.0600 
    164 H164        3.0550  -18.3005  -39.8432 H         1 UNK         0.3000 
    165 H165       -0.3197  -17.2114  -39.5313 H         1 UNK         0.0600 
    166 H166        0.3321  -16.9042  -37.1603 H         1 UNK         0.0600 
    167 H167        0.0189  -18.6014  -37.4846 H         1 UNK         0.0600 
    168 H168        1.6775  -18.0288  -37.3529 H         1 UNK         0.0600 
    169 H169        2.1697  -16.0445  -38.7510 H         1 UNK         0.3000 
    170 H170        2.7109  -14.0093  -39.9564 H         1 UNK         0.0600 
    171 H171        4.2360  -15.9609  -41.8007 H         1 UNK         0.0600 
    172 H172        4.9521  -14.6228  -40.9100 H         1 UNK         0.0600 
    173 H173        4.3112  -15.9974  -40.0431 H         1 UNK         0.0600 
    174 H174        1.7875  -14.2149  -42.6336 H         1 UNK         0.3000 
    175 H175        3.2955  -11.1243  -43.7491 H         1 UNK         0.0600 
    176 H176        3.2357  -13.9382  -44.9460 H         1 UNK         0.0600 
    177 H177        3.4210  -12.4363  -45.8445 H         1 UNK         0.0600 
    178 H178        4.6673  -12.9458  -44.7148 H         1 UNK         0.0600 
    179 H179        1.0769  -12.7368  -44.6777 H         1 UNK         0.3000 
    180 H180       -1.4410  -10.8402  -43.0976 H         1 UNK         0.0600 
    181 H181       -2.0785   -9.9335  -45.3201 H         1 UNK         0.0600 
    182 H182       -0.4522  -10.2291  -45.9357 H         1 UNK         0.0600 
    183 H183       -0.7162   -9.0368  -44.6684 H         1 UNK         0.0600 
    184 H184       -1.4013  -12.4426  -45.4966 H         1 UNK         0.3000 
    185 H185       -1.2588  -15.5597  -44.0297 H         1 UNK         0.0600 
    186 H186       -3.9508  -14.3182  -44.8379 H         1 UNK         0.0600 
    187 H187       -3.5954  -16.0431  -44.8162 H         1 UNK         0.0600 
    188 H188       -3.6274  -15.1339  -43.3141 H         1 UNK         0.0600 
    189 H189       -2.2460  -15.0389  -46.5679 H         1 UNK         0.3000 
    190 H190       -0.8819  -19.9342  -46.4123 H         1 UNK         0.3000 
    191 H191       -2.1204  -19.9880  -48.9451 H         1 UNK         0.0600 
    192 H192       -1.8028  -17.9226  -47.6060 H         1 UNK         0.0600 
    193 H193       -2.9658  -18.4929  -46.4119 H         1 UNK         0.0600 
    194 H194       -3.4924  -18.1231  -48.0472 H         1 UNK         0.0600 
    195 H195       -3.3602  -21.0801  -45.7641 H         1 UNK         0.3000 
    196 H196       -5.9354  -21.8876  -46.6527 H         1 UNK         0.0600 
    197 H197       -5.3776  -21.5091  -44.2677 H         1 UNK         0.0600 
    198 H198       -4.2656  -22.8761  -44.2811 H         1 UNK         0.0600 
    199 H199       -5.9915  -23.1398  -44.4955 H         1 UNK         0.0600 
    200 H200       -2.8299  -23.6786  -46.4918 H         1 UNK         0.3000 
    201 H201       -3.8527  -26.1967  -47.3924 H         1 UNK         0.0600 
    202 H202       -1.6720  -25.9709  -46.2296 H         1 UNK         0.0600 
    203 H203       -1.0228  -25.0323  -47.5716 H         1 UNK         0.0600 
    204 H204       -1.4543  -26.7207  -47.8040 H         1 UNK         0.0600 
    205 H205       -2.5947  -23.3578  -49.0816 H         1 UNK         0.3000 
    206 H206       -2.9471  -22.4429  -51.0242 H         1 UNK         0.0600 
    207 H207       -4.9862  -24.6407  -51.6575 H         1 UNK         0.0600 
    208 H208       -5.3304  -23.1605  -50.7659 H         1 UNK         0.0600 
    209 H209       -4.8446  -23.0855  -52.4516 H         1 UNK         0.0600 
    210 H210       -2.6355  -25.9529  -51.4201 H         1 UNK         0.3000 
    211 H211       -1.5519  -27.3055  -52.8160 H         1 UNK         0.0600 
    212 H212        0.4515  -24.9989  -53.1550 H         1 UNK         0.0600 
    213 H213        0.7427  -26.6920  -53.5558 H         1 UNK         0.0600 
    214 H214        0.4804  -26.2177  -51.8896 H         1 UNK         0.0600 
    215 H215       -0.0677  -25.4527  -55.1633 H         1 UNK         0.3000 
    216 H216       -1.9972  -26.1384  -57.2119 H         1 UNK         0.0600 
    217 H217       -0.3174  -25.0709  -58.7142 H         1 UNK         0.0600 
    218 H218        0.4503  -26.2152  -57.6257 H         1 UNK         0.0600 
    219 H219        0.5810  -24.4823  -57.3206 H         1 UNK         0.0600 
    220 H220       -1.5099  -23.3199  -55.1869 H         1 UNK         0.3000 
    221 H221       -2.8995  -21.4602  -57.0264 H         1 UNK         0.0600 
    222 H222       -1.5977  -21.0120  -54.2977 H         1 UNK         0.0600 
    223 H223       -0.8451  -20.6832  -55.8556 H         1 UNK         0.0600 
    224 H224       -2.2594  -19.7699  -55.3573 H         1 UNK         0.0600 
    225 H225       -4.6632  -23.1370  -56.7991 H         1 UNK         0.3000 
    226 H226       -6.1127  -23.7499  -54.5561 H         1 UNK         0.0600 
    227 H227       -6.2704  -24.9253  -56.7243 H         1 UNK         0.0600 
    228 H228       -7.8752  -24.4590  -56.1877 H         1 UNK         0.0600 
    229 H229       -7.0761  -23.5365  -57.4556 H         1 UNK         0.0600 
    230 H230       -6.1418  -20.6485  -55.9525 H         1 UNK         0.3000 
    231 H231       -8.7363  -19.7244  -55.0261 H         1 UNK         0.0600 
    232 H232       -7.7904  -17.4979  -55.6192 H         1 UNK         0.0600 
    233 H233       -7.5157  -18.6432  -56.9201 H         1 UNK         0.0600 
    234 H234       -6.1950  -18.2068  -55.8339 H         1 UNK         0.0600 
    235 H235       -6.0774  -20.7555  -53.3392 H         1 UNK         0.3000 
    236 H236       -5.4657  -20.7886  -51.2255 H         1 UNK         0.0600 
    237 H237       -7.5458  -18.6776  -50.4668 H         1 UNK         0.0600 
    238 H238       -7.8316  -20.4199  -50.4658 H         1 UNK         0.0600 
    239 H239       -6.6405  -19.7171  -49.3837 H         1 UNK         0.0600 
    240 H240       -4.1293  -19.5374  -53.1533 H         1 UNK         0.3000 
    241 H241       -2.4148  -18.2394  -53.6079 H         1 UNK         0.0600 
    242 H242       -1.2373  -15.7923  -52.5592 H         1 UNK         0.3800 
    243 H243       -2.4308  -14.5697  -52.8691 H         1 UNK         0.3800 
    244 H244       -2.0763  -17.9857  -50.5777 H         1 UNK         0.0800 
    245 H245       -0.8495  -17.6028  -51.7477 H         1 UNK         0.0800 
    246 H246        0.7273  -20.8660  -52.7333 H         1 UNK         0.0800 
    247 H247        0.4706  -19.1965  -53.1681 H         1 UNK         0.0800 
@<TRIPOS>BOND
     1    1    2 1    
     2    1  127 1    
     3    1  128 1    
     4    1  129 1    
     5    2    3 2    
     6    2    4 am   BACKBONE|DICT|INTERRES
     7    4    5 1    
     8    4  130 1    
     9    5    6 1    
    10    5   65 1    
    11    5  131 1    
    12    6    7 1    
    13    6  132 1    
    14    6  133 1    
    15    7    8 1    
    16    8    9 1    
    17    8  134 1    
    18    8  135 1    
    19    9   10 ar   
    20    9   14 ar   
    21   10   11 ar   
    22   10  136 1    
    23   11   12 ar   
    24   11  126 1    
    25   12   13 ar   
    26   12  137 1    
    27   13   14 ar   
    28   13   15 1    
    29   14  138 1    
    30   15   16 1    
    31   15  139 1    
    32   15  140 1    
    33   16   17 1    
    34   17   18 1    
    35   17  141 1    
    36   17  142 1    
    37   18   19 1    
    38   18   67 1    
    39   18  143 1    
    40   19   20 am   BACKBONE|DICT|INTERRES
    41   19  144 1    
    42   20   21 2    
    43   20   22 1    
    44   22   23 1    
    45   22   24 1    
    46   22  145 1    
    47   23  146 1    
    48   23  147 1    
    49   23  148 1    
    50   24   25 am   BACKBONE|DICT|INTERRES
    51   24  149 1    
    52   25   26 2    
    53   25   27 1    
    54   27   28 1    
    55   27   29 1    
    56   27  150 1    
    57   28  151 1    
    58   28  152 1    
    59   28  153 1    
    60   29   30 am   BACKBONE|DICT|INTERRES
    61   29  154 1    
    62   30   31 2    
    63   30   32 1    
    64   32   33 1    
    65   32   34 1    
    66   32  155 1    
    67   33  156 1    
    68   33  157 1    
    69   33  158 1    
    70   34   35 am   BACKBONE|DICT|INTERRES
    71   34  159 1    
    72   35   36 2    
    73   35   37 1    
    74   37   38 1    
    75   37   39 1    
    76   37  160 1    
    77   38  161 1    
    78   38  162 1    
    79   38  163 1    
    80   39   40 am   BACKBONE|DICT|INTERRES
    81   39  164 1    
    82   40   41 2    
    83   40   42 1    
    84   42   43 1    
    85   42   44 1    
    86   42  165 1    
    87   43  166 1    
    88   43  167 1    
    89   43  168 1    
    90   44   45 am   BACKBONE|DICT|INTERRES
    91   44  169 1    
    92   45   46 2    
    93   45   47 1    
    94   47   48 1    
    95   47   49 1    
    96   47  170 1    
    97   48  171 1    
    98   48  172 1    
    99   48  173 1    
   100   49   50 am   BACKBONE|DICT|INTERRES
   101   49  174 1    
   102   50   51 2    
   103   50   52 1    
   104   52   53 1    
   105   52   54 1    
   106   52  175 1    
   107   53  176 1    
   108   53  177 1    
   109   53  178 1    
   110   54   55 am   BACKBONE|DICT|INTERRES
   111   54  179 1    
   112   55   56 2    
   113   55   57 1    
   114   57   58 1    
   115   57   59 1    
   116   57  180 1    
   117   58  181 1    
   118   58  182 1    
   119   58  183 1    
   120   59   60 am   BACKBONE|DICT|INTERRES
   121   59  184 1    
   122   60   61 2    
   123   60   62 1    
   124   62   63 1    
   125   62   64 1    
   126   62  185 1    
   127   63  186 1    
   128   63  187 1    
   129   63  188 1    
   130   64   65 am   BACKBONE|DICT|INTERRES
   131   64  189 1    
   132   65   66 2    
   133   67   68 2    
   134   67   69 am   BACKBONE|DICT|INTERRES
   135   69   70 1    
   136   69  190 1    
   137   70   71 1    
   138   70   72 1    
   139   70  191 1    
   140   71  192 1    
   141   71  193 1    
   142   71  194 1    
   143   72   73 2    
   144   72   74 am   BACKBONE|DICT|INTERRES
   145   74   75 1    
   146   74  195 1    
   147   75   76 1    
   148   75   77 1    
   149   75  196 1    
   150   76  197 1    
   151   76  198 1    
   152   76  199 1    
   153   77   78 2    
   154   77   79 am   BACKBONE|DICT|INTERRES
   155   79   80 1    
   156   79  200 1    
   157   80   81 1    
   158   80   82 1    
   159   80  201 1    
   160   81  202 1    
   161   81  203 1    
   162   81  204 1    
   163   82   83 2    
   164   82   84 am   BACKBONE|DICT|INTERRES
   165   84   85 1    
   166   84  205 1    
   167   85   86 1    
   168   85   87 1    
   169   85  206 1    
   170   86  207 1    
   171   86  208 1    
   172   86  209 1    
   173   87   88 2    
   174   87   89 am   BACKBONE|DICT|INTERRES
   175   89   90 1    
   176   89  210 1    
   177   90   91 1    
   178   90   92 1    
   179   90  211 1    
   180   91  212 1    
   181   91  213 1    
   182   91  214 1    
   183   92   93 2    
   184   92   94 am   BACKBONE|DICT|INTERRES
   185   94   95 1    
   186   94  215 1    
   187   95   96 1    
   188   95   97 1    
   189   95  216 1    
   190   96  217 1    
   191   96  218 1    
   192   96  219 1    
   193   97   98 2    
   194   97   99 am   BACKBONE|DICT|INTERRES
   195   99  100 1    
   196   99  220 1    
   197  100  101 1    
   198  100  102 1    
   199  100  221 1    
   200  101  222 1    
   201  101  223 1    
   202  101  224 1    
   203  102  103 2    
   204  102  104 am   BACKBONE|DICT|INTERRES
   205  104  105 1    
   206  104  225 1    
   207  105  106 1    
   208  105  107 1    
   209  105  226 1    
   210  106  227 1    
   211  106  228 1    
   212  106  229 1    
   213  107  108 2    
   214  107  109 am   BACKBONE|DICT|INTERRES
   215  109  110 1    
   216  109  230 1    
   217  110  111 1    
   218  110  112 1    
   219  110  231 1    
   220  111  232 1    
   221  111  233 1    
   222  111  234 1    
   223  112  113 2    
   224  112  114 am   BACKBONE|DICT|INTERRES
   225  114  115 1    
   226  114  235 1    
   227  115  116 1    
   228  115  117 1    
   229  115  236 1    
   230  116  237 1    
   231  116  238 1    
   232  116  239 1    
   233  117  118 2    
   234  117  119 am   BACKBONE|DICT|INTERRES
   235  119  120 1    
   236  119  240 1    
   237  120  121 1    
   238  120  124 1    
   239  120  241 1    
   240  121  122 am   BACKBONE|DICT|INTERRES
   241  121  123 2    
   242  122  242 1    
   243  122  243 1    
   244  124  125 1    
   245  124  244 1    
   246  124  245 1    
   247  125  126 1    
   248  126  246 1    
   249  126  247 1    
@<TRIPOS>SUBSTRUCTURE
     1 UNK         1 GROUP             0       ****    0 ROOT    
