@<TRIPOS>MOLECULE
3R540
247   249    1
SMALL
USER_CHARGES


@<TRIPOS>ATOM
      1 CA          3.0987  -15.6334  -45.3276 C.3       0 UNK        -0.1800 
      2 C           3.7933  -14.5302  -46.1200 C.2       0 UNK         0.5000 
      3 O           5.0160  -14.5495  -46.2420 O.2       0 UNK        -0.5000 
      4 N           3.0684  -13.5527  -46.6759 N.am      1 UNK        -0.5000 
      5 CA          1.6130  -13.3866  -46.6097 C.3       1 UNK         0.1400 
      6 C6          0.8841  -14.1587  -47.7417 C.3       23 UNK        -0.0398 
      7 S7         -0.8100  -14.6704  -47.2831 S.3       23 UNK        -0.2404 
      8 C8         -0.7357  -16.4907  -47.3894 C.3       23 UNK        -0.0205 
      9 C9         -0.2958  -16.9888  -48.7615 C.ar      23 UNK        -0.0193 
     10 C10        -0.9957  -16.6177  -49.9146 C.ar      23 UNK        -0.1150 
     11 C11        -0.5548  -17.0223  -51.1789 C.ar      23 UNK        -0.0193 
     12 C12         0.5759  -17.8389  -51.2795 C.ar      23 UNK        -0.1150 
     13 C13         1.2734  -18.2342  -50.1329 C.ar      23 UNK        -0.0193 
     14 C14         0.8349  -17.8017  -48.8781 C.ar      23 UNK        -0.1150 
     15 C15         2.5308  -19.0821  -50.2583 C.3       23 UNK        -0.0205 
     16 S16         2.1720  -20.8664  -50.2245 S.3       23 UNK        -0.2404 
     17 C17         2.0764  -21.2045  -48.4323 C.3       23 UNK        -0.0398 
     18 CA          0.8669  -22.0946  -48.0613 C.3       11 UNK         0.1400 
     19 N           1.0883  -22.8298  -46.8161 N.am      11 UNK        -0.5000 
     20 C           0.3981  -23.9143  -46.4396 C.2       10 UNK         0.5000 
     21 O          -0.4697  -24.4461  -47.1320 O.2       10 UNK        -0.5000 
     22 CA          0.7024  -24.4688  -45.0348 C.3       10 UNK         0.1400 
     23 CB          1.9104  -25.4161  -45.0766 C.3       10 UNK        -0.1800 
     24 N           0.9494  -23.4092  -44.0534 N.am      10 UNK        -0.5000 
     25 C           0.0117  -22.5539  -43.6230 C.2       9 UNK         0.5000 
     26 O          -1.1661  -22.6057  -43.9750 O.2       9 UNK        -0.5000 
     27 CA          0.4690  -21.4267  -42.6762 C.3       9 UNK         0.1400 
     28 CB          0.4251  -21.9096  -41.2187 C.3       9 UNK        -0.1800 
     29 N           1.7974  -20.8726  -42.9647 N.am      9 UNK        -0.5000 
     30 C           2.2033  -20.3839  -44.1463 C.2       8 UNK         0.5000 
     31 O           1.5292  -20.4323  -45.1748 O.2       8 UNK        -0.5000 
     32 CA          3.5747  -19.6963  -44.1589 C.3       8 UNK         0.1400 
     33 CB          3.9884  -19.1940  -45.5553 C.3       8 UNK        -0.1800 
     34 N           3.5170  -18.5844  -43.2176 N.am      8 UNK        -0.5000 
     35 C           4.4973  -18.2277  -42.3776 C.2       7 UNK         0.5000 
     36 O           5.6234  -18.7260  -42.3946 O.2       7 UNK        -0.5000 
     37 CA          4.1635  -17.1596  -41.3125 C.3       7 UNK         0.1400 
     38 CB          4.7323  -15.7910  -41.7161 C.3       7 UNK        -0.1800 
     39 N           2.7280  -17.0282  -41.0442 N.am      7 UNK        -0.5000 
     40 C           1.9642  -17.9909  -40.5019 C.2       6 UNK         0.5000 
     41 O           2.4187  -19.0561  -40.0838 O.2       6 UNK        -0.5000 
     42 CA          0.4388  -17.7603  -40.4453 C.3       6 UNK         0.1400 
     43 CB         -0.0022  -17.4399  -39.0092 C.3       6 UNK        -0.1800 
     44 N          -0.0565  -16.7081  -41.3349 N.am      6 UNK        -0.5000 
     45 C           0.0540  -16.6842  -42.6707 C.2       5 UNK         0.5000 
     46 O           0.5875  -17.5762  -43.3293 O.2       5 UNK        -0.5000 
     47 CA         -0.4577  -15.4148  -43.3792 C.3       5 UNK         0.1400 
     48 CB         -1.9124  -15.5982  -43.8329 C.3       5 UNK        -0.1800 
     49 N          -0.3651  -14.1947  -42.5683 N.am      5 UNK        -0.5000 
     50 C           0.7472  -13.6940  -42.0136 C.2       4 UNK         0.5000 
     51 O           1.8518  -14.2297  -42.1123 O.2       4 UNK        -0.5000 
     52 CA          0.5849  -12.3793  -41.2229 C.3       4 UNK         0.1400 
     53 CB          1.8828  -11.9567  -40.5120 C.3       4 UNK        -0.1800 
     54 N           0.1500  -11.2835  -42.0868 N.am      4 UNK        -0.5000 
     55 C          -1.0832  -11.0832  -42.5648 C.2       3 UNK         0.5000 
     56 O          -2.0407  -11.8066  -42.2862 O.2       3 UNK        -0.5000 
     57 CA         -1.2756   -9.9140  -43.5523 C.3       3 UNK         0.1400 
     58 CB         -1.4925   -8.5808  -42.8115 C.3       3 UNK        -0.1800 
     59 N          -0.2147   -9.8143  -44.5659 N.am      3 UNK        -0.5000 
     60 C           1.0752   -9.4813  -44.4187 C.2       2 UNK         0.5000 
     61 O           1.5812   -9.1475  -43.3459 O.2       2 UNK        -0.5000 
     62 CA          1.9578   -9.6567  -45.6697 C.3       2 UNK         0.1400 
     63 CB          3.3364   -8.9887  -45.5211 C.3       2 UNK        -0.1800 
     64 N           2.1516  -11.0813  -45.9455 N.am      2 UNK        -0.5000 
     65 C           1.2551  -11.8860  -46.5353 C.2       1 UNK         0.5000 
     66 O           0.1856  -11.4735  -46.9869 O.2       1 UNK        -0.5000 
     67 C          -0.4508  -21.2991  -47.9988 C.2       11 UNK         0.5000 
     68 O          -1.1851  -21.2810  -48.9812 O.2       11 UNK        -0.5000 
     69 N          -0.7658  -20.7170  -46.8327 N.am      12 UNK        -0.5000 
     70 CA         -2.0322  -20.0352  -46.5623 C.3       12 UNK         0.1400 
     71 CB         -1.9608  -19.3319  -45.2009 C.3       12 UNK        -0.1800 
     72 C          -3.2481  -20.9795  -46.6320 C.2       12 UNK         0.5000 
     73 O          -4.2775  -20.6015  -47.1899 O.2       12 UNK        -0.5000 
     74 N          -3.1009  -22.2053  -46.1101 N.am      13 UNK        -0.5000 
     75 CA         -4.0968  -23.2729  -46.2222 C.3       13 UNK         0.1400 
     76 CB         -3.6929  -24.4521  -45.3251 C.3       13 UNK        -0.1800 
     77 C          -4.2992  -23.7329  -47.6782 C.2       13 UNK         0.5000 
     78 O          -5.4370  -23.9292  -48.1057 O.2       13 UNK        -0.5000 
     79 N          -3.1969  -23.8531  -48.4294 N.am      14 UNK        -0.5000 
     80 CA         -3.2078  -24.1627  -49.8578 C.3       14 UNK         0.1400 
     81 CB         -1.7859  -24.5199  -50.3061 C.3       14 UNK        -0.1800 
     82 C          -3.8064  -23.0253  -50.7111 C.2       14 UNK         0.5000 
     83 O          -4.5188  -23.3031  -51.6735 O.2       14 UNK        -0.5000 
     84 N          -3.5494  -21.7695  -50.3229 N.am      15 UNK        -0.5000 
     85 CA         -4.1295  -20.5624  -50.9107 C.3       15 UNK         0.1400 
     86 CB         -3.4159  -19.3223  -50.3549 C.3       15 UNK        -0.1800 
     87 C          -5.6450  -20.4602  -50.6717 C.2       15 UNK         0.5000 
     88 O          -6.3691  -20.0443  -51.5747 O.2       15 UNK        -0.5000 
     89 N          -6.1114  -20.8839  -49.4879 N.am      16 UNK        -0.5000 
     90 CA         -7.5335  -20.9925  -49.1493 C.3       16 UNK         0.1400 
     91 CB         -7.6901  -21.2439  -47.6422 C.3       16 UNK        -0.1800 
     92 C          -8.2594  -22.0765  -49.9725 C.2       16 UNK         0.5000 
     93 O          -9.4291  -21.8983  -50.3129 O.2       16 UNK        -0.5000 
     94 N          -7.5405  -23.1536  -50.3197 N.am      17 UNK        -0.5000 
     95 CA         -7.9794  -24.1932  -51.2563 C.3       17 UNK         0.1400 
     96 CB         -7.1879  -25.4806  -50.9746 C.3       17 UNK        -0.1800 
     97 C          -7.8415  -23.7755  -52.7387 C.2       17 UNK         0.5000 
     98 O          -8.3210  -24.4973  -53.6143 O.2       17 UNK        -0.5000 
     99 N          -7.1947  -22.6287  -52.9910 N.am      18 UNK        -0.5000 
    100 CA        -6.8876  -21.9899  -54.2702 C.3       18 UNK         0.1400 
    101 CB        -8.1696  -21.6010  -55.0342 C.3       18 UNK        -0.1800 
    102 C         -5.9080  -22.8033  -55.1306 C.2       18 UNK         0.5000 
    103 O         -4.7327  -22.4433  -55.2189 O.2       18 UNK        -0.5000 
    104 N         -6.4082  -23.8773  -55.7533 N.am      19 UNK        -0.5000 
    105 CA        -5.7213  -24.6889  -56.7625 C.3       19 UNK         0.1400 
    106 CB        -6.7195  -25.7079  -57.3336 C.3       19 UNK        -0.1800 
    107 C         -4.4476  -25.4016  -56.2687 C.2       19 UNK         0.5000 
    108 O         -3.6147  -25.7871  -57.0901 O.2       19 UNK        -0.5000 
    109 N         -4.3133  -25.5615  -54.9467 N.am      20 UNK        -0.5000 
    110 CA        -3.1401  -26.1395  -54.2967 C.3       20 UNK         0.1400 
    111 CB        -3.5419  -26.6244  -52.8956 C.3       20 UNK        -0.1800 
    112 C         -1.9330  -25.1792  -54.2345 C.2       20 UNK         0.5000 
    113 O         -0.8202  -25.6504  -53.9951 O.2       20 UNK        -0.5000 
    114 N         -2.1481  -23.8724  -54.4447 N.am      21 UNK        -0.5000 
    115 CA        -1.0997  -22.8552  -54.4536 C.3       21 UNK         0.1400 
    116 CB        -0.7838  -22.3820  -53.0173 C.3       21 UNK        -0.1800 
    117 C         -1.4632  -21.7270  -55.4334 C.2       21 UNK         0.5000 
    118 O         -1.5655  -21.9804  -56.6344 O.2       21 UNK        -0.5000 
    119 N         -1.5969  -20.5011  -54.9170 N.am      22 UNK        -0.5000 
    120 CA        -1.7273  -19.2457  -55.6716 C.3       22 UNK         0.1400 
    121 C         -3.0942  -18.9846  -56.3744 C.2       22 UNK         0.5000 
    122 N         -4.0887  -19.8557  -56.2779 N.am      22 UNK        -0.7600 
    123 O         -3.2519  -17.9679  -57.0455 O.2       22 UNK        -0.5000 
    124 C124       -1.2612  -18.0413  -54.8109 C.3       23 UNK        -0.0398 
    125 S125       -2.2180  -17.8272  -53.2693 S.3       23 UNK        -0.2404 
    126 C126       -1.2631  -16.5225  -52.4323 C.3       23 UNK        -0.0205 
    127 H127        2.6250  -15.2290  -44.4353 H         1 UNK         0.0600 
    128 H128        2.3444  -16.1398  -45.9292 H         1 UNK         0.0600 
    129 H129        3.8270  -16.3749  -45.0037 H         1 UNK         0.0600 
    130 H130        3.5490  -12.8438  -47.2136 H         1 UNK         0.3000 
    131 H131        1.2722  -13.7794  -45.6521 H         1 UNK         0.0600 
    132 H132        1.4535  -15.0501  -48.0040 H         1 UNK         0.0800 
    133 H133        0.8409  -13.5692  -48.6591 H         1 UNK         0.0800 
    134 H134       -0.0728  -16.8632  -46.6066 H         1 UNK         0.0800 
    135 H135       -1.7263  -16.8896  -47.1707 H         1 UNK         0.0800 
    136 H136       -1.8644  -15.9806  -49.8263 H         1 UNK         0.1150 
    137 H137        0.9236  -18.1524  -52.2536 H         1 UNK         0.1150 
    138 H138        1.3837  -18.0832  -47.9910 H         1 UNK         0.1150 
    139 H139        3.0320  -18.8495  -51.1990 H         1 UNK         0.0800 
    140 H140        3.2437  -18.8301  -49.4715 H         1 UNK         0.0800 
    141 H141        2.0753  -20.2781  -47.8581 H         1 UNK         0.0800 
    142 H142        3.0041  -21.7127  -48.1663 H         1 UNK         0.0800 
    143 H143        0.7548  -22.8437  -48.8482 H         1 UNK         0.0600 
    144 H144        1.7056  -22.3927  -46.1457 H         1 UNK         0.3000 
    145 H145       -0.1686  -25.0411  -44.7079 H         1 UNK         0.0600 
    146 H146        2.0876  -25.8720  -44.1023 H         1 UNK         0.0600 
    147 H147        1.7457  -26.2263  -45.7882 H         1 UNK         0.0600 
    148 H148        2.8216  -24.8965  -45.3756 H         1 UNK         0.0600 
    149 H149        1.8945  -23.3027  -43.7152 H         1 UNK         0.3000 
    150 H150       -0.2429  -20.6061  -42.7801 H         1 UNK         0.0600 
    151 H151       -0.5587  -22.3091  -40.9683 H         1 UNK         0.0600 
    152 H152        0.6278  -21.0963  -40.5228 H         1 UNK         0.0600 
    153 H153        1.1563  -22.6975  -41.0344 H         1 UNK         0.0600 
    154 H154        2.4115  -20.7626  -42.1697 H         1 UNK         0.3000 
    155 H155        4.3060  -20.4352  -43.8250 H         1 UNK         0.0600 
    156 H156        3.2441  -18.5199  -45.9797 H         1 UNK         0.0600 
    157 H157        4.1060  -20.0282  -46.2474 H         1 UNK         0.0600 
    158 H158        4.9410  -18.6655  -45.5197 H         1 UNK         0.0600 
    159 H159        2.6065  -18.1426  -43.1295 H         1 UNK         0.3000 
    160 H160        4.6484  -17.4661  -40.3835 H         1 UNK         0.0600 
    161 H161        4.5490  -15.0437  -40.9439 H         1 UNK         0.0600 
    162 H162        4.2895  -15.4276  -42.6429 H         1 UNK         0.0600 
    163 H163        5.8110  -15.8449  -41.8679 H         1 UNK         0.0600 
    164 H164        2.2884  -16.1732  -41.3670 H         1 UNK         0.3000 
    165 H165       -0.0376  -18.6938  -40.7504 H         1 UNK         0.0600 
    166 H166       -1.0875  -17.3679  -38.9355 H         1 UNK         0.0600 
    167 H167        0.3168  -18.2210  -38.3177 H         1 UNK         0.0600 
    168 H168        0.4230  -16.4982  -38.6596 H         1 UNK         0.0600 
    169 H169       -0.4970  -15.9175  -40.8885 H         1 UNK         0.3000 
    170 H170        0.1587  -15.2713  -44.2664 H         1 UNK         0.0600 
    171 H171       -2.0107  -16.4608  -44.4910 H         1 UNK         0.0600 
    172 H172       -2.5833  -15.7495  -42.9864 H         1 UNK         0.0600 
    173 H173       -2.2642  -14.7291  -44.3893 H         1 UNK         0.0600 
    174 H174       -1.2181  -13.6555  -42.4593 H         1 UNK         0.3000 
    175 H175       -0.1757  -12.5487  -40.4581 H         1 UNK         0.0600 
    176 H176        2.6833  -11.7510  -41.2241 H         1 UNK         0.0600 
    177 H177        1.7293  -11.0587  -39.9133 H         1 UNK         0.0600 
    178 H178        2.2339  -12.7395  -39.8383 H         1 UNK         0.0600 
    179 H179        0.8666  -10.6265  -42.3824 H         1 UNK         0.3000 
    180 H180       -2.1895  -10.1269  -44.1092 H         1 UNK         0.0600 
    181 H181       -0.6386   -8.3117  -42.1895 H         1 UNK         0.0600 
    182 H182       -2.3625   -8.6403  -42.1566 H         1 UNK         0.0600 
    183 H183       -1.6685   -7.7647  -43.5122 H         1 UNK         0.0600 
    184 H184       -0.4768  -10.1628  -45.4824 H         1 UNK         0.3000 
    185 H185        1.4468   -9.1867  -46.5128 H         1 UNK         0.0600 
    186 H186        3.2326   -7.9241  -45.3078 H         1 UNK         0.0600 
    187 H187        3.9177   -9.4316  -44.7113 H         1 UNK         0.0600 
    188 H188        3.9181   -9.0801  -46.4385 H         1 UNK         0.0600 
    189 H189        2.9877  -11.4976  -45.5609 H         1 UNK         0.3000 
    190 H190       -0.0761  -20.7291  -46.0857 H         1 UNK         0.3000 
    191 H191       -2.1594  -19.2722  -47.3316 H         1 UNK         0.0600 
    192 H192       -1.9044  -20.0447  -44.3795 H         1 UNK         0.0600 
    193 H193       -2.8457  -18.7163  -45.0368 H         1 UNK         0.0600 
    194 H194       -1.0887  -18.6818  -45.1392 H         1 UNK         0.0600 
    195 H195       -2.2548  -22.4187  -45.5904 H         1 UNK         0.3000 
    196 H196       -5.0507  -22.8826  -45.8615 H         1 UNK         0.0600 
    197 H197       -2.7307  -24.8723  -45.6187 H         1 UNK         0.0600 
    198 H198       -4.4315  -25.2529  -45.3768 H         1 UNK         0.0600 
    199 H199       -3.6178  -24.1448  -44.2819 H         1 UNK         0.0600 
    200 H200       -2.2903  -23.7160  -47.9978 H         1 UNK         0.3000 
    201 H201       -3.8348  -25.0450  -49.9994 H         1 UNK         0.0600 
    202 H202       -1.3921  -25.3615  -49.7361 H         1 UNK         0.0600 
    203 H203       -1.1016  -23.6821  -50.1800 H         1 UNK         0.0600 
    204 H204       -1.7688  -24.8055  -51.3560 H         1 UNK         0.0600 
    205 H205       -2.8541  -21.6226  -49.5941 H         1 UNK         0.3000 
    206 H206       -3.9606  -20.6001  -51.9892 H         1 UNK         0.0600 
    207 H207       -2.3463  -19.3566  -50.5627 H         1 UNK         0.0600 
    208 H208       -3.8082  -18.4110  -50.8067 H         1 UNK         0.0600 
    209 H209       -3.5430  -19.2260  -49.2786 H         1 UNK         0.0600 
    210 H210       -5.4455  -21.1363  -48.7646 H         1 UNK         0.3000 
    211 H211       -8.0040  -20.0344  -49.3800 H         1 UNK         0.0600 
    212 H212       -7.2502  -22.1939  -47.3408 H         1 UNK         0.0600 
    213 H213       -8.7431  -21.2672  -47.3594 H         1 UNK         0.0600 
    214 H214       -7.2136  -20.4553  -47.0594 H         1 UNK         0.0600 
    215 H215       -6.6007  -23.2425  -49.9531 H         1 UNK         0.3000 
    216 H216       -9.0359  -24.4021  -51.0767 H         1 UNK         0.0600 
    217 H217       -7.5287  -26.2977  -51.6117 H         1 UNK         0.0600 
    218 H218       -7.3125  -25.8014  -49.9401 H         1 UNK         0.0600 
    219 H219       -6.1222  -25.3482  -51.1560 H         1 UNK         0.0600 
    220 H220       -6.8157  -22.1406  -52.1905 H         1 UNK         0.3000 
    221 H221       -6.3717  -21.0609  -54.0244 H         1 UNK         0.0600 
    222 H222       -8.7858  -22.4639  -55.2868 H         1 UNK         0.0600 
    223 H223       -8.7816  -20.9195  -54.4431 H         1 UNK         0.0600 
    224 H224       -7.9257  -21.0907  -55.9667 H         1 UNK         0.0600 
    225 H225       -7.3577  -24.1453  -55.5233 H         1 UNK         0.3000 
    226 H226       -5.4179  -24.0182  -57.5688 H         1 UNK         0.0600 
    227 H227       -7.5805  -25.2098  -57.7798 H         1 UNK         0.0600 
    228 H228       -6.2581  -26.3159  -58.1130 H         1 UNK         0.0600 
    229 H229       -7.0857  -26.3854  -56.5611 H         1 UNK         0.0600 
    230 H230       -5.0369  -25.1955  -54.3451 H         1 UNK         0.3000 
    231 H231       -2.8221  -27.0127  -54.8704 H         1 UNK         0.0600 
    232 H232       -4.3045  -27.4012  -52.9523 H         1 UNK         0.0600 
    233 H233       -3.9408  -25.8116  -52.2922 H         1 UNK         0.0600 
    234 H234       -2.6885  -27.0457  -52.3627 H         1 UNK         0.0600 
    235 H235       -3.0821  -23.5476  -54.6772 H         1 UNK         0.3000 
    236 H236       -0.1865  -23.2955  -54.8598 H         1 UNK         0.0600 
    237 H237       -0.0299  -21.5935  -53.0096 H         1 UNK         0.0600 
    238 H238       -1.6698  -22.0045  -52.5078 H         1 UNK         0.0600 
    239 H239       -0.3747  -23.1981  -52.4243 H         1 UNK         0.0600 
    240 H240       -1.5390  -20.3921  -53.9152 H         1 UNK         0.3000 
    241 H241       -1.0176  -19.3181  -56.4979 H         1 UNK         0.0600 
    242 H242       -4.9516  -19.6574  -56.7564 H         1 UNK         0.3800 
    243 H243       -3.9850  -20.7346  -55.7817 H         1 UNK         0.3800 
    244 H244       -0.2117  -18.1753  -54.5454 H         1 UNK         0.0800 
    245 H245       -1.3033  -17.1140  -55.3850 H         1 UNK         0.0800 
    246 H246       -0.5281  -16.0914  -53.1133 H         1 UNK         0.0800 
    247 H247       -1.9459  -15.7098  -52.1806 H         1 UNK         0.0800 
@<TRIPOS>BOND
     1    1    2 1    
     2    1  127 1    
     3    1  128 1    
     4    1  129 1    
     5    2    3 2    
     6    2    4 am   BACKBONE|DICT|INTERRES
     7    4    5 1    
     8    4  130 1    
     9    5    6 1    
    10    5   65 1    
    11    5  131 1    
    12    6    7 1    
    13    6  132 1    
    14    6  133 1    
    15    7    8 1    
    16    8    9 1    
    17    8  134 1    
    18    8  135 1    
    19    9   10 ar   
    20    9   14 ar   
    21   10   11 ar   
    22   10  136 1    
    23   11   12 ar   
    24   11  126 1    
    25   12   13 ar   
    26   12  137 1    
    27   13   14 ar   
    28   13   15 1    
    29   14  138 1    
    30   15   16 1    
    31   15  139 1    
    32   15  140 1    
    33   16   17 1    
    34   17   18 1    
    35   17  141 1    
    36   17  142 1    
    37   18   19 1    
    38   18   67 1    
    39   18  143 1    
    40   19   20 am   BACKBONE|DICT|INTERRES
    41   19  144 1    
    42   20   21 2    
    43   20   22 1    
    44   22   23 1    
    45   22   24 1    
    46   22  145 1    
    47   23  146 1    
    48   23  147 1    
    49   23  148 1    
    50   24   25 am   BACKBONE|DICT|INTERRES
    51   24  149 1    
    52   25   26 2    
    53   25   27 1    
    54   27   28 1    
    55   27   29 1    
    56   27  150 1    
    57   28  151 1    
    58   28  152 1    
    59   28  153 1    
    60   29   30 am   BACKBONE|DICT|INTERRES
    61   29  154 1    
    62   30   31 2    
    63   30   32 1    
    64   32   33 1    
    65   32   34 1    
    66   32  155 1    
    67   33  156 1    
    68   33  157 1    
    69   33  158 1    
    70   34   35 am   BACKBONE|DICT|INTERRES
    71   34  159 1    
    72   35   36 2    
    73   35   37 1    
    74   37   38 1    
    75   37   39 1    
    76   37  160 1    
    77   38  161 1    
    78   38  162 1    
    79   38  163 1    
    80   39   40 am   BACKBONE|DICT|INTERRES
    81   39  164 1    
    82   40   41 2    
    83   40   42 1    
    84   42   43 1    
    85   42   44 1    
    86   42  165 1    
    87   43  166 1    
    88   43  167 1    
    89   43  168 1    
    90   44   45 am   BACKBONE|DICT|INTERRES
    91   44  169 1    
    92   45   46 2    
    93   45   47 1    
    94   47   48 1    
    95   47   49 1    
    96   47  170 1    
    97   48  171 1    
    98   48  172 1    
    99   48  173 1    
   100   49   50 am   BACKBONE|DICT|INTERRES
   101   49  174 1    
   102   50   51 2    
   103   50   52 1    
   104   52   53 1    
   105   52   54 1    
   106   52  175 1    
   107   53  176 1    
   108   53  177 1    
   109   53  178 1    
   110   54   55 am   BACKBONE|DICT|INTERRES
   111   54  179 1    
   112   55   56 2    
   113   55   57 1    
   114   57   58 1    
   115   57   59 1    
   116   57  180 1    
   117   58  181 1    
   118   58  182 1    
   119   58  183 1    
   120   59   60 am   BACKBONE|DICT|INTERRES
   121   59  184 1    
   122   60   61 2    
   123   60   62 1    
   124   62   63 1    
   125   62   64 1    
   126   62  185 1    
   127   63  186 1    
   128   63  187 1    
   129   63  188 1    
   130   64   65 am   BACKBONE|DICT|INTERRES
   131   64  189 1    
   132   65   66 2    
   133   67   68 2    
   134   67   69 am   BACKBONE|DICT|INTERRES
   135   69   70 1    
   136   69  190 1    
   137   70   71 1    
   138   70   72 1    
   139   70  191 1    
   140   71  192 1    
   141   71  193 1    
   142   71  194 1    
   143   72   73 2    
   144   72   74 am   BACKBONE|DICT|INTERRES
   145   74   75 1    
   146   74  195 1    
   147   75   76 1    
   148   75   77 1    
   149   75  196 1    
   150   76  197 1    
   151   76  198 1    
   152   76  199 1    
   153   77   78 2    
   154   77   79 am   BACKBONE|DICT|INTERRES
   155   79   80 1    
   156   79  200 1    
   157   80   81 1    
   158   80   82 1    
   159   80  201 1    
   160   81  202 1    
   161   81  203 1    
   162   81  204 1    
   163   82   83 2    
   164   82   84 am   BACKBONE|DICT|INTERRES
   165   84   85 1    
   166   84  205 1    
   167   85   86 1    
   168   85   87 1    
   169   85  206 1    
   170   86  207 1    
   171   86  208 1    
   172   86  209 1    
   173   87   88 2    
   174   87   89 am   BACKBONE|DICT|INTERRES
   175   89   90 1    
   176   89  210 1    
   177   90   91 1    
   178   90   92 1    
   179   90  211 1    
   180   91  212 1    
   181   91  213 1    
   182   91  214 1    
   183   92   93 2    
   184   92   94 am   BACKBONE|DICT|INTERRES
   185   94   95 1    
   186   94  215 1    
   187   95   96 1    
   188   95   97 1    
   189   95  216 1    
   190   96  217 1    
   191   96  218 1    
   192   96  219 1    
   193   97   98 2    
   194   97   99 am   BACKBONE|DICT|INTERRES
   195   99  100 1    
   196   99  220 1    
   197  100  101 1    
   198  100  102 1    
   199  100  221 1    
   200  101  222 1    
   201  101  223 1    
   202  101  224 1    
   203  102  103 2    
   204  102  104 am   BACKBONE|DICT|INTERRES
   205  104  105 1    
   206  104  225 1    
   207  105  106 1    
   208  105  107 1    
   209  105  226 1    
   210  106  227 1    
   211  106  228 1    
   212  106  229 1    
   213  107  108 2    
   214  107  109 am   BACKBONE|DICT|INTERRES
   215  109  110 1    
   216  109  230 1    
   217  110  111 1    
   218  110  112 1    
   219  110  231 1    
   220  111  232 1    
   221  111  233 1    
   222  111  234 1    
   223  112  113 2    
   224  112  114 am   BACKBONE|DICT|INTERRES
   225  114  115 1    
   226  114  235 1    
   227  115  116 1    
   228  115  117 1    
   229  115  236 1    
   230  116  237 1    
   231  116  238 1    
   232  116  239 1    
   233  117  118 2    
   234  117  119 am   BACKBONE|DICT|INTERRES
   235  119  120 1    
   236  119  240 1    
   237  120  121 1    
   238  120  124 1    
   239  120  241 1    
   240  121  122 am   BACKBONE|DICT|INTERRES
   241  121  123 2    
   242  122  242 1    
   243  122  243 1    
   244  124  125 1    
   245  124  244 1    
   246  124  245 1    
   247  125  126 1    
   248  126  246 1    
   249  126  247 1    
@<TRIPOS>SUBSTRUCTURE
     1 UNK         1 GROUP             0       ****    0 ROOT    
