@<TRIPOS>MOLECULE
3R540
247   249    1
SMALL
USER_CHARGES


@<TRIPOS>ATOM
      1 CA         -3.8155  -11.1088  -48.2547 C.3       0 UNK        -0.1800 
      2 C          -2.5891  -11.8131  -47.6938 C.2       0 UNK         0.5000 
      3 O          -1.6942  -11.1583  -47.1594 O.2       0 UNK        -0.5000 
      4 N          -2.5488  -13.1492  -47.7898 N.am      1 UNK        -0.5000 
      5 CA         -1.4207  -13.9977  -47.3695 C.3       1 UNK         0.1400 
      6 C6         -1.5104  -15.4369  -47.9377 C.3       23 UNK        -0.0398 
      7 S7         -1.7027  -15.4446  -49.7540 S.3       23 UNK        -0.2404 
      8 C8          0.0250  -15.3021  -50.3120 C.3       23 UNK        -0.0205 
      9 C9          0.5882  -16.6544  -50.7132 C.ar      23 UNK        -0.0193 
     10 C10         0.4269  -17.1125  -52.0222 C.ar      23 UNK        -0.1150 
     11 C11         0.9270  -18.3582  -52.4062 C.ar      23 UNK        -0.0193 
     12 C12         1.5771  -19.1576  -51.4612 C.ar      23 UNK        -0.1150 
     13 C13         1.7427  -18.7165  -50.1429 C.ar      23 UNK        -0.0193 
     14 C14         1.2657  -17.4480  -49.7850 C.ar      23 UNK        -0.1150 
     15 C15         2.4442  -19.6333  -49.1385 C.3       23 UNK        -0.0205 
     16 S16         1.9289  -19.4401  -47.3928 S.3       23 UNK        -0.2404 
     17 C17         0.1265  -19.6900  -47.4971 C.3       23 UNK        -0.0398 
     18 CA         -0.2918  -21.1724  -47.3847 C.3       11 UNK         0.1400 
     19 N          -0.0291  -21.7600  -46.0701 N.am      11 UNK        -0.5000 
     20 C          -0.2189  -23.0556  -45.7839 C.2       10 UNK         0.5000 
     21 O          -0.5158  -23.9012  -46.6260 O.2       10 UNK        -0.5000 
     22 CA         -0.1363  -23.4681  -44.3057 C.3       10 UNK         0.1400 
     23 CB          1.3125  -23.7608  -43.8884 C.3       10 UNK        -0.1800 
     24 N          -0.7222  -22.4559  -43.4265 N.am      10 UNK        -0.5000 
     25 C          -2.0314  -22.1682  -43.3745 C.2       9 UNK         0.5000 
     26 O          -2.8895  -22.7604  -44.0295 O.2       9 UNK        -0.5000 
     27 CA         -2.4443  -20.9923  -42.4708 C.3       9 UNK         0.1400 
     28 CB         -2.5944  -21.4548  -41.0142 C.3       9 UNK        -0.1800 
     29 N          -1.4958  -19.8792  -42.5341 N.am      9 UNK        -0.5000 
     30 C          -1.2998  -19.1147  -43.6179 C.2       8 UNK         0.5000 
     31 O          -1.9347  -19.2381  -44.6644 O.2       8 UNK        -0.5000 
     32 CA         -0.1721  -18.0698  -43.5356 C.3       8 UNK         0.1400 
     33 CB         -0.7018  -16.7528  -42.9552 C.3       8 UNK        -0.1800 
     34 N           0.9832  -18.5171  -42.7533 N.am      8 UNK        -0.5000 
     35 C           1.7546  -19.5695  -43.0621 C.2       7 UNK         0.5000 
     36 O           1.5164  -20.3159  -44.0116 O.2       7 UNK        -0.5000 
     37 CA          2.9545  -19.8738  -42.1375 C.3       7 UNK         0.1400 
     38 CB          4.1723  -20.4077  -42.9203 C.3       7 UNK        -0.1800 
     39 N           3.3422  -18.7678  -41.2483 N.am      7 UNK        -0.5000 
     40 C           3.8353  -17.5709  -41.6012 C.2       6 UNK         0.5000 
     41 O           3.9903  -17.2133  -42.7711 O.2       6 UNK        -0.5000 
     42 CA          4.1485  -16.6056  -40.4363 C.3       6 UNK         0.1400 
     43 CB          5.0359  -17.2504  -39.3485 C.3       6 UNK        -0.1800 
     44 N           4.7073  -15.3297  -40.8940 N.am      6 UNK        -0.5000 
     45 C           5.9056  -15.0952  -41.4459 C.2       5 UNK         0.5000 
     46 O           6.7968  -15.9389  -41.5632 O.2       5 UNK        -0.5000 
     47 CA          6.1137  -13.6650  -41.9880 C.3       5 UNK         0.1400 
     48 CB          7.5857  -13.3656  -42.3257 C.3       5 UNK        -0.1800 
     49 N           5.3003  -13.4269  -43.1822 N.am      5 UNK        -0.5000 
     50 C           3.9774  -13.2214  -43.1951 C.2       4 UNK         0.5000 
     51 O           3.2833  -13.1772  -42.1748 O.2       4 UNK        -0.5000 
     52 CA          3.3287  -13.0827  -44.5866 C.3       4 UNK         0.1400 
     53 CB          3.0565  -14.4732  -45.1827 C.3       4 UNK        -0.1800 
     54 N           2.0779  -12.3209  -44.5542 N.am      4 UNK        -0.5000 
     55 C           1.9840  -11.0191  -44.2387 C.2       3 UNK         0.5000 
     56 O           2.9652  -10.3097  -44.0082 O.2       3 UNK        -0.5000 
     57 CA          0.5792  -10.3783  -44.1887 C.3       3 UNK         0.1400 
     58 CB          0.4233   -9.3341  -45.3059 C.3       3 UNK        -0.1800 
     59 N          -0.5165  -11.3432  -44.2932 N.am      3 UNK        -0.5000 
     60 C          -0.9295  -12.1476  -43.3019 C.2       2 UNK         0.5000 
     61 O          -0.4706  -12.1078  -42.1604 O.2       2 UNK        -0.5000 
     62 CA         -2.0263  -13.1830  -43.6358 C.3       2 UNK         0.1400 
     63 CB         -3.3906  -12.7092  -43.1126 C.3       2 UNK        -0.1800 
     64 N          -2.1484  -13.4796  -45.0658 N.am      2 UNK        -0.5000 
     65 C          -1.1897  -14.0075  -45.8412 C.2       1 UNK         0.5000 
     66 O          -0.1248  -14.4311  -45.3964 O.2       1 UNK        -0.5000 
     67 C          -1.7732  -21.3321  -47.7765 C.2       11 UNK         0.5000 
     68 O          -2.0650  -21.8813  -48.8381 O.2       11 UNK        -0.5000 
     69 N          -2.6770  -20.8555  -46.9101 N.am      12 UNK        -0.5000 
     70 CA         -4.1200  -20.8478  -47.1322 C.3       12 UNK         0.1400 
     71 CB         -4.8200  -20.1441  -45.9596 C.3       12 UNK        -0.1800 
     72 C          -4.7134  -22.2459  -47.3681 C.2       12 UNK         0.5000 
     73 O          -5.3917  -22.4414  -48.3771 O.2       12 UNK        -0.5000 
     74 N          -4.4458  -23.1760  -46.4426 N.am      13 UNK        -0.5000 
     75 CA         -5.0300  -24.5131  -46.4402 C.3       13 UNK         0.1400 
     76 CB         -5.2112  -24.9924  -44.9896 C.3       13 UNK        -0.1800 
     77 C          -4.2050  -25.5168  -47.2599 C.2       13 UNK         0.5000 
     78 O          -4.7161  -26.0573  -48.2405 O.2       13 UNK        -0.5000 
     79 N          -2.9644  -25.7831  -46.8266 N.am      14 UNK        -0.5000 
     80 CA         -2.1420  -26.8839  -47.3375 C.3       14 UNK         0.1400 
     81 CB         -1.0188  -27.2177  -46.3421 C.3       14 UNK        -0.1800 
     82 C          -1.5894  -26.6278  -48.7492 C.2       14 UNK         0.5000 
     83 O          -1.6602  -27.5226  -49.5929 O.2       14 UNK        -0.5000 
     84 N          -1.0804  -25.4126  -48.9960 N.am      15 UNK        -0.5000 
     85 CA         -0.6346  -24.9778  -50.3251 C.3       15 UNK         0.1400 
     86 CB          0.4175  -23.8649  -50.1966 C.3       15 UNK        -0.1800 
     87 C          -1.8056  -24.5273  -51.2215 C.2       15 UNK         0.5000 
     88 O          -1.6088  -24.3802  -52.4258 O.2       15 UNK        -0.5000 
     89 N          -2.9923  -24.3346  -50.6274 N.am      16 UNK        -0.5000 
     90 CA         -4.2597  -23.9652  -51.2602 C.3       16 UNK         0.1400 
     91 CB         -4.7258  -25.0587  -52.2422 C.3       16 UNK        -0.1800 
     92 C          -4.2555  -22.5498  -51.8741 C.2       16 UNK         0.5000 
     93 O          -4.9015  -22.3155  -52.8995 O.2       16 UNK        -0.5000 
     94 N          -3.5700  -21.6027  -51.2156 N.am      17 UNK        -0.5000 
     95 CA         -3.5539  -20.1861  -51.5921 C.3       17 UNK         0.1400 
     96 CB         -2.4685  -19.4343  -50.8059 C.3       17 UNK        -0.1800 
     97 C          -4.9209  -19.4999  -51.4192 C.2       17 UNK         0.5000 
     98 O          -5.2014  -18.5418  -52.1378 O.2       17 UNK        -0.5000 
     99 N          -5.7755  -20.0297  -50.5291 N.am      18 UNK        -0.5000 
    100 CA        -7.1603  -19.5807  -50.3492 C.3       18 UNK         0.1400 
    101 CB        -7.7411  -20.2169  -49.0783 C.3       18 UNK        -0.1800 
    102 C         -8.0569  -19.8894  -51.5662 C.2       18 UNK         0.5000 
    103 O         -9.0234  -19.1656  -51.8064 O.2       18 UNK        -0.5000 
    104 N         -7.7036  -20.9374  -52.3231 N.am      19 UNK        -0.5000 
    105 CA        -8.3341  -21.3157  -53.5888 C.3       19 UNK         0.1400 
    106 CB        -8.3625  -22.8513  -53.6735 C.3       19 UNK        -0.1800 
    107 C         -7.5940  -20.7236  -54.8066 C.2       19 UNK         0.5000 
    108 O         -8.0341  -20.9401  -55.9362 O.2       19 UNK        -0.5000 
    109 N         -6.4749  -20.0212  -54.5626 N.am      20 UNK        -0.5000 
    110 CA        -5.5145  -19.4892  -55.5362 C.3       20 UNK         0.1400 
    111 CB        -6.1529  -18.3685  -56.3824 C.3       20 UNK        -0.1800 
    112 C         -4.8480  -20.5903  -56.3916 C.2       20 UNK         0.5000 
    113 O         -4.4856  -20.3424  -57.5428 O.2       20 UNK        -0.5000 
    114 N         -4.6992  -21.7891  -55.8120 N.am      21 UNK        -0.5000 
    115 CA        -4.1516  -22.9802  -56.4644 C.3       21 UNK         0.1400 
    116 CB        -5.0374  -24.1802  -56.0916 C.3       21 UNK        -0.1800 
    117 C         -2.6744  -23.2304  -56.0978 C.2       21 UNK         0.5000 
    118 O         -2.0980  -24.2201  -56.5526 O.2       21 UNK        -0.5000 
    119 N         -2.0915  -22.3413  -55.2858 N.am      22 UNK        -0.5000 
    120 CA        -0.6859  -22.3514  -54.8602 C.3       22 UNK         0.1400 
    121 C          0.3363  -22.1354  -56.0155 C.2       22 UNK         0.5000 
    122 N          1.5828  -22.5493  -55.8274 N.am      22 UNK        -0.7600 
    123 O          0.0267  -21.5767  -57.0661 O.2       22 UNK        -0.5000 
    124 C124       -0.4637  -21.3646  -53.6836 C.3       23 UNK        -0.0398 
    125 S125       -0.8434  -19.6260  -54.1102 S.3       23 UNK        -0.2404 
    126 C126        0.7656  -18.8214  -53.8460 C.3       23 UNK        -0.0205 
    127 H127       -4.3255  -10.5579  -47.4646 H         1 UNK         0.0600 
    128 H128       -4.5235  -11.8137  -48.6911 H         1 UNK         0.0600 
    129 H129       -3.5190  -10.4011  -49.0287 H         1 UNK         0.0600 
    130 H130       -3.3086  -13.6349  -48.2457 H         1 UNK         0.3000 
    131 H131       -0.5212  -13.5440  -47.7910 H         1 UNK         0.0600 
    132 H132       -2.3617  -15.9649  -47.5048 H         1 UNK         0.0800 
    133 H133       -0.6255  -16.0187  -47.6725 H         1 UNK         0.0800 
    134 H134        0.0600  -14.6230  -51.1652 H         1 UNK         0.0800 
    135 H135        0.6444  -14.8442  -49.5396 H         1 UNK         0.0800 
    136 H136       -0.0931  -16.4988  -52.7445 H         1 UNK         0.1150 
    137 H137        1.9566  -20.1264  -51.7537 H         1 UNK         0.1150 
    138 H138        1.3979  -17.0828  -48.7769 H         1 UNK         0.1150 
    139 H139        2.2887  -20.6760  -49.4198 H         1 UNK         0.0800 
    140 H140        3.5181  -19.4548  -49.2026 H         1 UNK         0.0800 
    141 H141       -0.2411  -19.2618  -48.4299 H         1 UNK         0.0800 
    142 H142       -0.3350  -19.0984  -46.7074 H         1 UNK         0.0800 
    143 H143        0.2989  -21.7353  -48.1070 H         1 UNK         0.0600 
    144 H144        0.2955  -21.1359  -45.3378 H         1 UNK         0.3000 
    145 H145       -0.7108  -24.3894  -44.1870 H         1 UNK         0.0600 
    146 H146        1.3675  -24.0777  -42.8470 H         1 UNK         0.0600 
    147 H147        1.7336  -24.5635  -44.4950 H         1 UNK         0.0600 
    148 H148        1.9568  -22.8907  -44.0099 H         1 UNK         0.0600 
    149 H149       -0.0772  -21.8806  -42.9063 H         1 UNK         0.3000 
    150 H150       -3.4158  -20.6319  -42.8151 H         1 UNK         0.0600 
    151 H151       -3.3103  -22.2744  -40.9376 H         1 UNK         0.0600 
    152 H152       -2.9588  -20.6465  -40.3798 H         1 UNK         0.0600 
    153 H153       -1.6479  -21.8058  -40.6011 H         1 UNK         0.0600 
    154 H154       -0.9314  -19.7086  -41.7150 H         1 UNK         0.3000 
    155 H155        0.1728  -17.8768  -44.5537 H         1 UNK         0.0600 
    156 H156        0.0568  -15.9705  -42.9971 H         1 UNK         0.0600 
    157 H157       -1.0178  -16.8635  -41.9174 H         1 UNK         0.0600 
    158 H158       -1.5622  -16.4028  -43.5268 H         1 UNK         0.0600 
    159 H159        1.2394  -17.9555  -41.9558 H         1 UNK         0.3000 
    160 H160        2.6179  -20.6771  -41.4807 H         1 UNK         0.0600 
    161 H161        4.5220  -19.6910  -43.6639 H         1 UNK         0.0600 
    162 H162        3.9263  -21.3288  -43.4497 H         1 UNK         0.0600 
    163 H163        5.0039  -20.6321  -42.2524 H         1 UNK         0.0600 
    164 H164        3.2280  -18.9568  -40.2619 H         1 UNK         0.3000 
    165 H165        3.1906  -16.3557  -39.9780 H         1 UNK         0.0600 
    166 H166        5.9514  -17.6713  -39.7653 H         1 UNK         0.0600 
    167 H167        5.3184  -16.5228  -38.5875 H         1 UNK         0.0600 
    168 H168        4.5125  -18.0581  -38.8366 H         1 UNK         0.0600 
    169 H169        4.0363  -14.5705  -40.9646 H         1 UNK         0.3000 
    170 H170        5.8057  -12.9669  -41.2065 H         1 UNK         0.0600 
    171 H171        8.2249  -13.5223  -41.4558 H         1 UNK         0.0600 
    172 H172        7.9563  -14.0067  -43.1265 H         1 UNK         0.0600 
    173 H173        7.7148  -12.3295  -42.6392 H         1 UNK         0.0600 
    174 H174        5.7882  -13.4898  -44.0641 H         1 UNK         0.3000 
    175 H175        4.0242  -12.5535  -45.2414 H         1 UNK         0.0600 
    176 H176        2.3824  -15.0547  -44.5517 H         1 UNK         0.0600 
    177 H177        2.6100  -14.4006  -46.1747 H         1 UNK         0.0600 
    178 H178        3.9789  -15.0465  -45.2832 H         1 UNK         0.0600 
    179 H179        1.2291  -12.8503  -44.7097 H         1 UNK         0.3000 
    180 H180        0.4937   -9.8617  -43.2305 H         1 UNK         0.0600 
    181 H181        0.5377   -9.7833  -46.2931 H         1 UNK         0.0600 
    182 H182        1.1730   -8.5471  -45.2152 H         1 UNK         0.0600 
    183 H183       -0.5553   -8.8553  -45.2668 H         1 UNK         0.0600 
    184 H184       -0.9552  -11.4210  -45.2047 H         1 UNK         0.3000 
    185 H185       -1.7647  -14.1056  -43.1178 H         1 UNK         0.0600 
    186 H186       -3.3498  -12.5048  -42.0418 H         1 UNK         0.0600 
    187 H187       -3.7157  -11.7942  -43.6095 H         1 UNK         0.0600 
    188 H188       -4.1581  -13.4678  -43.2674 H         1 UNK         0.0600 
    189 H189       -2.9856  -13.1475  -45.5219 H         1 UNK         0.3000 
    190 H190       -2.3542  -20.4028  -46.0579 H         1 UNK         0.3000 
    191 H191       -4.3054  -20.2571  -48.0306 H         1 UNK         0.0600 
    192 H192       -4.6104  -20.6379  -45.0106 H         1 UNK         0.0600 
    193 H193       -5.9022  -20.1363  -46.0927 H         1 UNK         0.0600 
    194 H194       -4.4959  -19.1068  -45.8741 H         1 UNK         0.0600 
    195 H195       -3.8542  -22.9356  -45.6505 H         1 UNK         0.3000 
    196 H196       -6.0259  -24.4658  -46.8871 H         1 UNK         0.0600 
    197 H197       -5.6664  -25.9832  -44.9604 H         1 UNK         0.0600 
    198 H198       -5.8637  -24.3190  -44.4337 H         1 UNK         0.0600 
    199 H199       -4.2634  -25.0516  -44.4539 H         1 UNK         0.0600 
    200 H200       -2.5821  -25.2456  -46.0621 H         1 UNK         0.3000 
    201 H201       -2.7829  -27.7663  -47.4004 H         1 UNK         0.0600 
    202 H202       -1.4205  -27.4407  -45.3537 H         1 UNK         0.0600 
    203 H203       -0.3025  -26.4044  -46.2373 H         1 UNK         0.0600 
    204 H204       -0.4619  -28.0960  -46.6706 H         1 UNK         0.0600 
    205 H205       -1.0079  -24.7442  -48.2311 H         1 UNK         0.3000 
    206 H206       -0.1518  -25.8233  -50.8197 H         1 UNK         0.0600 
    207 H207        1.1446  -24.0828  -49.4141 H         1 UNK         0.0600 
    208 H208        0.9669  -23.7506  -51.1316 H         1 UNK         0.0600 
    209 H209       -0.0379  -22.9012  -49.9830 H         1 UNK         0.0600 
    210 H210       -3.0277  -24.4616  -49.6261 H         1 UNK         0.3000 
    211 H211       -4.9949  -23.9357  -50.4567 H         1 UNK         0.0600 
    212 H212       -4.0545  -25.1507  -53.0956 H         1 UNK         0.0600 
    213 H213       -5.7231  -24.8438  -52.6266 H         1 UNK         0.0600 
    214 H214       -4.7737  -26.0301  -51.7498 H         1 UNK         0.0600 
    215 H215       -3.0525  -21.8559  -50.3750 H         1 UNK         0.3000 
    216 H216       -3.3028  -20.1342  -52.6521 H         1 UNK         0.0600 
    217 H217       -1.5009  -19.9303  -50.8850 H         1 UNK         0.0600 
    218 H218       -2.7201  -19.3458  -49.7496 H         1 UNK         0.0600 
    219 H219       -2.3421  -18.4222  -51.1927 H         1 UNK         0.0600 
    220 H220       -5.4860  -20.8365  -49.9901 H         1 UNK         0.3000 
    221 H221       -7.1500  -18.4972  -50.2134 H         1 UNK         0.0600 
    222 H222       -7.7745  -21.3046  -49.1514 H         1 UNK         0.0600 
    223 H223       -7.1499  -19.9559  -48.2013 H         1 UNK         0.0600 
    224 H224       -8.7591  -19.8693  -48.8978 H         1 UNK         0.0600 
    225 H225       -6.8802  -21.4658  -52.0679 H         1 UNK         0.3000 
    226 H226       -9.3633  -20.9523  -53.6186 H         1 UNK         0.0600 
    227 H227       -8.8806  -23.2850  -52.8181 H         1 UNK         0.0600 
    228 H228       -8.8845  -23.1849  -54.5711 H         1 UNK         0.0600 
    229 H229       -7.3569  -23.2716  -53.7061 H         1 UNK         0.0600 
    230 H230       -6.2252  -19.8683  -53.5949 H         1 UNK         0.3000 
    231 H231       -4.7110  -19.0394  -54.9513 H         1 UNK         0.0600 
    232 H232       -5.4043  -17.8687  -56.9982 H         1 UNK         0.0600 
    233 H233       -6.6088  -17.6081  -55.7483 H         1 UNK         0.0600 
    234 H234       -6.9222  -18.7532  -57.0523 H         1 UNK         0.0600 
    235 H235       -4.9826  -21.9066  -54.8429 H         1 UNK         0.3000 
    236 H236       -4.1907  -22.8648  -57.5494 H         1 UNK         0.0600 
    237 H237       -6.0608  -24.0325  -56.4374 H         1 UNK         0.0600 
    238 H238       -4.6714  -25.1020  -56.5450 H         1 UNK         0.0600 
    239 H239       -5.0718  -24.3310  -55.0143 H         1 UNK         0.0600 
    240 H240       -2.6340  -21.5448  -54.9907 H         1 UNK         0.3000 
    241 H241       -0.4923  -23.3565  -54.4844 H         1 UNK         0.0600 
    242 H242        1.8668  -23.0180  -54.9813 H         1 UNK         0.3800 
    243 H243        2.2586  -22.4087  -56.5625 H         1 UNK         0.3800 
    244 H244       -1.1016  -21.6498  -52.8464 H         1 UNK         0.0800 
    245 H245        0.5552  -21.4493  -53.3052 H         1 UNK         0.0800 
    246 H246        0.8352  -17.9609  -54.5130 H         1 UNK         0.0800 
    247 H247        1.5792  -19.4884  -54.1352 H         1 UNK         0.0800 
@<TRIPOS>BOND
     1    1    2 1    
     2    1  127 1    
     3    1  128 1    
     4    1  129 1    
     5    2    3 2    
     6    2    4 am   BACKBONE|DICT|INTERRES
     7    4    5 1    
     8    4  130 1    
     9    5    6 1    
    10    5   65 1    
    11    5  131 1    
    12    6    7 1    
    13    6  132 1    
    14    6  133 1    
    15    7    8 1    
    16    8    9 1    
    17    8  134 1    
    18    8  135 1    
    19    9   10 ar   
    20    9   14 ar   
    21   10   11 ar   
    22   10  136 1    
    23   11   12 ar   
    24   11  126 1    
    25   12   13 ar   
    26   12  137 1    
    27   13   14 ar   
    28   13   15 1    
    29   14  138 1    
    30   15   16 1    
    31   15  139 1    
    32   15  140 1    
    33   16   17 1    
    34   17   18 1    
    35   17  141 1    
    36   17  142 1    
    37   18   19 1    
    38   18   67 1    
    39   18  143 1    
    40   19   20 am   BACKBONE|DICT|INTERRES
    41   19  144 1    
    42   20   21 2    
    43   20   22 1    
    44   22   23 1    
    45   22   24 1    
    46   22  145 1    
    47   23  146 1    
    48   23  147 1    
    49   23  148 1    
    50   24   25 am   BACKBONE|DICT|INTERRES
    51   24  149 1    
    52   25   26 2    
    53   25   27 1    
    54   27   28 1    
    55   27   29 1    
    56   27  150 1    
    57   28  151 1    
    58   28  152 1    
    59   28  153 1    
    60   29   30 am   BACKBONE|DICT|INTERRES
    61   29  154 1    
    62   30   31 2    
    63   30   32 1    
    64   32   33 1    
    65   32   34 1    
    66   32  155 1    
    67   33  156 1    
    68   33  157 1    
    69   33  158 1    
    70   34   35 am   BACKBONE|DICT|INTERRES
    71   34  159 1    
    72   35   36 2    
    73   35   37 1    
    74   37   38 1    
    75   37   39 1    
    76   37  160 1    
    77   38  161 1    
    78   38  162 1    
    79   38  163 1    
    80   39   40 am   BACKBONE|DICT|INTERRES
    81   39  164 1    
    82   40   41 2    
    83   40   42 1    
    84   42   43 1    
    85   42   44 1    
    86   42  165 1    
    87   43  166 1    
    88   43  167 1    
    89   43  168 1    
    90   44   45 am   BACKBONE|DICT|INTERRES
    91   44  169 1    
    92   45   46 2    
    93   45   47 1    
    94   47   48 1    
    95   47   49 1    
    96   47  170 1    
    97   48  171 1    
    98   48  172 1    
    99   48  173 1    
   100   49   50 am   BACKBONE|DICT|INTERRES
   101   49  174 1    
   102   50   51 2    
   103   50   52 1    
   104   52   53 1    
   105   52   54 1    
   106   52  175 1    
   107   53  176 1    
   108   53  177 1    
   109   53  178 1    
   110   54   55 am   BACKBONE|DICT|INTERRES
   111   54  179 1    
   112   55   56 2    
   113   55   57 1    
   114   57   58 1    
   115   57   59 1    
   116   57  180 1    
   117   58  181 1    
   118   58  182 1    
   119   58  183 1    
   120   59   60 am   BACKBONE|DICT|INTERRES
   121   59  184 1    
   122   60   61 2    
   123   60   62 1    
   124   62   63 1    
   125   62   64 1    
   126   62  185 1    
   127   63  186 1    
   128   63  187 1    
   129   63  188 1    
   130   64   65 am   BACKBONE|DICT|INTERRES
   131   64  189 1    
   132   65   66 2    
   133   67   68 2    
   134   67   69 am   BACKBONE|DICT|INTERRES
   135   69   70 1    
   136   69  190 1    
   137   70   71 1    
   138   70   72 1    
   139   70  191 1    
   140   71  192 1    
   141   71  193 1    
   142   71  194 1    
   143   72   73 2    
   144   72   74 am   BACKBONE|DICT|INTERRES
   145   74   75 1    
   146   74  195 1    
   147   75   76 1    
   148   75   77 1    
   149   75  196 1    
   150   76  197 1    
   151   76  198 1    
   152   76  199 1    
   153   77   78 2    
   154   77   79 am   BACKBONE|DICT|INTERRES
   155   79   80 1    
   156   79  200 1    
   157   80   81 1    
   158   80   82 1    
   159   80  201 1    
   160   81  202 1    
   161   81  203 1    
   162   81  204 1    
   163   82   83 2    
   164   82   84 am   BACKBONE|DICT|INTERRES
   165   84   85 1    
   166   84  205 1    
   167   85   86 1    
   168   85   87 1    
   169   85  206 1    
   170   86  207 1    
   171   86  208 1    
   172   86  209 1    
   173   87   88 2    
   174   87   89 am   BACKBONE|DICT|INTERRES
   175   89   90 1    
   176   89  210 1    
   177   90   91 1    
   178   90   92 1    
   179   90  211 1    
   180   91  212 1    
   181   91  213 1    
   182   91  214 1    
   183   92   93 2    
   184   92   94 am   BACKBONE|DICT|INTERRES
   185   94   95 1    
   186   94  215 1    
   187   95   96 1    
   188   95   97 1    
   189   95  216 1    
   190   96  217 1    
   191   96  218 1    
   192   96  219 1    
   193   97   98 2    
   194   97   99 am   BACKBONE|DICT|INTERRES
   195   99  100 1    
   196   99  220 1    
   197  100  101 1    
   198  100  102 1    
   199  100  221 1    
   200  101  222 1    
   201  101  223 1    
   202  101  224 1    
   203  102  103 2    
   204  102  104 am   BACKBONE|DICT|INTERRES
   205  104  105 1    
   206  104  225 1    
   207  105  106 1    
   208  105  107 1    
   209  105  226 1    
   210  106  227 1    
   211  106  228 1    
   212  106  229 1    
   213  107  108 2    
   214  107  109 am   BACKBONE|DICT|INTERRES
   215  109  110 1    
   216  109  230 1    
   217  110  111 1    
   218  110  112 1    
   219  110  231 1    
   220  111  232 1    
   221  111  233 1    
   222  111  234 1    
   223  112  113 2    
   224  112  114 am   BACKBONE|DICT|INTERRES
   225  114  115 1    
   226  114  235 1    
   227  115  116 1    
   228  115  117 1    
   229  115  236 1    
   230  116  237 1    
   231  116  238 1    
   232  116  239 1    
   233  117  118 2    
   234  117  119 am   BACKBONE|DICT|INTERRES
   235  119  120 1    
   236  119  240 1    
   237  120  121 1    
   238  120  124 1    
   239  120  241 1    
   240  121  122 am   BACKBONE|DICT|INTERRES
   241  121  123 2    
   242  122  242 1    
   243  122  243 1    
   244  124  125 1    
   245  124  244 1    
   246  124  245 1    
   247  125  126 1    
   248  126  246 1    
   249  126  247 1    
@<TRIPOS>SUBSTRUCTURE
     1 UNK         1 GROUP             0       ****    0 ROOT    
