@<TRIPOS>MOLECULE
3R540
247   249    1
SMALL
USER_CHARGES


@<TRIPOS>ATOM
      1 CA         -2.2430  -16.4411  -43.4744 C.3       0 UNK        -0.1800 
      2 C          -2.8675  -15.9284  -44.7610 C.2       0 UNK         0.5000 
      3 O          -4.0771  -16.0590  -44.9520 O.2       0 UNK        -0.5000 
      4 N          -2.0524  -15.3304  -45.6373 N.am      1 UNK        -0.5000 
      5 CA         -2.4624  -14.6649  -46.8784 C.3       1 UNK         0.1400 
      6 C6         -1.2670  -14.4698  -47.8444 C.3       23 UNK        -0.0398 
      7 S7         -0.5810  -16.0503  -48.4380 S.3       23 UNK        -0.2404 
      8 C8          0.7411  -15.4243  -49.5168 C.3       23 UNK        -0.0205 
      9 C9          1.3621  -16.5395  -50.3421 C.ar      23 UNK        -0.0193 
     10 C10         0.7833  -16.9139  -51.5584 C.ar      23 UNK        -0.1150 
     11 C11         1.3503  -17.9305  -52.3324 C.ar      23 UNK        -0.0193 
     12 C12         2.5092  -18.5691  -51.8830 C.ar      23 UNK        -0.1150 
     13 C13         3.0997  -18.2017  -50.6700 C.ar      23 UNK        -0.0193 
     14 C14         2.5191  -17.1882  -49.9008 C.ar      23 UNK        -0.1150 
     15 C15         4.3765  -18.8877  -50.2065 C.3       23 UNK        -0.0205 
     16 S16         4.0989  -20.6241  -49.7379 S.3       23 UNK        -0.2404 
     17 C17         3.2124  -20.4367  -48.1564 C.3       23 UNK        -0.0398 
     18 CA          2.3591  -21.6816  -47.8102 C.3       11 UNK         0.1400 
     19 N           2.1868  -21.8318  -46.3634 N.am      11 UNK        -0.5000 
     20 C           1.7546  -22.9447  -45.7540 C.2       10 UNK         0.5000 
     21 O           1.5109  -23.9989  -46.3408 O.2       10 UNK        -0.5000 
     22 CA          1.5264  -22.8556  -44.2330 C.3       10 UNK         0.1400 
     23 CB          2.8309  -23.1251  -43.4682 C.3       10 UNK        -0.1800 
     24 N           0.9797  -21.5631  -43.8192 N.am      10 UNK        -0.5000 
     25 C          -0.2237  -21.0948  -44.1783 C.2       9 UNK         0.5000 
     26 O          -1.0326  -21.7338  -44.8509 O.2       9 UNK        -0.5000 
     27 CA         -0.5499  -19.6487  -43.7607 C.3       9 UNK         0.1400 
     28 CB         -0.9872  -19.5984  -42.2875 C.3       9 UNK        -0.1800 
     29 N           0.5773  -18.7367  -43.9843 N.am      9 UNK        -0.5000 
     30 C           1.1143  -18.4770  -45.1865 C.2       8 UNK         0.5000 
     31 O           0.6802  -18.9372  -46.2381 O.2       8 UNK        -0.5000 
     32 CA          2.3845  -17.6135  -45.2238 C.3       8 UNK         0.1400 
     33 CB          2.0347  -16.1214  -45.2894 C.3       8 UNK        -0.1800 
     34 N           3.2438  -17.8765  -44.0715 N.am      8 UNK        -0.5000 
     35 C           3.9824  -18.9861  -43.9267 C.2       7 UNK         0.5000 
     36 O           4.0582  -19.8694  -44.7807 O.2       7 UNK        -0.5000 
     37 CA          4.7165  -19.1592  -42.5831 C.3       7 UNK         0.1400 
     38 CB          6.0525  -18.4017  -42.5938 C.3       7 UNK        -0.1800 
     39 N           3.9132  -18.7098  -41.4443 N.am      7 UNK        -0.5000 
     40 C           2.7663  -19.2847  -41.0553 C.2       6 UNK         0.5000 
     41 O           2.3136  -20.3066  -41.5696 O.2       6 UNK        -0.5000 
     42 CA          1.9640  -18.5778  -39.9434 C.3       6 UNK         0.1400 
     43 CB          2.3091  -19.1770  -38.5724 C.3       6 UNK        -0.1800 
     44 N           2.1518  -17.1235  -39.8951 N.am      6 UNK        -0.5000 
     45 C           1.8877  -16.2696  -40.8943 C.2       5 UNK         0.5000 
     46 O           1.4619  -16.6253  -41.9955 O.2       5 UNK        -0.5000 
     47 CA          2.2327  -14.7920  -40.6190 C.3       5 UNK         0.1400 
     48 CB          3.7548  -14.6174  -40.4712 C.3       5 UNK        -0.1800 
     49 N           1.7752  -13.8693  -41.6595 N.am      5 UNK        -0.5000 
     50 C           0.5044  -13.5365  -41.9130 C.2       4 UNK         0.5000 
     51 O          -0.4699  -14.0072  -41.3194 O.2       4 UNK        -0.5000 
     52 CA          0.3029  -12.4659  -42.9983 C.3       4 UNK         0.1400 
     53 CB          0.6332  -12.9966  -44.4038 C.3       4 UNK        -0.1800 
     54 N          -1.0759  -11.9880  -42.9720 N.am      4 UNK        -0.5000 
     55 C          -1.4636  -10.7470  -43.2820 C.2       3 UNK         0.5000 
     56 O          -0.6928   -9.8630  -43.6615 O.2       3 UNK        -0.5000 
     57 CA         -2.9724  -10.4779  -43.2042 C.3       3 UNK         0.1400 
     58 CB         -3.3291   -8.9797  -43.2764 C.3       3 UNK        -0.1800 
     59 N          -3.6078  -11.1971  -44.3007 N.am      3 UNK        -0.5000 
     60 C          -4.8758  -11.6112  -44.3426 C.2       2 UNK         0.5000 
     61 O          -5.6812  -11.4330  -43.4279 O.2       2 UNK        -0.5000 
     62 CA         -5.3254  -12.3647  -45.6101 C.3       2 UNK         0.1400 
     63 CB         -5.6556  -11.3871  -46.7543 C.3       2 UNK        -0.1800 
     64 N          -4.4027  -13.4208  -46.0493 N.am      2 UNK        -0.5000 
     65 C          -3.1658  -13.3262  -46.5567 C.2       1 UNK         0.5000 
     66 O          -2.5721  -12.2588  -46.7217 O.2       1 UNK        -0.5000 
     67 C           1.0062  -21.6820  -48.5576 C.2       11 UNK         0.5000 
     68 O           0.8999  -22.3027  -49.6144 O.2       11 UNK        -0.5000 
     69 N          -0.0026  -21.0081  -47.9863 N.am      12 UNK        -0.5000 
     70 CA         -1.3677  -20.9296  -48.5051 C.3       12 UNK         0.1400 
     71 CB         -2.1342  -19.8243  -47.7617 C.3       12 UNK        -0.1800 
     72 C          -2.1344  -22.2598  -48.4184 C.2       12 UNK         0.5000 
     73 O          -2.9324  -22.5524  -49.3115 O.2       12 UNK        -0.5000 
     74 N          -1.8566  -23.0352  -47.3619 N.am      13 UNK        -0.5000 
     75 CA         -2.4104  -24.3523  -47.0428 C.3       13 UNK         0.1400 
     76 CB         -2.0812  -25.3674  -48.1601 C.3       13 UNK        -0.1800 
     77 C          -3.9151  -24.3194  -46.6983 C.2       13 UNK         0.5000 
     78 O          -4.5180  -23.2476  -46.5833 O.2       13 UNK        -0.5000 
     79 N          -4.4903  -25.5135  -46.4983 N.am      14 UNK        -0.5000 
     80 CA         -5.8982  -25.7344  -46.1669 C.3       14 UNK         0.1400 
     81 CB         -6.1420  -27.2390  -45.9762 C.3       14 UNK        -0.1800 
     82 C          -6.8379  -25.1656  -47.2440 C.2       14 UNK         0.5000 
     83 O          -6.6145  -25.4011  -48.4336 O.2       14 UNK        -0.5000 
     84 N          -7.8423  -24.3954  -46.8021 N.am      15 UNK        -0.5000 
     85 CA         -8.8456  -23.6936  -47.6159 C.3       15 UNK         0.1400 
     86 CB         -9.7860  -24.7106  -48.2965 C.3       15 UNK        -0.1800 
     87 C          -8.2537  -22.6810  -48.6252 C.2       15 UNK         0.5000 
     88 O          -8.9366  -22.3132  -49.5822 O.2       15 UNK        -0.5000 
     89 N          -6.9959  -22.2625  -48.4039 N.am      16 UNK        -0.5000 
     90 CA         -6.1694  -21.4274  -49.2815 C.3       16 UNK         0.1400 
     91 CB         -6.7525  -20.0021  -49.3910 C.3       16 UNK        -0.1800 
     92 C          -5.8981  -22.0740  -50.6602 C.2       16 UNK         0.5000 
     93 O          -5.6837  -21.3574  -51.6389 O.2       16 UNK        -0.5000 
     94 N          -5.9127  -23.4145  -50.7270 N.am      17 UNK        -0.5000 
     95 CA         -5.7965  -24.1861  -51.9659 C.3       17 UNK         0.1400 
     96 CB         -6.0544  -25.6699  -51.6671 C.3       17 UNK        -0.1800 
     97 C          -4.4521  -24.0083  -52.6936 C.2       17 UNK         0.5000 
     98 O          -4.4358  -23.9349  -53.9231 O.2       17 UNK        -0.5000 
     99 N          -3.3532  -23.9176  -51.9331 N.am      18 UNK        -0.5000 
    100 CA        -2.0183  -23.6817  -52.4816 C.3       18 UNK         0.1400 
    101 CB        -0.9527  -24.2687  -51.5481 C.3       18 UNK        -0.1800 
    102 C         -1.7736  -22.1908  -52.7730 C.2       18 UNK         0.5000 
    103 O         -1.0299  -21.8841  -53.7041 O.2       18 UNK        -0.5000 
    104 N         -2.4441  -21.2945  -52.0315 N.am      19 UNK        -0.5000 
    105 CA        -2.4770  -19.8540  -52.3045 C.3       19 UNK         0.1400 
    106 CB        -3.0989  -19.0784  -51.1310 C.3       19 UNK        -0.1800 
    107 C         -3.1877  -19.5210  -53.6280 C.2       19 UNK         0.5000 
    108 O         -2.7181  -18.6598  -54.3712 O.2       19 UNK        -0.5000 
    109 N         -4.2908  -20.2272  -53.9078 N.am      20 UNK        -0.5000 
    110 CA        -5.0471  -20.1268  -55.1556 C.3       20 UNK         0.1400 
    111 CB        -6.3614  -20.9092  -55.0121 C.3       20 UNK        -0.1800 
    112 C         -4.2524  -20.6145  -56.3832 C.2       20 UNK         0.5000 
    113 O         -4.4172  -20.0576  -57.4693 O.2       20 UNK        -0.5000 
    114 N         -3.4078  -21.6364  -56.1887 N.am      21 UNK        -0.5000 
    115 CA        -2.5267  -22.1903  -57.2135 C.3       21 UNK         0.1400 
    116 CB        -2.1481  -23.6324  -56.8344 C.3       21 UNK        -0.1800 
    117 C         -1.2793  -21.3123  -57.4248 C.2       21 UNK         0.5000 
    118 O         -1.0861  -20.7783  -58.5174 O.2       21 UNK        -0.5000 
    119 N         -0.4586  -21.1879  -56.3734 N.am      22 UNK        -0.5000 
    120 CA         0.8166  -20.4519  -56.3289 C.3       22 UNK         0.1400 
    121 C          1.9233  -20.9515  -57.3107 C.2       22 UNK         0.5000 
    122 N          1.8681  -22.1912  -57.7829 N.am      22 UNK        -0.7600 
    123 O          2.8600  -20.2254  -57.6326 O.2       22 UNK        -0.5000 
    124 C124        0.6090  -18.9077  -56.3376 C.3       23 UNK        -0.0398 
    125 S125        1.6653  -18.0581  -55.1107 S.3       23 UNK        -0.2404 
    126 C126        0.6769  -18.3801  -53.6193 C.3       23 UNK        -0.0205 
    127 H127       -2.6346  -17.4306  -43.2440 H         1 UNK         0.0600 
    128 H128       -2.4915  -15.7766  -42.6470 H         1 UNK         0.0600 
    129 H129       -1.1568  -16.5029  -43.5452 H         1 UNK         0.0600 
    130 H130       -1.0673  -15.2769  -45.4302 H         1 UNK         0.3000 
    131 H131       -3.1941  -15.2990  -47.3844 H         1 UNK         0.0600 
    132 H132       -0.4711  -13.8956  -47.3664 H         1 UNK         0.0800 
    133 H133       -1.5787  -13.8963  -48.7195 H         1 UNK         0.0800 
    134 H134        1.5020  -14.9335  -48.9080 H         1 UNK         0.0800 
    135 H135        0.3386  -14.6597  -50.1831 H         1 UNK         0.0800 
    136 H136       -0.1180  -16.4200  -51.8937 H         1 UNK         0.1150 
    137 H137        2.9487  -19.3596  -52.4752 H         1 UNK         0.1150 
    138 H138        2.9686  -16.8993  -48.9611 H         1 UNK         0.1150 
    139 H139        5.1073  -18.8559  -51.0157 H         1 UNK         0.0800 
    140 H140        4.8270  -18.3537  -49.3683 H         1 UNK         0.0800 
    141 H141        2.6049  -19.5303  -48.1617 H         1 UNK         0.0800 
    142 H142        3.9771  -20.2801  -47.3950 H         1 UNK         0.0800 
    143 H143        2.9071  -22.5667  -48.1417 H         1 UNK         0.0600 
    144 H144        2.4019  -21.0233  -45.7942 H         1 UNK         0.3000 
    145 H145        0.8043  -23.6276  -43.9593 H         1 UNK         0.0600 
    146 H146        2.6614  -23.1323  -42.3913 H         1 UNK         0.0600 
    147 H147        3.2497  -24.0950  -43.7390 H         1 UNK         0.0600 
    148 H148        3.5868  -22.3687  -43.6813 H         1 UNK         0.0600 
    149 H149        1.5581  -20.9987  -43.2028 H         1 UNK         0.3000 
    150 H150       -1.3791  -19.2970  -44.3777 H         1 UNK         0.0600 
    151 H151       -1.9768  -20.0406  -42.1678 H         1 UNK         0.0600 
    152 H152       -1.0365  -18.5770  -41.9113 H         1 UNK         0.0600 
    153 H153       -0.3099  -20.1554  -41.6413 H         1 UNK         0.0600 
    154 H154        0.9721  -18.2755  -43.1727 H         1 UNK         0.3000 
    155 H155        2.9360  -17.8670  -46.1318 H         1 UNK         0.0600 
    156 H156        1.4403  -15.8109  -44.4318 H         1 UNK         0.0600 
    157 H157        1.4580  -15.8970  -46.1869 H         1 UNK         0.0600 
    158 H158        2.9333  -15.5053  -45.3184 H         1 UNK         0.0600 
    159 H159        3.1592  -17.2366  -43.2934 H         1 UNK         0.3000 
    160 H160        4.9261  -20.2231  -42.4529 H         1 UNK         0.0600 
    161 H161        5.9063  -17.3255  -42.6949 H         1 UNK         0.0600 
    162 H162        6.6787  -18.7278  -43.4254 H         1 UNK         0.0600 
    163 H163        6.6138  -18.5798  -41.6765 H         1 UNK         0.0600 
    164 H164        4.2228  -17.8788  -40.9632 H         1 UNK         0.3000 
    165 H165        0.9061  -18.7611  -40.1359 H         1 UNK         0.0600 
    166 H166        1.6800  -18.7564  -37.7876 H         1 UNK         0.0600 
    167 H167        2.1529  -20.2567  -38.5674 H         1 UNK         0.0600 
    168 H168        3.3503  -18.9945  -38.3037 H         1 UNK         0.0600 
    169 H169        2.5109  -16.7541  -39.0266 H         1 UNK         0.3000 
    170 H170        1.7532  -14.5072  -39.6803 H         1 UNK         0.0600 
    171 H171        4.1517  -15.2206  -39.6539 H         1 UNK         0.0600 
    172 H172        4.2830  -14.9083  -41.3804 H         1 UNK         0.0600 
    173 H173        4.0127  -13.5808  -40.2526 H         1 UNK         0.0600 
    174 H174        2.5016  -13.4483  -42.2191 H         1 UNK         0.3000 
    175 H175        0.9756  -11.6382  -42.7629 H         1 UNK         0.0600 
    176 H176        0.0227  -13.8616  -44.6536 H         1 UNK         0.0600 
    177 H177        0.4603  -12.2365  -45.1660 H         1 UNK         0.0600 
    178 H178        1.6796  -13.2927  -44.4779 H         1 UNK         0.0600 
    179 H179       -1.7467  -12.6541  -42.6107 H         1 UNK         0.3000 
    180 H180       -3.3284  -10.8750  -42.2512 H         1 UNK         0.0600 
    181 H181       -4.4002   -8.8212  -43.1506 H         1 UNK         0.0600 
    182 H182       -3.0373   -8.5423  -44.2319 H         1 UNK         0.0600 
    183 H183       -2.8244   -8.4200  -42.4882 H         1 UNK         0.0600 
    184 H184       -3.0160  -11.4097  -45.1013 H         1 UNK         0.3000 
    185 H185       -6.2511  -12.8809  -45.3505 H         1 UNK         0.0600 
    186 H186       -6.4231  -10.6760  -46.4463 H         1 UNK         0.0600 
    187 H187       -4.7851  -10.8087  -47.0643 H         1 UNK         0.0600 
    188 H188       -6.0354  -11.9168  -47.6279 H         1 UNK         0.0600 
    189 H189       -4.7191  -14.3644  -45.8461 H         1 UNK         0.3000 
    190 H190        0.1960  -20.4439  -47.1632 H         1 UNK         0.3000 
    191 H191       -1.2945  -20.6613  -49.5585 H         1 UNK         0.0600 
    192 H192       -3.1546  -19.7322  -48.1352 H         1 UNK         0.0600 
    193 H193       -1.6510  -18.8558  -47.8886 H         1 UNK         0.0600 
    194 H194       -2.1962  -20.0276  -46.6926 H         1 UNK         0.0600 
    195 H195       -1.2693  -22.6328  -46.6386 H         1 UNK         0.3000 
    196 H196       -1.8929  -24.6716  -46.1372 H         1 UNK         0.0600 
    197 H197       -2.6843  -25.1998  -49.0528 H         1 UNK         0.0600 
    198 H198       -1.0314  -25.3065  -48.4484 H         1 UNK         0.0600 
    199 H199       -2.2604  -26.3920  -47.8340 H         1 UNK         0.0600 
    200 H200       -3.9330  -26.3443  -46.6295 H         1 UNK         0.3000 
    201 H201       -6.0961  -25.2304  -45.2187 H         1 UNK         0.0600 
    202 H202       -5.9276  -27.7995  -46.8871 H         1 UNK         0.0600 
    203 H203       -7.1809  -27.4349  -45.7076 H         1 UNK         0.0600 
    204 H204       -5.5192  -27.6430  -45.1778 H         1 UNK         0.0600 
    205 H205       -7.9210  -24.2441  -45.8057 H         1 UNK         0.3000 
    206 H206       -9.4444  -23.1052  -46.9193 H         1 UNK         0.0600 
    207 H207      -10.2000  -25.4118  -47.5719 H         1 UNK         0.0600 
    208 H208      -10.6277  -24.2092  -48.7756 H         1 UNK         0.0600 
    209 H209       -9.2698  -25.2873  -49.0647 H         1 UNK         0.0600 
    210 H210       -6.5088  -22.6405  -47.6002 H         1 UNK         0.3000 
    211 H211       -5.2014  -21.3438  -48.7880 H         1 UNK         0.0600 
    212 H212       -6.0691  -19.3326  -49.9127 H         1 UNK         0.0600 
    213 H213       -6.9317  -19.5733  -48.4052 H         1 UNK         0.0600 
    214 H214       -7.6945  -19.9895  -49.9394 H         1 UNK         0.0600 
    215 H215       -6.0947  -23.9449  -49.8817 H         1 UNK         0.3000 
    216 H216       -6.5799  -23.8372  -52.6419 H         1 UNK         0.0600 
    217 H217       -5.3283  -26.0683  -50.9571 H         1 UNK         0.0600 
    218 H218       -5.9919  -26.2702  -52.5756 H         1 UNK         0.0600 
    219 H219       -7.0491  -25.8193  -51.2464 H         1 UNK         0.0600 
    220 H220       -3.4455  -23.8912  -50.9243 H         1 UNK         0.3000 
    221 H221       -1.9303  -24.2115  -53.4325 H         1 UNK         0.0600 
    222 H222       -1.0741  -25.3465  -51.4410 H         1 UNK         0.0600 
    223 H223       -0.9979  -23.8299  -50.5547 H         1 UNK         0.0600 
    224 H224        0.0501  -24.0895  -51.9378 H         1 UNK         0.0600 
    225 H225       -3.0260  -21.6393  -51.2782 H         1 UNK         0.3000 
    226 H226       -1.4481  -19.5150  -52.3955 H         1 UNK         0.0600 
    227 H227       -3.8790  -19.6482  -50.6307 H         1 UNK         0.0600 
    228 H228       -2.3416  -18.8195  -50.3933 H         1 UNK         0.0600 
    229 H229       -3.5390  -18.1345  -51.4564 H         1 UNK         0.0600 
    230 H230       -4.6638  -20.8480  -53.1944 H         1 UNK         0.3000 
    231 H231       -5.2922  -19.0748  -55.3156 H         1 UNK         0.0600 
    232 H232       -6.1808  -21.9686  -54.8274 H         1 UNK         0.0600 
    233 H233       -6.9644  -20.8307  -55.9175 H         1 UNK         0.0600 
    234 H234       -6.9608  -20.5245  -54.1866 H         1 UNK         0.0600 
    235 H235       -3.3520  -22.0434  -55.2658 H         1 UNK         0.3000 
    236 H236       -3.0710  -22.2309  -58.1596 H         1 UNK         0.0600 
    237 H237       -3.0344  -24.2635  -56.7651 H         1 UNK         0.0600 
    238 H238       -1.4928  -24.0743  -57.5858 H         1 UNK         0.0600 
    239 H239       -1.6319  -23.6834  -55.8755 H         1 UNK         0.0600 
    240 H240       -0.7244  -21.6191  -55.4905 H         1 UNK         0.3000 
    241 H241        1.2168  -20.7290  -55.3538 H         1 UNK         0.0600 
    242 H242        2.5873  -22.5152  -58.4105 H         1 UNK         0.3800 
    243 H243        1.1160  -22.8076  -57.5210 H         1 UNK         0.3800 
    244 H244       -0.4283  -18.6566  -56.1098 H         1 UNK         0.0800 
    245 H245        0.7930  -18.4868  -57.3273 H         1 UNK         0.0800 
    246 H246       -0.2882  -17.8861  -53.7342 H         1 UNK         0.0800 
    247 H247        0.4800  -19.4498  -53.5480 H         1 UNK         0.0800 
@<TRIPOS>BOND
     1    1    2 1    
     2    1  127 1    
     3    1  128 1    
     4    1  129 1    
     5    2    3 2    
     6    2    4 am   BACKBONE|DICT|INTERRES
     7    4    5 1    
     8    4  130 1    
     9    5    6 1    
    10    5   65 1    
    11    5  131 1    
    12    6    7 1    
    13    6  132 1    
    14    6  133 1    
    15    7    8 1    
    16    8    9 1    
    17    8  134 1    
    18    8  135 1    
    19    9   10 ar   
    20    9   14 ar   
    21   10   11 ar   
    22   10  136 1    
    23   11   12 ar   
    24   11  126 1    
    25   12   13 ar   
    26   12  137 1    
    27   13   14 ar   
    28   13   15 1    
    29   14  138 1    
    30   15   16 1    
    31   15  139 1    
    32   15  140 1    
    33   16   17 1    
    34   17   18 1    
    35   17  141 1    
    36   17  142 1    
    37   18   19 1    
    38   18   67 1    
    39   18  143 1    
    40   19   20 am   BACKBONE|DICT|INTERRES
    41   19  144 1    
    42   20   21 2    
    43   20   22 1    
    44   22   23 1    
    45   22   24 1    
    46   22  145 1    
    47   23  146 1    
    48   23  147 1    
    49   23  148 1    
    50   24   25 am   BACKBONE|DICT|INTERRES
    51   24  149 1    
    52   25   26 2    
    53   25   27 1    
    54   27   28 1    
    55   27   29 1    
    56   27  150 1    
    57   28  151 1    
    58   28  152 1    
    59   28  153 1    
    60   29   30 am   BACKBONE|DICT|INTERRES
    61   29  154 1    
    62   30   31 2    
    63   30   32 1    
    64   32   33 1    
    65   32   34 1    
    66   32  155 1    
    67   33  156 1    
    68   33  157 1    
    69   33  158 1    
    70   34   35 am   BACKBONE|DICT|INTERRES
    71   34  159 1    
    72   35   36 2    
    73   35   37 1    
    74   37   38 1    
    75   37   39 1    
    76   37  160 1    
    77   38  161 1    
    78   38  162 1    
    79   38  163 1    
    80   39   40 am   BACKBONE|DICT|INTERRES
    81   39  164 1    
    82   40   41 2    
    83   40   42 1    
    84   42   43 1    
    85   42   44 1    
    86   42  165 1    
    87   43  166 1    
    88   43  167 1    
    89   43  168 1    
    90   44   45 am   BACKBONE|DICT|INTERRES
    91   44  169 1    
    92   45   46 2    
    93   45   47 1    
    94   47   48 1    
    95   47   49 1    
    96   47  170 1    
    97   48  171 1    
    98   48  172 1    
    99   48  173 1    
   100   49   50 am   BACKBONE|DICT|INTERRES
   101   49  174 1    
   102   50   51 2    
   103   50   52 1    
   104   52   53 1    
   105   52   54 1    
   106   52  175 1    
   107   53  176 1    
   108   53  177 1    
   109   53  178 1    
   110   54   55 am   BACKBONE|DICT|INTERRES
   111   54  179 1    
   112   55   56 2    
   113   55   57 1    
   114   57   58 1    
   115   57   59 1    
   116   57  180 1    
   117   58  181 1    
   118   58  182 1    
   119   58  183 1    
   120   59   60 am   BACKBONE|DICT|INTERRES
   121   59  184 1    
   122   60   61 2    
   123   60   62 1    
   124   62   63 1    
   125   62   64 1    
   126   62  185 1    
   127   63  186 1    
   128   63  187 1    
   129   63  188 1    
   130   64   65 am   BACKBONE|DICT|INTERRES
   131   64  189 1    
   132   65   66 2    
   133   67   68 2    
   134   67   69 am   BACKBONE|DICT|INTERRES
   135   69   70 1    
   136   69  190 1    
   137   70   71 1    
   138   70   72 1    
   139   70  191 1    
   140   71  192 1    
   141   71  193 1    
   142   71  194 1    
   143   72   73 2    
   144   72   74 am   BACKBONE|DICT|INTERRES
   145   74   75 1    
   146   74  195 1    
   147   75   76 1    
   148   75   77 1    
   149   75  196 1    
   150   76  197 1    
   151   76  198 1    
   152   76  199 1    
   153   77   78 2    
   154   77   79 am   BACKBONE|DICT|INTERRES
   155   79   80 1    
   156   79  200 1    
   157   80   81 1    
   158   80   82 1    
   159   80  201 1    
   160   81  202 1    
   161   81  203 1    
   162   81  204 1    
   163   82   83 2    
   164   82   84 am   BACKBONE|DICT|INTERRES
   165   84   85 1    
   166   84  205 1    
   167   85   86 1    
   168   85   87 1    
   169   85  206 1    
   170   86  207 1    
   171   86  208 1    
   172   86  209 1    
   173   87   88 2    
   174   87   89 am   BACKBONE|DICT|INTERRES
   175   89   90 1    
   176   89  210 1    
   177   90   91 1    
   178   90   92 1    
   179   90  211 1    
   180   91  212 1    
   181   91  213 1    
   182   91  214 1    
   183   92   93 2    
   184   92   94 am   BACKBONE|DICT|INTERRES
   185   94   95 1    
   186   94  215 1    
   187   95   96 1    
   188   95   97 1    
   189   95  216 1    
   190   96  217 1    
   191   96  218 1    
   192   96  219 1    
   193   97   98 2    
   194   97   99 am   BACKBONE|DICT|INTERRES
   195   99  100 1    
   196   99  220 1    
   197  100  101 1    
   198  100  102 1    
   199  100  221 1    
   200  101  222 1    
   201  101  223 1    
   202  101  224 1    
   203  102  103 2    
   204  102  104 am   BACKBONE|DICT|INTERRES
   205  104  105 1    
   206  104  225 1    
   207  105  106 1    
   208  105  107 1    
   209  105  226 1    
   210  106  227 1    
   211  106  228 1    
   212  106  229 1    
   213  107  108 2    
   214  107  109 am   BACKBONE|DICT|INTERRES
   215  109  110 1    
   216  109  230 1    
   217  110  111 1    
   218  110  112 1    
   219  110  231 1    
   220  111  232 1    
   221  111  233 1    
   222  111  234 1    
   223  112  113 2    
   224  112  114 am   BACKBONE|DICT|INTERRES
   225  114  115 1    
   226  114  235 1    
   227  115  116 1    
   228  115  117 1    
   229  115  236 1    
   230  116  237 1    
   231  116  238 1    
   232  116  239 1    
   233  117  118 2    
   234  117  119 am   BACKBONE|DICT|INTERRES
   235  119  120 1    
   236  119  240 1    
   237  120  121 1    
   238  120  124 1    
   239  120  241 1    
   240  121  122 am   BACKBONE|DICT|INTERRES
   241  121  123 2    
   242  122  242 1    
   243  122  243 1    
   244  124  125 1    
   245  124  244 1    
   246  124  245 1    
   247  125  126 1    
   248  126  246 1    
   249  126  247 1    
@<TRIPOS>SUBSTRUCTURE
     1 UNK         1 GROUP             0       ****    0 ROOT    
