@<TRIPOS>MOLECULE
3R540
247   249    1
SMALL
USER_CHARGES


@<TRIPOS>ATOM
      1 CA         -1.2428  -10.2247  -45.4495 C.3       0 UNK        -0.1800 
      2 C          -0.6436  -11.6159  -45.2566 C.2       0 UNK         0.5000 
      3 O          -1.0304  -12.3104  -44.3204 O.2       0 UNK        -0.5000 
      4 N           0.2856  -12.0707  -46.1075 N.am      1 UNK        -0.5000 
      5 CA          0.8851  -11.3479  -47.2355 C.3       1 UNK         0.1400 
      6 C6          1.1126  -12.2843  -48.4579 C.3       23 UNK        -0.0398 
      7 S7          2.5206  -13.4461  -48.3310 S.3       23 UNK        -0.2404 
      8 C8          1.7730  -14.8943  -47.5320 C.3       23 UNK        -0.0205 
      9 C9          1.0151  -15.7861  -48.5014 C.ar      23 UNK        -0.0193 
     10 C10        -0.3498  -15.5902  -48.7401 C.ar      23 UNK        -0.1150 
     11 C11        -1.0646  -16.4521  -49.5796 C.ar      23 UNK        -0.0193 
     12 C12        -0.3863  -17.5172  -50.1830 C.ar      23 UNK        -0.1150 
     13 C13         0.9663  -17.7459  -49.9235 C.ar      23 UNK        -0.0193 
     14 C14         1.6678  -16.8664  -49.0982 C.ar      23 UNK        -0.1150 
     15 C15         1.6474  -18.9853  -50.4809 C.3       23 UNK        -0.0205 
     16 S16         1.7308  -20.3103  -49.2312 S.3       23 UNK        -0.2404 
     17 C17        -0.0377  -20.5434  -48.8405 C.3       23 UNK        -0.0398 
     18 CA         -0.2997  -21.8284  -48.0280 C.3       11 UNK         0.1400 
     19 N           0.2251  -21.7550  -46.6615 N.am      11 UNK        -0.5000 
     20 C           0.2900  -22.7991  -45.8237 C.2       10 UNK         0.5000 
     21 O          -0.0501  -23.9422  -46.1306 O.2       10 UNK        -0.5000 
     22 CA          0.7598  -22.5126  -44.3866 C.3       10 UNK         0.1400 
     23 CB          2.2838  -22.3307  -44.3285 C.3       10 UNK        -0.1800 
     24 N           0.0943  -21.3471  -43.8033 N.am      10 UNK        -0.5000 
     25 C          -1.2234  -21.2677  -43.5671 C.2       9 UNK         0.5000 
     26 O          -2.0104  -22.1920  -43.7716 O.2       9 UNK        -0.5000 
     27 CA         -1.7618  -19.9195  -43.0527 C.3       9 UNK         0.1400 
     28 CB         -1.5572  -19.7891  -41.5362 C.3       9 UNK        -0.1800 
     29 N          -1.1627  -18.7690  -43.7294 N.am      9 UNK        -0.5000 
     30 C          -1.2726  -18.5123  -45.0405 C.2       8 UNK         0.5000 
     31 O          -1.9180  -19.2043  -45.8252 O.2       8 UNK        -0.5000 
     32 CA         -0.4850  -17.3070  -45.5773 C.3       8 UNK         0.1400 
     33 CB         -1.2202  -15.9959  -45.2505 C.3       8 UNK        -0.1800 
     34 N           0.8918  -17.2735  -45.0749 N.am      8 UNK        -0.5000 
     35 C           1.7936  -18.2419  -45.3065 C.2       7 UNK         0.5000 
     36 O           1.5739  -19.2254  -46.0118 O.2       7 UNK        -0.5000 
     37 CA          3.1379  -18.1418  -44.5647 C.3       7 UNK         0.1400 
     38 CB          4.1330  -17.2317  -45.3009 C.3       7 UNK        -0.1800 
     39 N           2.9646  -17.6823  -43.1879 N.am      7 UNK        -0.5000 
     40 C           2.3794  -18.4047  -42.2213 C.2       6 UNK         0.5000 
     41 O           1.9872  -19.5609  -42.3739 O.2       6 UNK        -0.5000 
     42 CA          2.1492  -17.6936  -40.8750 C.3       6 UNK         0.1400 
     43 CB          3.4009  -17.7909  -39.9905 C.3       6 UNK        -0.1800 
     44 N           1.7850  -16.2860  -41.0471 N.am      6 UNK        -0.5000 
     45 C           0.6515  -15.8593  -41.6241 C.2       5 UNK         0.5000 
     46 O          -0.2445  -16.6158  -41.9955 O.2       5 UNK        -0.5000 
     47 CA          0.5257  -14.3441  -41.8755 C.3       5 UNK         0.1400 
     48 CB         -0.1830  -13.6559  -40.7002 C.3       5 UNK        -0.1800 
     49 N           1.8294  -13.7116  -42.0979 N.am      5 UNK        -0.5000 
     50 C           2.5689  -13.8858  -43.2002 C.2       4 UNK         0.5000 
     51 O           2.1811  -14.4991  -44.1994 O.2       4 UNK        -0.5000 
     52 CA          4.0138  -13.3740  -43.1265 C.3       4 UNK         0.1400 
     53 CB          4.8693  -14.3777  -42.3210 C.3       4 UNK        -0.1800 
     54 N           4.5397  -13.2127  -44.4793 N.am      4 UNK        -0.5000 
     55 C           5.7353  -12.7038  -44.8042 C.2       3 UNK         0.5000 
     56 O           6.5541  -12.2877  -43.9836 O.2       3 UNK        -0.5000 
     57 CA          6.0627  -12.6212  -46.3055 C.3       3 UNK         0.1400 
     58 CB          5.9531  -13.9934  -46.9943 C.3       3 UNK        -0.1800 
     59 N           5.2008  -11.6488  -46.9762 N.am      3 UNK        -0.5000 
     60 C           5.3074  -10.3180  -46.8348 C.2       2 UNK         0.5000 
     61 O           6.2082   -9.7690  -46.1991 O.2       2 UNK        -0.5000 
     62 CA          4.2343   -9.4410  -47.5142 C.3       2 UNK         0.1400 
     63 CB          4.7538   -8.9003  -48.8554 C.3       2 UNK        -0.1800 
     64 N           2.9605  -10.1275  -47.7425 N.am      2 UNK        -0.5000 
     65 C           2.1454  -10.5746  -46.7772 C.2       1 UNK         0.5000 
     66 O           2.3662  -10.4013  -45.5757 O.2       1 UNK        -0.5000 
     67 C          -1.7963  -22.1990  -48.0480 C.2       11 UNK         0.5000 
     68 O          -2.1768  -23.0715  -48.8244 O.2       11 UNK        -0.5000 
     69 N          -2.6035  -21.5923  -47.1645 N.am      12 UNK        -0.5000 
     70 CA         -4.0315  -21.8851  -47.0073 C.3       12 UNK         0.1400 
     71 CB         -4.6639  -20.8895  -46.0245 C.3       12 UNK        -0.1800 
     72 C          -4.3233  -23.3338  -46.5760 C.2       12 UNK         0.5000 
     73 O          -5.3548  -23.8795  -46.9641 O.2       12 UNK        -0.5000 
     74 N          -3.4140  -23.9412  -45.8032 N.am      13 UNK        -0.5000 
     75 CA         -3.4584  -25.3591  -45.4583 C.3       13 UNK         0.1400 
     76 CB         -2.5717  -25.6219  -44.2311 C.3       13 UNK        -0.1800 
     77 C          -3.0438  -26.2450  -46.6478 C.2       13 UNK         0.5000 
     78 O          -3.7550  -27.1964  -46.9717 O.2       13 UNK        -0.5000 
     79 N          -1.9065  -25.9166  -47.2769 N.am      14 UNK        -0.5000 
     80 CA         -1.2994  -26.6871  -48.3644 C.3       14 UNK         0.1400 
     81 CB          0.1260  -26.1713  -48.6153 C.3       14 UNK        -0.1800 
     82 C          -2.1138  -26.6770  -49.6716 C.2       14 UNK         0.5000 
     83 O          -2.2806  -27.7294  -50.2892 O.2       14 UNK        -0.5000 
     84 N          -2.6004  -25.4954  -50.0668 N.am      15 UNK        -0.5000 
     85 CA         -3.3503  -25.2487  -51.3003 C.3       15 UNK         0.1400 
     86 CB         -2.6832  -24.0896  -52.0585 C.3       15 UNK        -0.1800 
     87 C          -4.8500  -25.0063  -51.0284 C.2       15 UNK         0.5000 
     88 O          -5.5638  -24.5146  -51.9061 O.2       15 UNK        -0.5000 
     89 N          -5.3048  -25.3776  -49.8229 N.am      16 UNK        -0.5000 
     90 CA         -6.6934  -25.5595  -49.3798 C.3       16 UNK         0.1400 
     91 CB         -7.3182  -26.7456  -50.1443 C.3       16 UNK        -0.1800 
     92 C          -7.6167  -24.3214  -49.4308 C.2       16 UNK         0.5000 
     93 O          -8.8184  -24.4775  -49.2060 O.2       16 UNK        -0.5000 
     94 N          -7.0764  -23.1318  -49.7388 N.am      17 UNK        -0.5000 
     95 CA         -7.8026  -21.8797  -49.9922 C.3       17 UNK         0.1400 
     96 CB         -8.4788  -21.3644  -48.7044 C.3       17 UNK        -0.1800 
     97 C          -8.7708  -21.9696  -51.1955 C.2       17 UNK         0.5000 
     98 O          -9.7600  -21.2357  -51.2408 O.2       17 UNK        -0.5000 
     99 N          -8.4792  -22.8701  -52.1453 N.am      18 UNK        -0.5000 
    100 CA        -9.3439  -23.2066  -53.2767 C.3       18 UNK         0.1400 
    101 CB       -10.4277  -24.2052  -52.8213 C.3       18 UNK        -0.1800 
    102 C         -8.5167  -23.7208  -54.4692 C.2       18 UNK         0.5000 
    103 O         -8.9349  -24.6533  -55.1582 O.2       18 UNK        -0.5000 
    104 N         -7.3513  -23.1067  -54.6931 N.am      19 UNK        -0.5000 
    105 CA        -6.4111  -23.4195  -55.7667 C.3       19 UNK         0.1400 
    106 CB        -5.6038  -24.6837  -55.4072 C.3       19 UNK        -0.1800 
    107 C         -5.4890  -22.2102  -55.9886 C.2       19 UNK         0.5000 
    108 O         -5.5925  -21.2154  -55.2624 O.2       19 UNK        -0.5000 
    109 N         -4.5789  -22.3202  -56.9641 N.am      20 UNK        -0.5000 
    110 CA        -3.4987  -21.3587  -57.1959 C.3       20 UNK         0.1400 
    111 CB        -2.7344  -21.7580  -58.4674 C.3       20 UNK        -0.1800 
    112 C         -2.5419  -21.2785  -55.9889 C.2       20 UNK         0.5000 
    113 O         -2.2769  -22.3030  -55.3561 O.2       20 UNK        -0.5000 
    114 N         -2.0518  -20.0637  -55.7042 N.am      21 UNK        -0.5000 
    115 CA        -1.2306  -19.7017  -54.5412 C.3       21 UNK         0.1400 
    116 CB         0.1424  -20.4074  -54.5788 C.3       21 UNK        -0.1800 
    117 C         -1.9831  -19.8941  -53.2060 C.2       21 UNK         0.5000 
    118 O         -1.4169  -20.4142  -52.2447 O.2       21 UNK        -0.5000 
    119 N         -3.2456  -19.4440  -53.1816 N.am      22 UNK        -0.5000 
    120 CA        -4.1642  -19.4804  -52.0295 C.3       22 UNK         0.1400 
    121 C         -4.5709  -20.9271  -51.6302 C.2       22 UNK         0.5000 
    122 N         -4.9906  -21.7507  -52.5797 N.am      22 UNK        -0.7600 
    123 O         -4.5263  -21.3117  -50.4672 O.2       22 UNK        -0.5000 
    124 C124       -3.6934  -18.6201  -50.8196 C.3       23 UNK        -0.0398 
    125 S125       -3.3060  -16.8930  -51.2863 S.3       23 UNK        -0.2404 
    126 C126       -2.5704  -16.2336  -49.7483 C.3       23 UNK        -0.0205 
    127 H127       -1.8280  -10.1819  -46.3680 H         1 UNK         0.0600 
    128 H128       -0.4631   -9.4641  -45.4890 H         1 UNK         0.0600 
    129 H129       -1.9050   -9.9758  -44.6200 H         1 UNK         0.0600 
    130 H130        0.7155  -12.9588  -45.8969 H         1 UNK         0.3000 
    131 H131        0.1844  -10.5857  -47.5780 H         1 UNK         0.0600 
    132 H132        1.2787  -11.6816  -49.3518 H         1 UNK         0.0800 
    133 H133        0.1998  -12.8367  -48.6740 H         1 UNK         0.0800 
    134 H134        1.1267  -14.5771  -46.7192 H         1 UNK         0.0800 
    135 H135        2.5694  -15.4703  -47.0634 H         1 UNK         0.0800 
    136 H136       -0.8685  -14.7836  -48.2426 H         1 UNK         0.1150 
    137 H137       -0.9074  -18.2065  -50.8266 H         1 UNK         0.1150 
    138 H138        2.7119  -17.0498  -48.8866 H         1 UNK         0.1150 
    139 H139        1.1186  -19.3526  -51.3618 H         1 UNK         0.0800 
    140 H140        2.6576  -18.7363  -50.8083 H         1 UNK         0.0800 
    141 H141       -0.5829  -20.5725  -49.7848 H         1 UNK         0.0800 
    142 H142       -0.4028  -19.6713  -48.2953 H         1 UNK         0.0800 
    143 H143        0.2259  -22.6446  -48.5283 H         1 UNK         0.0600 
    144 H144        0.5623  -20.8464  -46.3531 H         1 UNK         0.3000 
    145 H145        0.5017  -23.3804  -43.7759 H         1 UNK         0.0600 
    146 H146        2.6255  -22.1955  -43.3022 H         1 UNK         0.0600 
    147 H147        2.6109  -21.4665  -44.9061 H         1 UNK         0.0600 
    148 H148        2.7958  -23.2060  -44.7299 H         1 UNK         0.0600 
    149 H149        0.6845  -20.5589  -43.5587 H         1 UNK         0.3000 
    150 H150       -2.8349  -19.8944  -43.2512 H         1 UNK         0.0600 
    151 H151       -2.0315  -20.6161  -41.0064 H         1 UNK         0.0600 
    152 H152       -1.9948  -18.8652  -41.1574 H         1 UNK         0.0600 
    153 H153       -0.5004  -19.7915  -41.2696 H         1 UNK         0.0600 
    154 H154       -0.6517  -18.1114  -43.1471 H         1 UNK         0.3000 
    155 H155       -0.4332  -17.4132  -46.6613 H         1 UNK         0.0600 
    156 H156       -1.4105  -15.8866  -44.1840 H         1 UNK         0.0600 
    157 H157       -2.1874  -15.9654  -45.7534 H         1 UNK         0.0600 
    158 H158       -0.6641  -15.1192  -45.5729 H         1 UNK         0.0600 
    159 H159        1.1552  -16.4850  -44.4985 H         1 UNK         0.3000 
    160 H160        3.5682  -19.1451  -44.5354 H         1 UNK         0.0600 
    161 H161        3.8345  -16.1859  -45.2654 H         1 UNK         0.0600 
    162 H162        4.2211  -17.5152  -46.3507 H         1 UNK         0.0600 
    163 H163        5.1276  -17.3043  -44.8609 H         1 UNK         0.0600 
    164 H164        3.2268  -16.7298  -42.9896 H         1 UNK         0.3000 
    165 H165        1.3267  -18.1994  -40.3649 H         1 UNK         0.0600 
    166 H166        3.2254  -17.3497  -39.0092 H         1 UNK         0.0600 
    167 H167        3.6850  -18.8320  -39.8311 H         1 UNK         0.0600 
    168 H168        4.2550  -17.2827  -40.4399 H         1 UNK         0.0600 
    169 H169        2.4591  -15.6005  -40.7432 H         1 UNK         0.3000 
    170 H170       -0.0840  -14.2105  -42.7704 H         1 UNK         0.0600 
    171 H171       -1.1642  -14.0989  -40.5243 H         1 UNK         0.0600 
    172 H172        0.3883  -13.7428  -39.7752 H         1 UNK         0.0600 
    173 H173       -0.3386  -12.5960  -40.9029 H         1 UNK         0.0600 
    174 H174        2.2107  -13.1837  -41.3260 H         1 UNK         0.3000 
    175 H175        4.0152  -12.4005  -42.6324 H         1 UNK         0.0600 
    176 H176        4.9625  -15.3324  -42.8394 H         1 UNK         0.0600 
    177 H177        5.8754  -14.0002  -42.1424 H         1 UNK         0.0600 
    178 H178        4.4367  -14.5753  -41.3399 H         1 UNK         0.0600 
    179 H179        3.9026  -13.5130  -45.2053 H         1 UNK         0.3000 
    180 H180        7.0981  -12.2875  -46.4038 H         1 UNK         0.0600 
    181 H181        6.2349  -13.9288  -48.0453 H         1 UNK         0.0600 
    182 H182        4.9453  -14.4040  -46.9455 H         1 UNK         0.0600 
    183 H183        6.6201  -14.7167  -46.5236 H         1 UNK         0.0600 
    184 H184        4.4290  -12.0169  -47.5143 H         1 UNK         0.3000 
    185 H185        4.0433   -8.5916  -46.8549 H         1 UNK         0.0600 
    186 H186        4.9427   -9.7048  -49.5673 H         1 UNK         0.0600 
    187 H187        4.0401   -8.2111  -49.3071 H         1 UNK         0.0600 
    188 H188        5.6889   -8.3548  -48.7213 H         1 UNK         0.0600 
    189 H189        2.7216  -10.3028  -48.7075 H         1 UNK         0.3000 
    190 H190       -2.2298  -20.8494  -46.5773 H         1 UNK         0.3000 
    191 H191       -4.5074  -21.7406  -47.9767 H         1 UNK         0.0600 
    192 H192       -4.5541  -19.8641  -46.3776 H         1 UNK         0.0600 
    193 H193       -4.2080  -20.9570  -45.0368 H         1 UNK         0.0600 
    194 H194       -5.7317  -21.0797  -45.9087 H         1 UNK         0.0600 
    195 H195       -2.6223  -23.4065  -45.4657 H         1 UNK         0.3000 
    196 H196       -4.4840  -25.6195  -45.1876 H         1 UNK         0.0600 
    197 H197       -2.9062  -25.0377  -43.3736 H         1 UNK         0.0600 
    198 H198       -1.5286  -25.3672  -44.4186 H         1 UNK         0.0600 
    199 H199       -2.6064  -26.6733  -43.9432 H         1 UNK         0.0600 
    200 H200       -1.3718  -25.1222  -46.9357 H         1 UNK         0.3000 
    201 H201       -1.2256  -27.7247  -48.0322 H         1 UNK         0.0600 
    202 H202        0.7416  -26.2631  -47.7202 H         1 UNK         0.0600 
    203 H203        0.1263  -25.1224  -48.9140 H         1 UNK         0.0600 
    204 H204        0.6155  -26.7398  -49.4070 H         1 UNK         0.0600 
    205 H205       -2.4179  -24.6666  -49.4981 H         1 UNK         0.3000 
    206 H206       -3.3032  -26.1259  -51.9480 H         1 UNK         0.0600 
    207 H207       -2.6869  -23.1699  -51.4744 H         1 UNK         0.0600 
    208 H208       -1.6450  -24.3224  -52.2944 H         1 UNK         0.0600 
    209 H209       -3.1854  -23.8858  -53.0041 H         1 UNK         0.0600 
    210 H210       -4.6092  -25.6985  -49.1638 H         1 UNK         0.3000 
    211 H211       -6.6338  -25.8432  -48.3284 H         1 UNK         0.0600 
    212 H212       -7.4571  -26.5141  -51.2011 H         1 UNK         0.0600 
    213 H213       -8.2945  -27.0105  -49.7370 H         1 UNK         0.0600 
    214 H214       -6.6910  -27.6345  -50.0748 H         1 UNK         0.0600 
    215 H215       -6.0783  -23.0948  -49.9033 H         1 UNK         0.3000 
    216 H216       -7.0619  -21.1347  -50.2720 H         1 UNK         0.0600 
    217 H217       -8.8747  -20.3583  -48.8466 H         1 UNK         0.0600 
    218 H218       -7.7675  -21.3181  -47.8794 H         1 UNK         0.0600 
    219 H219       -9.3094  -22.0000  -48.3970 H         1 UNK         0.0600 
    220 H220       -7.6394  -23.4289  -52.0465 H         1 UNK         0.3000 
    221 H221       -9.8403  -22.2995  -53.6273 H         1 UNK         0.0600 
    222 H222       -9.9855  -25.1376  -52.4681 H         1 UNK         0.0600 
    223 H223      -11.0305  -23.7949  -52.0110 H         1 UNK         0.0600 
    224 H224      -11.1099  -24.4484  -53.6367 H         1 UNK         0.0600 
    225 H225       -7.0954  -22.3020  -54.1352 H         1 UNK         0.3000 
    226 H226       -6.9678  -23.5896  -56.6904 H         1 UNK         0.0600 
    227 H227       -6.2563  -25.5295  -55.1915 H         1 UNK         0.0600 
    228 H228       -4.9511  -24.9857  -56.2265 H         1 UNK         0.0600 
    229 H229       -4.9748  -24.5187  -54.5327 H         1 UNK         0.0600 
    230 H230       -4.5351  -23.1765  -57.4962 H         1 UNK         0.3000 
    231 H231       -3.9514  -20.3776  -57.3546 H         1 UNK         0.0600 
    232 H232       -1.9367  -21.0461  -58.6835 H         1 UNK         0.0600 
    233 H233       -3.3939  -21.7789  -59.3353 H         1 UNK         0.0600 
    234 H234       -2.2765  -22.7432  -58.3684 H         1 UNK         0.0600 
    235 H235       -2.3202  -19.2913  -56.2981 H         1 UNK         0.3000 
    236 H236       -1.0424  -18.6303  -54.6248 H         1 UNK         0.0600 
    237 H237        0.0541  -21.4819  -54.4170 H         1 UNK         0.0600 
    238 H238        0.6409  -20.2509  -55.5352 H         1 UNK         0.0600 
    239 H239        0.8007  -20.0167  -53.8024 H         1 UNK         0.0600 
    240 H240       -3.6314  -19.0598  -54.0311 H         1 UNK         0.3000 
    241 H241       -5.0898  -19.0257  -52.3841 H         1 UNK         0.0600 
    242 H242       -5.2020  -22.7140  -52.3442 H         1 UNK         0.3800 
    243 H243       -5.0319  -21.4441  -53.5479 H         1 UNK         0.3800 
    244 H244       -2.8355  -19.0829  -50.3327 H         1 UNK         0.0800 
    245 H245       -4.4781  -18.5889  -50.0619 H         1 UNK         0.0800 
    246 H246       -2.7756  -15.1622  -49.7272 H         1 UNK         0.0800 
    247 H247       -3.0873  -16.6597  -48.8873 H         1 UNK         0.0800 
@<TRIPOS>BOND
     1    1    2 1    
     2    1  127 1    
     3    1  128 1    
     4    1  129 1    
     5    2    3 2    
     6    2    4 am   BACKBONE|DICT|INTERRES
     7    4    5 1    
     8    4  130 1    
     9    5    6 1    
    10    5   65 1    
    11    5  131 1    
    12    6    7 1    
    13    6  132 1    
    14    6  133 1    
    15    7    8 1    
    16    8    9 1    
    17    8  134 1    
    18    8  135 1    
    19    9   10 ar   
    20    9   14 ar   
    21   10   11 ar   
    22   10  136 1    
    23   11   12 ar   
    24   11  126 1    
    25   12   13 ar   
    26   12  137 1    
    27   13   14 ar   
    28   13   15 1    
    29   14  138 1    
    30   15   16 1    
    31   15  139 1    
    32   15  140 1    
    33   16   17 1    
    34   17   18 1    
    35   17  141 1    
    36   17  142 1    
    37   18   19 1    
    38   18   67 1    
    39   18  143 1    
    40   19   20 am   BACKBONE|DICT|INTERRES
    41   19  144 1    
    42   20   21 2    
    43   20   22 1    
    44   22   23 1    
    45   22   24 1    
    46   22  145 1    
    47   23  146 1    
    48   23  147 1    
    49   23  148 1    
    50   24   25 am   BACKBONE|DICT|INTERRES
    51   24  149 1    
    52   25   26 2    
    53   25   27 1    
    54   27   28 1    
    55   27   29 1    
    56   27  150 1    
    57   28  151 1    
    58   28  152 1    
    59   28  153 1    
    60   29   30 am   BACKBONE|DICT|INTERRES
    61   29  154 1    
    62   30   31 2    
    63   30   32 1    
    64   32   33 1    
    65   32   34 1    
    66   32  155 1    
    67   33  156 1    
    68   33  157 1    
    69   33  158 1    
    70   34   35 am   BACKBONE|DICT|INTERRES
    71   34  159 1    
    72   35   36 2    
    73   35   37 1    
    74   37   38 1    
    75   37   39 1    
    76   37  160 1    
    77   38  161 1    
    78   38  162 1    
    79   38  163 1    
    80   39   40 am   BACKBONE|DICT|INTERRES
    81   39  164 1    
    82   40   41 2    
    83   40   42 1    
    84   42   43 1    
    85   42   44 1    
    86   42  165 1    
    87   43  166 1    
    88   43  167 1    
    89   43  168 1    
    90   44   45 am   BACKBONE|DICT|INTERRES
    91   44  169 1    
    92   45   46 2    
    93   45   47 1    
    94   47   48 1    
    95   47   49 1    
    96   47  170 1    
    97   48  171 1    
    98   48  172 1    
    99   48  173 1    
   100   49   50 am   BACKBONE|DICT|INTERRES
   101   49  174 1    
   102   50   51 2    
   103   50   52 1    
   104   52   53 1    
   105   52   54 1    
   106   52  175 1    
   107   53  176 1    
   108   53  177 1    
   109   53  178 1    
   110   54   55 am   BACKBONE|DICT|INTERRES
   111   54  179 1    
   112   55   56 2    
   113   55   57 1    
   114   57   58 1    
   115   57   59 1    
   116   57  180 1    
   117   58  181 1    
   118   58  182 1    
   119   58  183 1    
   120   59   60 am   BACKBONE|DICT|INTERRES
   121   59  184 1    
   122   60   61 2    
   123   60   62 1    
   124   62   63 1    
   125   62   64 1    
   126   62  185 1    
   127   63  186 1    
   128   63  187 1    
   129   63  188 1    
   130   64   65 am   BACKBONE|DICT|INTERRES
   131   64  189 1    
   132   65   66 2    
   133   67   68 2    
   134   67   69 am   BACKBONE|DICT|INTERRES
   135   69   70 1    
   136   69  190 1    
   137   70   71 1    
   138   70   72 1    
   139   70  191 1    
   140   71  192 1    
   141   71  193 1    
   142   71  194 1    
   143   72   73 2    
   144   72   74 am   BACKBONE|DICT|INTERRES
   145   74   75 1    
   146   74  195 1    
   147   75   76 1    
   148   75   77 1    
   149   75  196 1    
   150   76  197 1    
   151   76  198 1    
   152   76  199 1    
   153   77   78 2    
   154   77   79 am   BACKBONE|DICT|INTERRES
   155   79   80 1    
   156   79  200 1    
   157   80   81 1    
   158   80   82 1    
   159   80  201 1    
   160   81  202 1    
   161   81  203 1    
   162   81  204 1    
   163   82   83 2    
   164   82   84 am   BACKBONE|DICT|INTERRES
   165   84   85 1    
   166   84  205 1    
   167   85   86 1    
   168   85   87 1    
   169   85  206 1    
   170   86  207 1    
   171   86  208 1    
   172   86  209 1    
   173   87   88 2    
   174   87   89 am   BACKBONE|DICT|INTERRES
   175   89   90 1    
   176   89  210 1    
   177   90   91 1    
   178   90   92 1    
   179   90  211 1    
   180   91  212 1    
   181   91  213 1    
   182   91  214 1    
   183   92   93 2    
   184   92   94 am   BACKBONE|DICT|INTERRES
   185   94   95 1    
   186   94  215 1    
   187   95   96 1    
   188   95   97 1    
   189   95  216 1    
   190   96  217 1    
   191   96  218 1    
   192   96  219 1    
   193   97   98 2    
   194   97   99 am   BACKBONE|DICT|INTERRES
   195   99  100 1    
   196   99  220 1    
   197  100  101 1    
   198  100  102 1    
   199  100  221 1    
   200  101  222 1    
   201  101  223 1    
   202  101  224 1    
   203  102  103 2    
   204  102  104 am   BACKBONE|DICT|INTERRES
   205  104  105 1    
   206  104  225 1    
   207  105  106 1    
   208  105  107 1    
   209  105  226 1    
   210  106  227 1    
   211  106  228 1    
   212  106  229 1    
   213  107  108 2    
   214  107  109 am   BACKBONE|DICT|INTERRES
   215  109  110 1    
   216  109  230 1    
   217  110  111 1    
   218  110  112 1    
   219  110  231 1    
   220  111  232 1    
   221  111  233 1    
   222  111  234 1    
   223  112  113 2    
   224  112  114 am   BACKBONE|DICT|INTERRES
   225  114  115 1    
   226  114  235 1    
   227  115  116 1    
   228  115  117 1    
   229  115  236 1    
   230  116  237 1    
   231  116  238 1    
   232  116  239 1    
   233  117  118 2    
   234  117  119 am   BACKBONE|DICT|INTERRES
   235  119  120 1    
   236  119  240 1    
   237  120  121 1    
   238  120  124 1    
   239  120  241 1    
   240  121  122 am   BACKBONE|DICT|INTERRES
   241  121  123 2    
   242  122  242 1    
   243  122  243 1    
   244  124  125 1    
   245  124  244 1    
   246  124  245 1    
   247  125  126 1    
   248  126  246 1    
   249  126  247 1    
@<TRIPOS>SUBSTRUCTURE
     1 UNK         1 GROUP             0       ****    0 ROOT    
