@<TRIPOS>MOLECULE
3R540
247   249    1
SMALL
USER_CHARGES


@<TRIPOS>ATOM
      1 CA          2.8898  -15.4082  -53.2202 C.3       0 UNK        -0.1800 
      2 C           3.3085  -14.1853  -52.4161 C.2       0 UNK         0.5000 
      3 O           3.1593  -13.0580  -52.8872 O.2       0 UNK        -0.5000 
      4 N           3.8401  -14.4119  -51.2084 N.am      1 UNK        -0.5000 
      5 CA          4.2449  -13.3893  -50.2369 C.3       1 UNK         0.1400 
      6 C6          5.0812  -13.9814  -49.0672 C.3       23 UNK        -0.0398 
      7 S7          4.4091  -15.5340  -48.3612 S.3       23 UNK        -0.2404 
      8 C8          5.4606  -16.7782  -49.1785 C.3       23 UNK        -0.0205 
      9 C9          4.7012  -18.0691  -49.4437 C.ar      23 UNK        -0.0193 
     10 C10         3.6929  -18.0940  -50.4107 C.ar      23 UNK        -0.1150 
     11 C11         2.9928  -19.2699  -50.6857 C.ar      23 UNK        -0.0193 
     12 C12         3.3321  -20.4409  -50.0039 C.ar      23 UNK        -0.1150 
     13 C13         4.3381  -20.4342  -49.0316 C.ar      23 UNK        -0.0193 
     14 C14         5.0155  -19.2426  -48.7510 C.ar      23 UNK        -0.1150 
     15 C15         4.7054  -21.7180  -48.2991 C.3       23 UNK        -0.0205 
     16 S16         3.8226  -21.8821  -46.7147 S.3       23 UNK        -0.2404 
     17 C17         2.0983  -22.0715  -47.2758 C.3       23 UNK        -0.0398 
     18 CA          1.3025  -23.1339  -46.4864 C.3       11 UNK         0.1400 
     19 N           1.2576  -22.8506  -45.0503 N.am      11 UNK        -0.5000 
     20 C           0.8410  -23.6940  -44.0976 C.2       10 UNK         0.5000 
     21 O           0.5012  -24.8550  -44.3287 O.2       10 UNK        -0.5000 
     22 CA          0.7207  -23.1237  -42.6678 C.3       10 UNK         0.1400 
     23 CB          1.0031  -24.1767  -41.5767 C.3       10 UNK        -0.1800 
     24 N           1.5031  -21.8999  -42.4546 N.am      10 UNK        -0.5000 
     25 C           2.8387  -21.7665  -42.4426 C.2       9 UNK         0.5000 
     26 O           3.6220  -22.7098  -42.5562 O.2       9 UNK        -0.5000 
     27 CA          3.4067  -20.3380  -42.3029 C.3       9 UNK         0.1400 
     28 CB          4.1113  -19.9123  -43.6005 C.3       9 UNK        -0.1800 
     29 N           2.3967  -19.3306  -41.9721 N.am      9 UNK        -0.5000 
     30 C           1.8473  -19.1552  -40.7636 C.2       8 UNK         0.5000 
     31 O           2.1671  -19.8030  -39.7665 O.2       8 UNK        -0.5000 
     32 CA          0.7267  -18.1022  -40.6614 C.3       8 UNK         0.1400 
     33 CB          1.3177  -16.7005  -40.4485 C.3       8 UNK        -0.1800 
     34 N          -0.1632  -18.0868  -41.8267 N.am      8 UNK        -0.5000 
     35 C          -0.9541  -19.1050  -42.1963 C.2       7 UNK         0.5000 
     36 O          -1.0181  -20.1750  -41.5910 O.2       7 UNK        -0.5000 
     37 CA         -1.7760  -18.9216  -43.4845 C.3       7 UNK         0.1400 
     38 CB         -3.0031  -18.0306  -43.2443 C.3       7 UNK        -0.1800 
     39 N          -0.9764  -18.3848  -44.5847 N.am      7 UNK        -0.5000 
     40 C           0.0402  -19.0371  -45.1642 C.2       6 UNK         0.5000 
     41 O           0.3477  -20.1951  -44.8858 O.2       6 UNK        -0.5000 
     42 CA          0.8764  -18.2654  -46.1999 C.3       6 UNK         0.1400 
     43 CB          0.2196  -18.3253  -47.5842 C.3       6 UNK        -0.1800 
     44 N           1.0978  -16.8698  -45.8239 N.am      6 UNK        -0.5000 
     45 C           1.7693  -16.4735  -44.7338 C.2       5 UNK         0.5000 
     46 O           2.3142  -17.2455  -43.9467 O.2       5 UNK        -0.5000 
     47 CA          1.7748  -14.9662  -44.4328 C.3       5 UNK         0.1400 
     48 CB          2.8097  -14.2272  -45.2929 C.3       5 UNK        -0.1800 
     49 N           0.4518  -14.3718  -44.6205 N.am      5 UNK        -0.5000 
     50 C          -0.6055  -14.6258  -43.8362 C.2       4 UNK         0.5000 
     51 O          -0.5633  -15.3551  -42.8460 O.2       4 UNK        -0.5000 
     52 CA         -1.9431  -13.9879  -44.2521 C.3       4 UNK         0.1400 
     53 CB         -2.0455  -12.5502  -43.7219 C.3       4 UNK        -0.1800 
     54 N          -2.1358  -13.9852  -45.7027 N.am      4 UNK        -0.5000 
     55 C          -2.3038  -15.0882  -46.4466 C.2       3 UNK         0.5000 
     56 O          -2.3475  -16.2255  -45.9809 O.2       3 UNK        -0.5000 
     57 CA         -2.3820  -14.8822  -47.9708 C.3       3 UNK         0.1400 
     58 CB         -3.8102  -14.5086  -48.3919 C.3       3 UNK        -0.1800 
     59 N          -1.4468  -13.8590  -48.4473 N.am      3 UNK        -0.5000 
     60 C          -0.1158  -13.9700  -48.3625 C.2       2 UNK         0.5000 
     61 O           0.4598  -14.9529  -47.8889 O.2       2 UNK        -0.5000 
     62 CA          0.7102  -12.7631  -48.8204 C.3       2 UNK         0.1400 
     63 CB          0.8335  -11.7467  -47.6655 C.3       2 UNK        -0.1800 
     64 N           2.0137  -13.2639  -49.2434 N.am      2 UNK        -0.5000 
     65 C           3.0363  -12.5644  -49.7452 C.2       1 UNK         0.5000 
     66 O           3.0407  -11.3394  -49.8754 O.2       1 UNK        -0.5000 
     67 C          -0.1166  -23.2452  -47.0757 C.2       11 UNK         0.5000 
     68 O          -0.3169  -23.9862  -48.0365 O.2       11 UNK        -0.5000 
     69 N          -1.0848  -22.5418  -46.4694 N.am      12 UNK        -0.5000 
     70 CA         -2.5071  -22.5531  -46.8236 C.3       12 UNK         0.1400 
     71 CB         -3.2429  -21.5484  -45.9266 C.3       12 UNK        -0.1800 
     72 C          -3.1782  -23.9409  -46.7363 C.2       12 UNK         0.5000 
     73 O          -4.2147  -24.1437  -47.3655 O.2       12 UNK        -0.5000 
     74 N          -2.5796  -24.8730  -45.9801 N.am      13 UNK        -0.5000 
     75 CA         -3.0003  -26.2727  -45.9112 C.3       13 UNK         0.1400 
     76 CB         -2.3849  -26.9201  -44.6613 C.3       13 UNK        -0.1800 
     77 C          -2.6225  -27.0722  -47.1753 C.2       13 UNK         0.5000 
     78 O          -3.3287  -28.0207  -47.5192 O.2       13 UNK        -0.5000 
     79 N          -1.5234  -26.6843  -47.8378 N.am      14 UNK        -0.5000 
     80 CA         -1.0553  -27.2732  -49.0930 C.3       14 UNK         0.1400 
     81 CB          0.4817  -27.2565  -49.1192 C.3       14 UNK        -0.1800 
     82 C          -1.6295  -26.5188  -50.3042 C.2       14 UNK         0.5000 
     83 O          -2.0315  -27.1521  -51.2812 O.2       14 UNK        -0.5000 
     84 N          -1.6619  -25.1834  -50.2077 N.am      15 UNK        -0.5000 
     85 CA         -2.2856  -24.2688  -51.1586 C.3       15 UNK         0.1400 
     86 CB         -1.4652  -22.9622  -51.1814 C.3       15 UNK        -0.1800 
     87 C          -3.7735  -24.0809  -50.7883 C.2       15 UNK         0.5000 
     88 O          -4.4951  -25.0729  -50.6661 O.2       15 UNK        -0.5000 
     89 N          -4.2158  -22.8306  -50.6139 N.am      16 UNK        -0.5000 
     90 CA         -5.5596  -22.4854  -50.1518 C.3       16 UNK         0.1400 
     91 CB         -6.5302  -22.4266  -51.3413 C.3       16 UNK        -0.1800 
     92 C          -5.5510  -21.1520  -49.3947 C.2       16 UNK         0.5000 
     93 O          -6.1852  -21.0441  -48.3454 O.2       16 UNK        -0.5000 
     94 N          -4.8441  -20.1582  -49.9514 N.am      17 UNK        -0.5000 
     95 CA         -4.6435  -18.7798  -49.4906 C.3       17 UNK         0.1400 
     96 CB         -3.9345  -18.7401  -48.1251 C.3       17 UNK        -0.1800 
     97 C          -5.9074  -17.8968  -49.4947 C.2       17 UNK         0.5000 
     98 O          -5.8372  -16.7486  -49.9310 O.2       17 UNK        -0.5000 
     99 N          -7.0285  -18.4322  -48.9991 N.am      18 UNK        -0.5000 
    100 CA        -8.2752  -17.7120  -48.7477 C.3       18 UNK         0.1400 
    101 CB        -9.2289  -18.6194  -47.9547 C.3       18 UNK        -0.1800 
    102 C         -8.9674  -17.1686  -50.0107 C.2       18 UNK         0.5000 
    103 O         -9.3768  -16.0063  -50.0154 O.2       18 UNK        -0.5000 
    104 N         -9.1141  -18.0129  -51.0414 N.am      19 UNK        -0.5000 
    105 CA        -9.9012  -17.6996  -52.2397 C.3       19 UNK         0.1400 
    106 CB       -11.4078  -17.8305  -51.9252 C.3       19 UNK        -0.1800 
    107 C         -9.4891  -18.5384  -53.4648 C.2       19 UNK         0.5000 
    108 O        -10.3061  -18.7336  -54.3669 O.2       19 UNK        -0.5000 
    109 N         -8.2420  -19.0228  -53.4945 N.am      20 UNK        -0.5000 
    110 CA        -7.6834  -19.7988  -54.6011 C.3       20 UNK         0.1400 
    111 CB        -8.2029  -21.2549  -54.5736 C.3       20 UNK        -0.1800 
    112 C         -6.1528  -19.6518  -54.5924 C.2       20 UNK         0.5000 
    113 O         -5.6659  -18.5224  -54.5023 O.2       20 UNK        -0.5000 
    114 N         -5.4233  -20.7725  -54.6933 N.am      21 UNK        -0.5000 
    115 CA        -3.9608  -20.8597  -54.7220 C.3       21 UNK         0.1400 
    116 CB        -3.5512  -22.3410  -54.7149 C.3       21 UNK        -0.1800 
    117 C         -3.2995  -20.1213  -53.5456 C.2       21 UNK         0.5000 
    118 O         -3.6200  -20.4181  -52.3934 O.2       21 UNK        -0.5000 
    119 N         -2.4068  -19.1755  -53.8589 N.am      22 UNK        -0.5000 
    120 CA        -1.7413  -18.2683  -52.9064 C.3       22 UNK         0.1400 
    121 C         -2.6507  -17.1248  -52.3500 C.2       22 UNK         0.5000 
    122 N         -3.8944  -16.9748  -52.7900 N.am      22 UNK        -0.7600 
    123 O         -2.2202  -16.3362  -51.5148 O.2       22 UNK        -0.5000 
    124 C124       -0.9793  -19.0396  -51.7883 C.3       23 UNK        -0.0398 
    125 S125        0.5114  -18.1731  -51.1942 S.3       23 UNK        -0.2404 
    126 C126        1.8700  -19.2715  -51.7134 C.3       23 UNK        -0.0205 
    127 H127        1.9146  -15.7636  -52.8866 H         1 UNK         0.0600 
    128 H128        3.6114  -16.2177  -53.1105 H         1 UNK         0.0600 
    129 H129        2.8200  -15.1651  -54.2806 H         1 UNK         0.0600 
    130 H130        3.9206  -15.3600  -50.8742 H         1 UNK         0.3000 
    131 H131        4.8952  -12.6906  -50.7680 H         1 UNK         0.0600 
    132 H132        6.0994  -14.1655  -49.4120 H         1 UNK         0.0800 
    133 H133        5.1869  -13.2537  -48.2604 H         1 UNK         0.0800 
    134 H134        6.3391  -16.9621  -48.5582 H         1 UNK         0.0800 
    135 H135        5.8331  -16.3974  -50.1303 H         1 UNK         0.0800 
    136 H136        3.4324  -17.1925  -50.9414 H         1 UNK         0.1150 
    137 H137        2.8095  -21.3585  -50.2314 H         1 UNK         0.1150 
    138 H138        5.7940  -19.2338  -48.0011 H         1 UNK         0.1150 
    139 H139        4.5008  -22.5883  -48.9247 H         1 UNK         0.0800 
    140 H140        5.7788  -21.7330  -48.1045 H         1 UNK         0.0800 
    141 H141        2.1017  -22.3481  -48.3300 H         1 UNK         0.0800 
    142 H142        1.6176  -21.0949  -47.2161 H         1 UNK         0.0800 
    143 H143        1.7908  -24.1011  -46.6231 H         1 UNK         0.0600 
    144 H144        1.4238  -21.8855  -44.7870 H         1 UNK         0.3000 
    145 H145       -0.3221  -22.8220  -42.5616 H         1 UNK         0.0600 
    146 H146        0.9126  -23.7453  -40.5798 H         1 UNK         0.0600 
    147 H147        0.2921  -25.0015  -41.6378 H         1 UNK         0.0600 
    148 H148        2.0019  -24.6033  -41.6703 H         1 UNK         0.0600 
    149 H149        0.9523  -21.0564  -42.3551 H         1 UNK         0.3000 
    150 H150        4.1499  -20.3607  -41.5035 H         1 UNK         0.0600 
    151 H151        4.8879  -20.6245  -43.8822 H         1 UNK         0.0600 
    152 H152        4.5891  -18.9389  -43.4892 H         1 UNK         0.0600 
    153 H153        3.4086  -19.8456  -44.4319 H         1 UNK         0.0600 
    154 H154        2.1307  -18.6982  -42.7233 H         1 UNK         0.3000 
    155 H155        0.1215  -18.3503  -39.7871 H         1 UNK         0.0600 
    156 H156        1.9708  -16.6793  -39.5752 H         1 UNK         0.0600 
    157 H157        0.5322  -15.9625  -40.2850 H         1 UNK         0.0600 
    158 H158        1.9061  -16.3775  -41.3076 H         1 UNK         0.0600 
    159 H159       -0.1921  -17.2235  -42.3617 H         1 UNK         0.3000 
    160 H160       -2.1346  -19.9079  -43.7807 H         1 UNK         0.0600 
    161 H161       -2.7189  -17.0145  -42.9715 H         1 UNK         0.0600 
    162 H162       -3.6219  -18.4270  -42.4385 H         1 UNK         0.0600 
    163 H163       -3.6272  -17.9745  -44.1366 H         1 UNK         0.0600 
    164 H164       -1.2272  -17.4621  -44.9264 H         1 UNK         0.3000 
    165 H165        1.8533  -18.7492  -46.2656 H         1 UNK         0.0600 
    166 H166        0.8544  -17.8426  -48.3266 H         1 UNK         0.0600 
    167 H167        0.0611  -19.3544  -47.9078 H         1 UNK         0.0600 
    168 H168       -0.7481  -17.8235  -47.5965 H         1 UNK         0.0600 
    169 H169        0.7226  -16.1654  -46.4539 H         1 UNK         0.3000 
    170 H170        2.0583  -14.8388  -43.3859 H         1 UNK         0.0600 
    171 H171        3.8019  -14.6631  -45.1692 H         1 UNK         0.0600 
    172 H172        2.5628  -14.2761  -46.3528 H         1 UNK         0.0600 
    173 H173        2.8790  -13.1766  -45.0116 H         1 UNK         0.0600 
    174 H174        0.3205  -13.8012  -45.4408 H         1 UNK         0.3000 
    175 H175       -2.7466  -14.5759  -43.8035 H         1 UNK         0.0600 
    176 H176       -1.9212  -12.5248  -42.6385 H         1 UNK         0.0600 
    177 H177       -1.2814  -11.9036  -44.1554 H         1 UNK         0.0600 
    178 H178       -3.0200  -12.1159  -43.9461 H         1 UNK         0.0600 
    179 H179       -2.1161  -13.0889  -46.1656 H         1 UNK         0.3000 
    180 H180       -2.1207  -15.8285  -48.4498 H         1 UNK         0.0600 
    181 H181       -4.5309  -15.2349  -48.0142 H         1 UNK         0.0600 
    182 H182       -4.1033  -13.5293  -48.0121 H         1 UNK         0.0600 
    183 H183       -3.9071  -14.4938  -49.4779 H         1 UNK         0.0600 
    184 H184       -1.8517  -13.0259  -48.8492 H         1 UNK         0.3000 
    185 H185        0.2187  -12.2981  -49.6769 H         1 UNK         0.0600 
    186 H186       -0.1472  -11.4708  -47.2763 H         1 UNK         0.0600 
    187 H187        1.4151  -12.1464  -46.8356 H         1 UNK         0.0600 
    188 H188        1.3110  -10.8230  -47.9905 H         1 UNK         0.0600 
    189 H189        2.1077  -14.2684  -49.1448 H         1 UNK         0.3000 
    190 H190       -0.8129  -21.9369  -45.7043 H         1 UNK         0.3000 
    191 H191       -2.5922  -22.2158  -47.8585 H         1 UNK         0.0600 
    192 H192       -3.1948  -21.8391  -44.8766 H         1 UNK         0.0600 
    193 H193       -4.2968  -21.4791  -46.1999 H         1 UNK         0.0600 
    194 H194       -2.8175  -20.5496  -46.0208 H         1 UNK         0.0600 
    195 H195       -1.7325  -24.6307  -45.4853 H         1 UNK         0.3000 
    196 H196       -4.0873  -26.3042  -45.8091 H         1 UNK         0.0600 
    197 H197       -2.7187  -27.9528  -44.5528 H         1 UNK         0.0600 
    198 H198       -2.6760  -26.3876  -43.7557 H         1 UNK         0.0600 
    199 H199       -1.2954  -26.9314  -44.7085 H         1 UNK         0.0600 
    200 H200       -1.0291  -25.8598  -47.5209 H         1 UNK         0.3000 
    201 H201       -1.3798  -28.3140  -49.1576 H         1 UNK         0.0600 
    202 H202        0.8948  -27.8247  -48.2856 H         1 UNK         0.0600 
    203 H203        0.8793  -26.2426  -49.0622 H         1 UNK         0.0600 
    204 H204        0.8599  -27.7058  -50.0383 H         1 UNK         0.0600 
    205 H205       -1.2686  -24.7547  -49.3736 H         1 UNK         0.3000 
    206 H206       -2.2524  -24.7034  -52.1596 H         1 UNK         0.0600 
    207 H207       -0.4167  -23.1661  -51.3995 H         1 UNK         0.0600 
    208 H208       -1.8206  -22.2890  -51.9598 H         1 UNK         0.0600 
    209 H209       -1.5020  -22.4337  -50.2278 H         1 UNK         0.0600 
    210 H210       -3.5829  -22.0568  -50.7653 H         1 UNK         0.3000 
    211 H211       -5.9072  -23.2481  -49.4514 H         1 UNK         0.0600 
    212 H212       -7.5331  -22.1456  -51.0177 H         1 UNK         0.0600 
    213 H213       -6.6067  -23.3930  -51.8396 H         1 UNK         0.0600 
    214 H214       -6.2012  -21.6945  -52.0781 H         1 UNK         0.0600 
    215 H215       -4.4319  -20.3336  -50.8685 H         1 UNK         0.3000 
    216 H216       -3.9600  -18.3362  -50.2112 H         1 UNK         0.0600 
    217 H217       -3.7059  -17.7144  -47.8377 H         1 UNK         0.0600 
    218 H218       -2.9910  -19.2849  -48.1559 H         1 UNK         0.0600 
    219 H219       -4.5487  -19.1666  -47.3323 H         1 UNK         0.0600 
    220 H220       -6.9677  -19.3872  -48.6549 H         1 UNK         0.3000 
    221 H221       -8.0316  -16.8540  -48.1175 H         1 UNK         0.0600 
    222 H222       -9.4695  -19.5305  -48.5039 H         1 UNK         0.0600 
    223 H223       -8.7913  -18.9111  -46.9997 H         1 UNK         0.0600 
    224 H224      -10.1677  -18.1077  -47.7384 H         1 UNK         0.0600 
    225 H225       -8.7634  -18.9566  -50.9599 H         1 UNK         0.3000 
    226 H226       -9.7035  -16.6637  -52.5228 H         1 UNK         0.0600 
    227 H227      -11.7054  -17.1776  -51.1048 H         1 UNK         0.0600 
    228 H228      -12.0196  -17.5536  -52.7846 H         1 UNK         0.0600 
    229 H229      -11.6687  -18.8529  -51.6497 H         1 UNK         0.0600 
    230 H230       -7.5835  -18.7426  -52.7810 H         1 UNK         0.3000 
    231 H231       -8.0101  -19.3463  -55.5397 H         1 UNK         0.0600 
    232 H232       -9.2883  -21.2854  -54.6679 H         1 UNK         0.0600 
    233 H233       -7.9456  -21.7646  -53.6472 H         1 UNK         0.0600 
    234 H234       -7.8047  -21.8385  -55.4043 H         1 UNK         0.0600 
    235 H235       -5.9161  -21.6513  -54.7468 H         1 UNK         0.3000 
    236 H236       -3.6228  -20.4118  -55.6584 H         1 UNK         0.0600 
    237 H237       -2.4658  -22.4481  -54.7322 H         1 UNK         0.0600 
    238 H238       -3.9174  -22.8546  -53.8248 H         1 UNK         0.0600 
    239 H239       -3.9422  -22.8636  -55.5880 H         1 UNK         0.0600 
    240 H240       -2.2219  -18.9863  -54.8337 H         1 UNK         0.3000 
    241 H241       -0.9967  -17.7533  -53.5144 H         1 UNK         0.0600 
    242 H242       -4.3073  -17.6002  -53.4748 H         1 UNK         0.3800 
    243 H243       -4.4551  -16.2343  -52.4003 H         1 UNK         0.3800 
    244 H244       -1.6310  -19.2327  -50.9346 H         1 UNK         0.0800 
    245 H245       -0.6840  -20.0232  -52.1521 H         1 UNK         0.0800 
    246 H246        1.5042  -20.2882  -51.8605 H         1 UNK         0.0800 
    247 H247        2.2546  -18.9372  -52.6778 H         1 UNK         0.0800 
@<TRIPOS>BOND
     1    1    2 1    
     2    1  127 1    
     3    1  128 1    
     4    1  129 1    
     5    2    3 2    
     6    2    4 am   BACKBONE|DICT|INTERRES
     7    4    5 1    
     8    4  130 1    
     9    5    6 1    
    10    5   65 1    
    11    5  131 1    
    12    6    7 1    
    13    6  132 1    
    14    6  133 1    
    15    7    8 1    
    16    8    9 1    
    17    8  134 1    
    18    8  135 1    
    19    9   10 ar   
    20    9   14 ar   
    21   10   11 ar   
    22   10  136 1    
    23   11   12 ar   
    24   11  126 1    
    25   12   13 ar   
    26   12  137 1    
    27   13   14 ar   
    28   13   15 1    
    29   14  138 1    
    30   15   16 1    
    31   15  139 1    
    32   15  140 1    
    33   16   17 1    
    34   17   18 1    
    35   17  141 1    
    36   17  142 1    
    37   18   19 1    
    38   18   67 1    
    39   18  143 1    
    40   19   20 am   BACKBONE|DICT|INTERRES
    41   19  144 1    
    42   20   21 2    
    43   20   22 1    
    44   22   23 1    
    45   22   24 1    
    46   22  145 1    
    47   23  146 1    
    48   23  147 1    
    49   23  148 1    
    50   24   25 am   BACKBONE|DICT|INTERRES
    51   24  149 1    
    52   25   26 2    
    53   25   27 1    
    54   27   28 1    
    55   27   29 1    
    56   27  150 1    
    57   28  151 1    
    58   28  152 1    
    59   28  153 1    
    60   29   30 am   BACKBONE|DICT|INTERRES
    61   29  154 1    
    62   30   31 2    
    63   30   32 1    
    64   32   33 1    
    65   32   34 1    
    66   32  155 1    
    67   33  156 1    
    68   33  157 1    
    69   33  158 1    
    70   34   35 am   BACKBONE|DICT|INTERRES
    71   34  159 1    
    72   35   36 2    
    73   35   37 1    
    74   37   38 1    
    75   37   39 1    
    76   37  160 1    
    77   38  161 1    
    78   38  162 1    
    79   38  163 1    
    80   39   40 am   BACKBONE|DICT|INTERRES
    81   39  164 1    
    82   40   41 2    
    83   40   42 1    
    84   42   43 1    
    85   42   44 1    
    86   42  165 1    
    87   43  166 1    
    88   43  167 1    
    89   43  168 1    
    90   44   45 am   BACKBONE|DICT|INTERRES
    91   44  169 1    
    92   45   46 2    
    93   45   47 1    
    94   47   48 1    
    95   47   49 1    
    96   47  170 1    
    97   48  171 1    
    98   48  172 1    
    99   48  173 1    
   100   49   50 am   BACKBONE|DICT|INTERRES
   101   49  174 1    
   102   50   51 2    
   103   50   52 1    
   104   52   53 1    
   105   52   54 1    
   106   52  175 1    
   107   53  176 1    
   108   53  177 1    
   109   53  178 1    
   110   54   55 am   BACKBONE|DICT|INTERRES
   111   54  179 1    
   112   55   56 2    
   113   55   57 1    
   114   57   58 1    
   115   57   59 1    
   116   57  180 1    
   117   58  181 1    
   118   58  182 1    
   119   58  183 1    
   120   59   60 am   BACKBONE|DICT|INTERRES
   121   59  184 1    
   122   60   61 2    
   123   60   62 1    
   124   62   63 1    
   125   62   64 1    
   126   62  185 1    
   127   63  186 1    
   128   63  187 1    
   129   63  188 1    
   130   64   65 am   BACKBONE|DICT|INTERRES
   131   64  189 1    
   132   65   66 2    
   133   67   68 2    
   134   67   69 am   BACKBONE|DICT|INTERRES
   135   69   70 1    
   136   69  190 1    
   137   70   71 1    
   138   70   72 1    
   139   70  191 1    
   140   71  192 1    
   141   71  193 1    
   142   71  194 1    
   143   72   73 2    
   144   72   74 am   BACKBONE|DICT|INTERRES
   145   74   75 1    
   146   74  195 1    
   147   75   76 1    
   148   75   77 1    
   149   75  196 1    
   150   76  197 1    
   151   76  198 1    
   152   76  199 1    
   153   77   78 2    
   154   77   79 am   BACKBONE|DICT|INTERRES
   155   79   80 1    
   156   79  200 1    
   157   80   81 1    
   158   80   82 1    
   159   80  201 1    
   160   81  202 1    
   161   81  203 1    
   162   81  204 1    
   163   82   83 2    
   164   82   84 am   BACKBONE|DICT|INTERRES
   165   84   85 1    
   166   84  205 1    
   167   85   86 1    
   168   85   87 1    
   169   85  206 1    
   170   86  207 1    
   171   86  208 1    
   172   86  209 1    
   173   87   88 2    
   174   87   89 am   BACKBONE|DICT|INTERRES
   175   89   90 1    
   176   89  210 1    
   177   90   91 1    
   178   90   92 1    
   179   90  211 1    
   180   91  212 1    
   181   91  213 1    
   182   91  214 1    
   183   92   93 2    
   184   92   94 am   BACKBONE|DICT|INTERRES
   185   94   95 1    
   186   94  215 1    
   187   95   96 1    
   188   95   97 1    
   189   95  216 1    
   190   96  217 1    
   191   96  218 1    
   192   96  219 1    
   193   97   98 2    
   194   97   99 am   BACKBONE|DICT|INTERRES
   195   99  100 1    
   196   99  220 1    
   197  100  101 1    
   198  100  102 1    
   199  100  221 1    
   200  101  222 1    
   201  101  223 1    
   202  101  224 1    
   203  102  103 2    
   204  102  104 am   BACKBONE|DICT|INTERRES
   205  104  105 1    
   206  104  225 1    
   207  105  106 1    
   208  105  107 1    
   209  105  226 1    
   210  106  227 1    
   211  106  228 1    
   212  106  229 1    
   213  107  108 2    
   214  107  109 am   BACKBONE|DICT|INTERRES
   215  109  110 1    
   216  109  230 1    
   217  110  111 1    
   218  110  112 1    
   219  110  231 1    
   220  111  232 1    
   221  111  233 1    
   222  111  234 1    
   223  112  113 2    
   224  112  114 am   BACKBONE|DICT|INTERRES
   225  114  115 1    
   226  114  235 1    
   227  115  116 1    
   228  115  117 1    
   229  115  236 1    
   230  116  237 1    
   231  116  238 1    
   232  116  239 1    
   233  117  118 2    
   234  117  119 am   BACKBONE|DICT|INTERRES
   235  119  120 1    
   236  119  240 1    
   237  120  121 1    
   238  120  124 1    
   239  120  241 1    
   240  121  122 am   BACKBONE|DICT|INTERRES
   241  121  123 2    
   242  122  242 1    
   243  122  243 1    
   244  124  125 1    
   245  124  244 1    
   246  124  245 1    
   247  125  126 1    
   248  126  246 1    
   249  126  247 1    
@<TRIPOS>SUBSTRUCTURE
     1 UNK         1 GROUP             0       ****    0 ROOT    
