@<TRIPOS>MOLECULE
3R540
247   249    1
SMALL
USER_CHARGES


@<TRIPOS>ATOM
      1 CA          0.7742  -11.8235  -50.3917 C.3       0 UNK        -0.1800 
      2 C           0.6395  -12.4210  -48.9994 C.2       0 UNK         0.5000 
      3 O           1.6486  -12.7146  -48.3594 O.2       0 UNK        -0.5000 
      4 N          -0.5997  -12.5862  -48.5166 N.am      1 UNK        -0.5000 
      5 CA         -0.9280  -13.1709  -47.2094 C.3       1 UNK         0.1400 
      6 C6         -2.4583  -13.3558  -47.0457 C.3       23 UNK        -0.0398 
      7 S7         -2.8945  -14.4358  -45.6413 S.3       23 UNK        -0.2404 
      8 C8         -3.9350  -15.7324  -46.3964 C.3       23 UNK        -0.0205 
      9 C9         -3.2676  -16.6376  -47.4342 C.ar      23 UNK        -0.0193 
     10 C10        -4.0984  -17.3412  -48.3109 C.ar      23 UNK        -0.1150 
     11 C11        -3.5658  -18.1923  -49.2801 C.ar      23 UNK        -0.0193 
     12 C12        -2.1797  -18.3310  -49.3789 C.ar      23 UNK        -0.1150 
     13 C13        -1.3281  -17.6381  -48.5163 C.ar      23 UNK        -0.0193 
     14 C14        -1.8788  -16.8093  -47.5310 C.ar      23 UNK        -0.1150 
     15 C15         0.1842  -17.7422  -48.6865 C.3       23 UNK        -0.0205 
     16 S16         0.8129  -19.4556  -48.7198 S.3       23 UNK        -0.2404 
     17 C17         0.5472  -19.9529  -46.9911 C.3       23 UNK        -0.0398 
     18 CA          0.1438  -21.4356  -46.8099 C.3       11 UNK         0.1400 
     19 N           0.2991  -21.8365  -45.4084 N.am      11 UNK        -0.5000 
     20 C           0.0862  -23.0595  -44.9045 C.2       10 UNK         0.5000 
     21 O          -0.2179  -24.0397  -45.5805 O.2       10 UNK        -0.5000 
     22 CA          0.1815  -23.1956  -43.3750 C.3       10 UNK         0.1400 
     23 CB          1.6364  -23.4071  -42.9292 C.3       10 UNK        -0.1800 
     24 N          -0.3843  -22.0352  -42.6857 N.am      10 UNK        -0.5000 
     25 C          -1.6899  -21.7309  -42.6614 C.2       9 UNK         0.5000 
     26 O          -2.5636  -22.4172  -43.1905 O.2       9 UNK        -0.5000 
     27 CA         -2.0736  -20.4067  -41.9761 C.3       9 UNK         0.1400 
     28 CB         -2.0521  -20.5535  -40.4474 C.3       9 UNK        -0.1800 
     29 N          -1.1988  -19.3024  -42.3715 N.am      9 UNK        -0.5000 
     30 C          -1.1111  -18.8209  -43.6199 C.2       8 UNK         0.5000 
     31 O          -1.7964  -19.2282  -44.5571 O.2       8 UNK        -0.5000 
     32 CA         -0.0528  -17.7292  -43.8736 C.3       8 UNK         0.1400 
     33 CB         -0.6472  -16.3502  -43.5663 C.3       8 UNK        -0.1800 
     34 N           1.1739  -17.8892  -43.0939 N.am      8 UNK        -0.5000 
     35 C           1.9411  -18.9828  -42.9995 C.2       7 UNK         0.5000 
     36 O           1.7435  -20.0036  -43.6584 O.2       7 UNK        -0.5000 
     37 CA          3.0878  -18.9519  -41.9632 C.3       7 UNK         0.1400 
     38 CB          4.4478  -19.2208  -42.6267 C.3       7 UNK        -0.1800 
     39 N           3.1585  -17.7109  -41.1753 N.am      7 UNK        -0.5000 
     40 C           2.2824  -17.3526  -40.2244 C.2       6 UNK         0.5000 
     41 O           1.3107  -18.0433  -39.9167 O.2       6 UNK        -0.5000 
     42 CA          2.4797  -15.9892  -39.5267 C.3       6 UNK         0.1400 
     43 CB          2.7919  -16.2000  -38.0367 C.3       6 UNK        -0.1800 
     44 N           3.5401  -15.1533  -40.1031 N.am      6 UNK        -0.5000 
     45 C           3.4904  -14.3527  -41.1796 C.2       5 UNK         0.5000 
     46 O           4.4526  -13.6475  -41.4840 O.2       5 UNK        -0.5000 
     47 CA          2.2100  -14.2848  -42.0499 C.3       5 UNK         0.1400 
     48 CB          1.3480  -13.0776  -41.6523 C.3       5 UNK        -0.1800 
     49 N           2.4941  -14.2052  -43.4854 N.am      5 UNK        -0.5000 
     50 C           3.2554  -15.0613  -44.1823 C.2       4 UNK         0.5000 
     51 O           3.7891  -16.0540  -43.6910 O.2       4 UNK        -0.5000 
     52 CA          3.4390  -14.7888  -45.6852 C.3       4 UNK         0.1400 
     53 CB          2.4043  -15.5858  -46.4907 C.3       4 UNK        -0.1800 
     54 N           3.3451  -13.3736  -46.0431 N.am      4 UNK        -0.5000 
     55 C           4.2602  -12.4432  -45.7361 C.2       3 UNK         0.5000 
     56 O           5.3014  -12.6821  -45.1238 O.2       3 UNK        -0.5000 
     57 CA          3.9644  -11.0026  -46.1899 C.3       3 UNK         0.1400 
     58 CB          4.4927  -10.7599  -47.6124 C.3       3 UNK        -0.1800 
     59 N           2.5329  -10.7050  -46.1471 N.am      3 UNK        -0.5000 
     60 C           1.8763  -10.3173  -45.0449 C.2       2 UNK         0.5000 
     61 O           2.4241  -10.1000  -43.9640 O.2       2 UNK        -0.5000 
     62 CA          0.3473  -10.1543  -45.1611 C.3       2 UNK         0.1400 
     63 CB         -0.0138   -8.7040  -45.5159 C.3       2 UNK        -0.1800 
     64 N          -0.2650  -11.0531  -46.1425 N.am      2 UNK        -0.5000 
     65 C          -0.3017  -12.3887  -46.0295 C.2       1 UNK         0.5000 
     66 O           0.1864  -13.0013  -45.0792 O.2       1 UNK        -0.5000 
     67 C          -1.2808  -21.7238  -47.3361 C.2       11 UNK         0.5000 
     68 O          -1.4345  -22.3645  -48.3782 O.2       11 UNK        -0.5000 
     69 N          -2.2949  -21.2957  -46.5714 N.am      12 UNK        -0.5000 
     70 CA         -3.7037  -21.5582  -46.8510 C.3       12 UNK         0.1400 
     71 CB         -4.5759  -20.6974  -45.9260 C.3       12 UNK        -0.1800 
     72 C          -4.0651  -23.0510  -46.7308 C.2       12 UNK         0.5000 
     73 O          -4.7468  -23.5795  -47.6110 O.2       12 UNK        -0.5000 
     74 N          -3.5838  -23.7088  -45.6644 N.am      13 UNK        -0.5000 
     75 CA         -3.8225  -25.1278  -45.3821 C.3       13 UNK         0.1400 
     76 CB         -3.2931  -25.4768  -43.9841 C.3       13 UNK        -0.1800 
     77 C          -3.2296  -26.0851  -46.4326 C.2       13 UNK         0.5000 
     78 O          -3.8105  -27.1445  -46.6746 O.2       13 UNK        -0.5000 
     79 N          -2.1156  -25.6941  -47.0666 N.am      14 UNK        -0.5000 
     80 CA         -1.4402  -26.4068  -48.1547 C.3       14 UNK         0.1400 
     81 CB          0.0031  -25.8835  -48.2699 C.3       14 UNK        -0.1800 
     82 C          -2.2054  -26.3182  -49.4944 C.2       14 UNK         0.5000 
     83 O          -1.6326  -25.9194  -50.5100 O.2       14 UNK        -0.5000 
     84 N          -3.4953  -26.6822  -49.4664 N.am      15 UNK        -0.5000 
     85 CA         -4.4494  -26.7094  -50.5789 C.3       15 UNK         0.1400 
     86 CB         -4.1123  -27.8733  -51.5343 C.3       15 UNK        -0.1800 
     87 C          -4.5651  -25.3548  -51.3075 C.2       15 UNK         0.5000 
     88 O          -4.5863  -25.3249  -52.5382 O.2       15 UNK        -0.5000 
     89 N          -4.5970  -24.2592  -50.5325 N.am      16 UNK        -0.5000 
     90 CA         -4.5677  -22.8659  -50.9860 C.3       16 UNK         0.1400 
     91 CB         -5.8924  -22.4856  -51.6806 C.3       16 UNK        -0.1800 
     92 C          -3.3256  -22.5760  -51.8519 C.2       16 UNK         0.5000 
     93 O          -3.4585  -22.2526  -53.0341 O.2       16 UNK        -0.5000 
     94 N          -2.1433  -22.7630  -51.2459 N.am      17 UNK        -0.5000 
     95 CA         -0.8094  -22.6336  -51.8411 C.3       17 UNK         0.1400 
     96 CB         -0.4600  -21.1471  -52.0429 C.3       17 UNK        -0.1800 
     97 C          -0.6291  -23.4825  -53.1183 C.2       17 UNK         0.5000 
     98 O          -0.1316  -22.9847  -54.1297 O.2       17 UNK        -0.5000 
     99 N          -1.0571  -24.7509  -53.0377 N.am      18 UNK        -0.5000 
    100 CA        -1.0988  -25.7447  -54.1132 C.3       18 UNK         0.1400 
    101 CB         0.3275  -26.1593  -54.5312 C.3       18 UNK        -0.1800 
    102 C         -1.9789  -25.2918  -55.2982 C.2       18 UNK         0.5000 
    103 O         -1.5230  -25.2765  -56.4435 O.2       18 UNK        -0.5000 
    104 N         -3.2328  -24.9380  -54.9832 N.am      19 UNK        -0.5000 
    105 CA        -4.2939  -24.4922  -55.8882 C.3       19 UNK         0.1400 
    106 CB        -4.7250  -25.6354  -56.8310 C.3       19 UNK        -0.1800 
    107 C         -3.9514  -23.1837  -56.6295 C.2       19 UNK         0.5000 
    108 O         -4.1371  -23.0893  -57.8446 O.2       19 UNK        -0.5000 
    109 N         -3.4763  -22.1821  -55.8773 N.am      20 UNK        -0.5000 
    110 CA        -3.1760  -20.8382  -56.3803 C.3       20 UNK         0.1400 
    111 CB        -2.1899  -20.1551  -55.4220 C.3       20 UNK        -0.1800 
    112 C         -4.4336  -19.9631  -56.5629 C.2       20 UNK         0.5000 
    113 O         -4.3419  -18.9086  -57.1923 O.2       20 UNK        -0.5000 
    114 N         -5.5711  -20.4036  -56.0007 N.am      21 UNK        -0.5000 
    115 CA        -6.8858  -19.7457  -55.9985 C.3       21 UNK         0.1400 
    116 CB        -7.4342  -19.5811  -57.4318 C.3       21 UNK        -0.1800 
    117 C         -6.9203  -18.4341  -55.1824 C.2       21 UNK         0.5000 
    118 O         -7.7648  -17.5708  -55.4292 O.2       21 UNK        -0.5000 
    119 N         -6.0106  -18.3215  -54.2091 N.am      22 UNK        -0.5000 
    120 CA        -5.9593  -17.2708  -53.1845 C.3       22 UNK         0.1400 
    121 C         -7.1539  -17.3236  -52.1879 C.2       22 UNK         0.5000 
    122 N         -7.4800  -16.2081  -51.5488 N.am      22 UNK        -0.7600 
    123 O         -7.7682  -18.3644  -51.9624 O.2       22 UNK        -0.5000 
    124 C124       -4.5915  -17.2721  -52.4466 C.3       23 UNK        -0.0398 
    125 S125       -4.0167  -18.9323  -51.9413 S.3       23 UNK        -0.2404 
    126 C126       -4.4954  -18.9867  -50.1860 C.3       23 UNK        -0.0205 
    127 H127       -0.1968  -11.5942  -50.8310 H         1 UNK         0.0600 
    128 H128        1.2898  -12.5229  -51.0496 H         1 UNK         0.0600 
    129 H129        1.3556  -10.9025  -50.3488 H         1 UNK         0.0600 
    130 H130       -1.3869  -12.3170  -49.0896 H         1 UNK         0.3000 
    131 H131       -0.4696  -14.1602  -47.2053 H         1 UNK         0.0600 
    132 H132       -2.8764  -13.7901  -47.9549 H         1 UNK         0.0800 
    133 H133       -2.9561  -12.3933  -46.9167 H         1 UNK         0.0800 
    134 H134       -4.3148  -16.3670  -45.5947 H         1 UNK         0.0800 
    135 H135       -4.8051  -15.2464  -46.8407 H         1 UNK         0.0800 
    136 H136       -5.1711  -17.2325  -48.2300 H         1 UNK         0.1150 
    137 H137       -1.7614  -18.9790  -50.1343 H         1 UNK         0.1150 
    138 H138       -1.2216  -16.2918  -46.8493 H         1 UNK         0.1150 
    139 H139        0.4594  -17.2528  -49.6215 H         1 UNK         0.0800 
    140 H140        0.6958  -17.1982  -47.8947 H         1 UNK         0.0800 
    141 H141       -0.2053  -19.3032  -46.5499 H         1 UNK         0.0800 
    142 H142        1.4757  -19.7488  -46.4557 H         1 UNK         0.0800 
    143 H143        0.8362  -22.0513  -47.3877 H         1 UNK         0.0600 
    144 H144        0.6058  -21.1135  -44.7643 H         1 UNK         0.3000 
    145 H145       -0.3903  -24.0769  -43.0794 H         1 UNK         0.0600 
    146 H146        2.0600  -24.2955  -43.3993 H         1 UNK         0.0600 
    147 H147        2.2723  -22.5629  -43.1959 H         1 UNK         0.0600 
    148 H148        1.7015  -23.5486  -41.8504 H         1 UNK         0.0600 
    149 H149        0.2740  -21.3820  -42.2872 H         1 UNK         0.3000 
    150 H150       -3.0921  -20.1572  -42.2816 H         1 UNK         0.0600 
    151 H151       -2.4074  -19.6453  -39.9601 H         1 UNK         0.0600 
    152 H152       -1.0485  -20.7621  -40.0745 H         1 UNK         0.0600 
    153 H153       -2.6998  -21.3696  -40.1245 H         1 UNK         0.0600 
    154 H154       -0.5975  -18.9145  -41.6578 H         1 UNK         0.3000 
    155 H155        0.2165  -17.7581  -44.9295 H         1 UNK         0.0600 
    156 H156       -0.7317  -16.1726  -42.4937 H         1 UNK         0.0600 
    157 H157       -1.6494  -16.2656  -43.9816 H         1 UNK         0.0600 
    158 H158       -0.0452  -15.5511  -43.9978 H         1 UNK         0.0600 
    159 H159        1.4508  -17.1007  -42.5330 H         1 UNK         0.3000 
    160 H160        2.8956  -19.7732  -41.2699 H         1 UNK         0.0600 
    161 H161        4.4454  -20.1793  -43.1474 H         1 UNK         0.0600 
    162 H162        5.2472  -19.2583  -41.8866 H         1 UNK         0.0600 
    163 H163        4.7033  -18.4552  -43.3585 H         1 UNK         0.0600 
    164 H164        3.9053  -17.0733  -41.4173 H         1 UNK         0.3000 
    165 H165        1.5321  -15.4512  -39.5879 H         1 UNK         0.0600 
    166 H166        2.8645  -15.2482  -37.5100 H         1 UNK         0.0600 
    167 H167        2.0070  -16.7785  -37.5472 H         1 UNK         0.0600 
    168 H168        3.7313  -16.7356  -37.8937 H         1 UNK         0.0600 
    169 H169        4.4068  -15.1671  -39.5855 H         1 UNK         0.3000 
    170 H170        1.6153  -15.1844  -41.9104 H         1 UNK         0.0600 
    171 H171        0.4121  -13.0600  -42.2116 H         1 UNK         0.0600 
    172 H172        1.0931  -13.1068  -40.5924 H         1 UNK         0.0600 
    173 H173        1.8671  -12.1367  -41.8407 H         1 UNK         0.0600 
    174 H174        2.0446  -13.4534  -43.9933 H         1 UNK         0.3000 
    175 H175        4.4333  -15.1423  -45.9655 H         1 UNK         0.0600 
    176 H176        1.3860  -15.2978  -46.2299 H         1 UNK         0.0600 
    177 H177        2.5345  -15.4345  -47.5625 H         1 UNK         0.0600 
    178 H178        2.5021  -16.6548  -46.2960 H         1 UNK         0.0600 
    179 H179        2.5545  -13.1022  -46.6180 H         1 UNK         0.3000 
    180 H180        4.4932  -10.3241  -45.5169 H         1 UNK         0.0600 
    181 H181        4.3217   -9.7300  -47.9258 H         1 UNK         0.0600 
    182 H182        4.0152  -11.4158  -48.3410 H         1 UNK         0.0600 
    183 H183        5.5670  -10.9413  -47.6641 H         1 UNK         0.0600 
    184 H184        2.0042  -10.9115  -46.9836 H         1 UNK         0.3000 
    185 H185       -0.0814  -10.3840  -44.1832 H         1 UNK         0.0600 
    186 H186        0.3680   -8.4226  -46.4981 H         1 UNK         0.0600 
    187 H187       -1.0938   -8.5554  -45.5191 H         1 UNK         0.0600 
    188 H188        0.4063   -8.0079  -44.7886 H         1 UNK         0.0600 
    189 H189       -0.6636  -10.6259  -46.9657 H         1 UNK         0.3000 
    190 H190       -2.0921  -20.7383  -45.7461 H         1 UNK         0.3000 
    191 H191       -3.9004  -21.2508  -47.8789 H         1 UNK         0.0600 
    192 H192       -4.3945  -20.9249  -44.8747 H         1 UNK         0.0600 
    193 H193       -5.6360  -20.8610  -46.1229 H         1 UNK         0.0600 
    194 H194       -4.3757  -19.6359  -46.0760 H         1 UNK         0.0600 
    195 H195       -3.0584  -23.1934  -44.9648 H         1 UNK         0.3000 
    196 H196       -4.9035  -25.2813  -45.3794 H         1 UNK         0.0600 
    197 H197       -3.4891  -26.5218  -43.7408 H         1 UNK         0.0600 
    198 H198       -3.7737  -24.8707  -43.2161 H         1 UNK         0.0600 
    199 H199       -2.2171  -25.3206  -43.9143 H         1 UNK         0.0600 
    200 H200       -1.6726  -24.8336  -46.7608 H         1 UNK         0.3000 
    201 H201       -1.3873  -27.4647  -47.8905 H         1 UNK         0.0600 
    202 H202        0.5497  -26.0288  -47.3382 H         1 UNK         0.0600 
    203 H203        0.0252  -24.8193  -48.5084 H         1 UNK         0.0600 
    204 H204        0.5535  -26.4096  -49.0508 H         1 UNK         0.0600 
    205 H205       -3.8607  -26.9710  -48.5627 H         1 UNK         0.3000 
    206 H206       -5.4298  -26.9078  -50.1440 H         1 UNK         0.0600 
    207 H207       -4.8694  -27.9748  -52.3128 H         1 UNK         0.0600 
    208 H208       -3.1516  -27.7254  -52.0281 H         1 UNK         0.0600 
    209 H209       -4.0706  -28.8220  -50.9994 H         1 UNK         0.0600 
    210 H210       -4.5708  -24.3782  -49.5249 H         1 UNK         0.3000 
    211 H211       -4.4756  -22.2584  -50.0872 H         1 UNK         0.0600 
    212 H212       -6.0514  -23.0539  -52.5974 H         1 UNK         0.0600 
    213 H213       -5.9024  -21.4282  -51.9476 H         1 UNK         0.0600 
    214 H214       -6.7445  -22.6623  -51.0247 H         1 UNK         0.0600 
    215 H215       -2.1379  -23.0115  -50.2627 H         1 UNK         0.3000 
    216 H216       -0.1094  -23.0379  -51.1084 H         1 UNK         0.0600 
    217 H217        0.5489  -21.0262  -52.4385 H         1 UNK         0.0600 
    218 H218       -0.5005  -20.6121  -51.0968 H         1 UNK         0.0600 
    219 H219       -1.1478  -20.6583  -52.7309 H         1 UNK         0.0600 
    220 H220       -1.4151  -25.0713  -52.1392 H         1 UNK         0.3000 
    221 H221       -1.5835  -26.6264  -53.6919 H         1 UNK         0.0600 
    222 H222        0.8737  -25.3357  -54.9917 H         1 UNK         0.0600 
    223 H223        0.9035  -26.5056  -53.6731 H         1 UNK         0.0600 
    224 H224        0.2989  -26.9758  -55.2536 H         1 UNK         0.0600 
    225 H225       -3.5170  -24.9865  -54.0062 H         1 UNK         0.3000 
    226 H226       -5.1480  -24.2599  -55.2503 H         1 UNK         0.0600 
    227 H227       -4.9936  -26.5291  -56.2678 H         1 UNK         0.0600 
    228 H228       -5.5983  -25.3485  -57.4180 H         1 UNK         0.0600 
    229 H229       -3.9347  -25.9049  -57.5321 H         1 UNK         0.0600 
    230 H230       -3.3627  -22.3236  -54.8738 H         1 UNK         0.3000 
    231 H231       -2.6925  -20.9284  -57.3551 H         1 UNK         0.0600 
    232 H232       -2.6330  -20.0038  -54.4380 H         1 UNK         0.0600 
    233 H233       -1.2844  -20.7486  -55.2972 H         1 UNK         0.0600 
    234 H234       -1.8886  -19.1771  -55.7989 H         1 UNK         0.0600 
    235 H235       -5.5179  -21.2737  -55.4907 H         1 UNK         0.3000 
    236 H236       -7.5554  -20.4302  -55.4761 H         1 UNK         0.0600 
    237 H237       -6.8744  -18.8376  -57.9993 H         1 UNK         0.0600 
    238 H238       -7.3946  -20.5225  -57.9799 H         1 UNK         0.0600 
    239 H239       -8.4763  -19.2600  -57.4165 H         1 UNK         0.0600 
    240 H240       -5.3704  -19.0884  -54.0643 H         1 UNK         0.3000 
    241 H241       -6.0430  -16.3189  -53.7125 H         1 UNK         0.0600 
    242 H242       -8.2462  -16.2285  -50.8939 H         1 UNK         0.3800 
    243 H243       -6.9964  -15.3388  -51.7136 H         1 UNK         0.3800 
    244 H244       -3.8321  -16.8695  -53.1179 H         1 UNK         0.0800 
    245 H245       -4.5969  -16.6007  -51.5860 H         1 UNK         0.0800 
    246 H246       -4.4795  -20.0220  -49.8547 H         1 UNK         0.0800 
    247 H247       -5.5280  -18.6514  -50.0827 H         1 UNK         0.0800 
@<TRIPOS>BOND
     1    1    2 1    
     2    1  127 1    
     3    1  128 1    
     4    1  129 1    
     5    2    3 2    
     6    2    4 am   BACKBONE|DICT|INTERRES
     7    4    5 1    
     8    4  130 1    
     9    5    6 1    
    10    5   65 1    
    11    5  131 1    
    12    6    7 1    
    13    6  132 1    
    14    6  133 1    
    15    7    8 1    
    16    8    9 1    
    17    8  134 1    
    18    8  135 1    
    19    9   10 ar   
    20    9   14 ar   
    21   10   11 ar   
    22   10  136 1    
    23   11   12 ar   
    24   11  126 1    
    25   12   13 ar   
    26   12  137 1    
    27   13   14 ar   
    28   13   15 1    
    29   14  138 1    
    30   15   16 1    
    31   15  139 1    
    32   15  140 1    
    33   16   17 1    
    34   17   18 1    
    35   17  141 1    
    36   17  142 1    
    37   18   19 1    
    38   18   67 1    
    39   18  143 1    
    40   19   20 am   BACKBONE|DICT|INTERRES
    41   19  144 1    
    42   20   21 2    
    43   20   22 1    
    44   22   23 1    
    45   22   24 1    
    46   22  145 1    
    47   23  146 1    
    48   23  147 1    
    49   23  148 1    
    50   24   25 am   BACKBONE|DICT|INTERRES
    51   24  149 1    
    52   25   26 2    
    53   25   27 1    
    54   27   28 1    
    55   27   29 1    
    56   27  150 1    
    57   28  151 1    
    58   28  152 1    
    59   28  153 1    
    60   29   30 am   BACKBONE|DICT|INTERRES
    61   29  154 1    
    62   30   31 2    
    63   30   32 1    
    64   32   33 1    
    65   32   34 1    
    66   32  155 1    
    67   33  156 1    
    68   33  157 1    
    69   33  158 1    
    70   34   35 am   BACKBONE|DICT|INTERRES
    71   34  159 1    
    72   35   36 2    
    73   35   37 1    
    74   37   38 1    
    75   37   39 1    
    76   37  160 1    
    77   38  161 1    
    78   38  162 1    
    79   38  163 1    
    80   39   40 am   BACKBONE|DICT|INTERRES
    81   39  164 1    
    82   40   41 2    
    83   40   42 1    
    84   42   43 1    
    85   42   44 1    
    86   42  165 1    
    87   43  166 1    
    88   43  167 1    
    89   43  168 1    
    90   44   45 am   BACKBONE|DICT|INTERRES
    91   44  169 1    
    92   45   46 2    
    93   45   47 1    
    94   47   48 1    
    95   47   49 1    
    96   47  170 1    
    97   48  171 1    
    98   48  172 1    
    99   48  173 1    
   100   49   50 am   BACKBONE|DICT|INTERRES
   101   49  174 1    
   102   50   51 2    
   103   50   52 1    
   104   52   53 1    
   105   52   54 1    
   106   52  175 1    
   107   53  176 1    
   108   53  177 1    
   109   53  178 1    
   110   54   55 am   BACKBONE|DICT|INTERRES
   111   54  179 1    
   112   55   56 2    
   113   55   57 1    
   114   57   58 1    
   115   57   59 1    
   116   57  180 1    
   117   58  181 1    
   118   58  182 1    
   119   58  183 1    
   120   59   60 am   BACKBONE|DICT|INTERRES
   121   59  184 1    
   122   60   61 2    
   123   60   62 1    
   124   62   63 1    
   125   62   64 1    
   126   62  185 1    
   127   63  186 1    
   128   63  187 1    
   129   63  188 1    
   130   64   65 am   BACKBONE|DICT|INTERRES
   131   64  189 1    
   132   65   66 2    
   133   67   68 2    
   134   67   69 am   BACKBONE|DICT|INTERRES
   135   69   70 1    
   136   69  190 1    
   137   70   71 1    
   138   70   72 1    
   139   70  191 1    
   140   71  192 1    
   141   71  193 1    
   142   71  194 1    
   143   72   73 2    
   144   72   74 am   BACKBONE|DICT|INTERRES
   145   74   75 1    
   146   74  195 1    
   147   75   76 1    
   148   75   77 1    
   149   75  196 1    
   150   76  197 1    
   151   76  198 1    
   152   76  199 1    
   153   77   78 2    
   154   77   79 am   BACKBONE|DICT|INTERRES
   155   79   80 1    
   156   79  200 1    
   157   80   81 1    
   158   80   82 1    
   159   80  201 1    
   160   81  202 1    
   161   81  203 1    
   162   81  204 1    
   163   82   83 2    
   164   82   84 am   BACKBONE|DICT|INTERRES
   165   84   85 1    
   166   84  205 1    
   167   85   86 1    
   168   85   87 1    
   169   85  206 1    
   170   86  207 1    
   171   86  208 1    
   172   86  209 1    
   173   87   88 2    
   174   87   89 am   BACKBONE|DICT|INTERRES
   175   89   90 1    
   176   89  210 1    
   177   90   91 1    
   178   90   92 1    
   179   90  211 1    
   180   91  212 1    
   181   91  213 1    
   182   91  214 1    
   183   92   93 2    
   184   92   94 am   BACKBONE|DICT|INTERRES
   185   94   95 1    
   186   94  215 1    
   187   95   96 1    
   188   95   97 1    
   189   95  216 1    
   190   96  217 1    
   191   96  218 1    
   192   96  219 1    
   193   97   98 2    
   194   97   99 am   BACKBONE|DICT|INTERRES
   195   99  100 1    
   196   99  220 1    
   197  100  101 1    
   198  100  102 1    
   199  100  221 1    
   200  101  222 1    
   201  101  223 1    
   202  101  224 1    
   203  102  103 2    
   204  102  104 am   BACKBONE|DICT|INTERRES
   205  104  105 1    
   206  104  225 1    
   207  105  106 1    
   208  105  107 1    
   209  105  226 1    
   210  106  227 1    
   211  106  228 1    
   212  106  229 1    
   213  107  108 2    
   214  107  109 am   BACKBONE|DICT|INTERRES
   215  109  110 1    
   216  109  230 1    
   217  110  111 1    
   218  110  112 1    
   219  110  231 1    
   220  111  232 1    
   221  111  233 1    
   222  111  234 1    
   223  112  113 2    
   224  112  114 am   BACKBONE|DICT|INTERRES
   225  114  115 1    
   226  114  235 1    
   227  115  116 1    
   228  115  117 1    
   229  115  236 1    
   230  116  237 1    
   231  116  238 1    
   232  116  239 1    
   233  117  118 2    
   234  117  119 am   BACKBONE|DICT|INTERRES
   235  119  120 1    
   236  119  240 1    
   237  120  121 1    
   238  120  124 1    
   239  120  241 1    
   240  121  122 am   BACKBONE|DICT|INTERRES
   241  121  123 2    
   242  122  242 1    
   243  122  243 1    
   244  124  125 1    
   245  124  244 1    
   246  124  245 1    
   247  125  126 1    
   248  126  246 1    
   249  126  247 1    
@<TRIPOS>SUBSTRUCTURE
     1 UNK         1 GROUP             0       ****    0 ROOT    
