@<TRIPOS>MOLECULE
3R540
247   249    1
SMALL
USER_CHARGES


@<TRIPOS>ATOM
      1 CA         -2.2888  -12.7172  -42.8026 C.3       0 UNK        -0.1800 
      2 C          -2.0941  -12.6331  -44.3089 C.2       0 UNK         0.5000 
      3 O          -2.2737  -11.5650  -44.8933 O.2       0 UNK        -0.5000 
      4 N          -1.7216  -13.7547  -44.9377 N.am      1 UNK        -0.5000 
      5 CA         -1.5047  -13.8758  -46.3881 C.3       1 UNK         0.1400 
      6 C6         -1.9240  -15.2719  -46.9122 C.3       23 UNK        -0.0398 
      7 S7         -3.6972  -15.5952  -46.6058 S.3       23 UNK        -0.2404 
      8 C8         -4.4234  -15.3166  -48.2486 C.3       23 UNK        -0.0205 
      9 C9         -4.4383  -16.5923  -49.0752 C.ar      23 UNK        -0.0193 
     10 C10        -3.3656  -16.9072  -49.9144 C.ar      23 UNK        -0.1150 
     11 C11        -3.3844  -18.0745  -50.6824 C.ar      23 UNK        -0.0193 
     12 C12        -4.5030  -18.9101  -50.6272 C.ar      23 UNK        -0.1150 
     13 C13        -5.5752  -18.6189  -49.7793 C.ar      23 UNK        -0.0193 
     14 C14        -5.5350  -17.4572  -49.0036 C.ar      23 UNK        -0.1150 
     15 C15        -6.7753  -19.5553  -49.7063 C.3       23 UNK        -0.0205 
     16 S16        -6.3230  -21.2476  -49.1962 S.3       23 UNK        -0.2404 
     17 C17        -5.7597  -21.0101  -47.4745 C.3       23 UNK        -0.0398 
     18 CA         -4.2293  -20.7943  -47.3480 C.3       11 UNK         0.1400 
     19 N          -3.8966  -20.0566  -46.1242 N.am      11 UNK        -0.5000 
     20 C          -2.7684  -19.3633  -45.9199 C.2       10 UNK         0.5000 
     21 O          -1.8512  -19.3118  -46.7410 O.2       10 UNK        -0.5000 
     22 CA         -2.6300  -18.6148  -44.5753 C.3       10 UNK         0.1400 
     23 CB         -3.8106  -18.8165  -43.5989 C.3       10 UNK        -0.1800 
     24 N          -1.3582  -18.9098  -43.9179 N.am      10 UNK        -0.5000 
     25 C          -0.9019  -20.1088  -43.5219 C.2       9 UNK         0.5000 
     26 O          -1.5637  -21.1454  -43.5956 O.2       9 UNK        -0.5000 
     27 CA          0.5365  -20.1362  -42.9476 C.3       9 UNK         0.1400 
     28 CB          1.1998  -21.5284  -42.9743 C.3       9 UNK        -0.1800 
     29 N           1.4088  -19.1269  -43.5574 N.am      9 UNK        -0.5000 
     30 C           1.6904  -18.9873  -44.8645 C.2       8 UNK         0.5000 
     31 O           1.4360  -19.8450  -45.7104 O.2       8 UNK        -0.5000 
     32 CA          2.3276  -17.6499  -45.3095 C.3       8 UNK         0.1400 
     33 CB          1.7472  -17.1694  -46.6544 C.3       8 UNK        -0.1800 
     34 N           2.2430  -16.5866  -44.2968 N.am      8 UNK        -0.5000 
     35 C           1.1440  -16.0399  -43.7507 C.2       7 UNK         0.5000 
     36 O          -0.0029  -16.2776  -44.1330 O.2       7 UNK        -0.5000 
     37 CA          1.3636  -15.1137  -42.5327 C.3       7 UNK         0.1400 
     38 CB          0.2302  -15.2422  -41.4949 C.3       7 UNK        -0.1800 
     39 N           2.6696  -15.2768  -41.8770 N.am      7 UNK        -0.5000 
     40 C           3.1738  -16.3908  -41.3211 C.2       6 UNK         0.5000 
     41 O           2.5802  -17.4704  -41.3073 O.2       6 UNK        -0.5000 
     42 CA          4.5872  -16.3065  -40.7236 C.3       6 UNK         0.1400 
     43 CB          5.6424  -16.6128  -41.7989 C.3       6 UNK        -0.1800 
     44 N           4.8686  -14.9995  -40.1258 N.am      6 UNK        -0.5000 
     45 C           5.4858  -14.8207  -38.9486 C.2       5 UNK         0.5000 
     46 O           5.9036  -15.7450  -38.2494 O.2       5 UNK        -0.5000 
     47 CA          5.6797  -13.3699  -38.4558 C.3       5 UNK         0.1400 
     48 CB          7.1054  -12.8867  -38.7638 C.3       5 UNK        -0.1800 
     49 N           4.7279  -12.4199  -39.0318 N.am      5 UNK        -0.5000 
     50 C           3.4061  -12.4241  -38.8170 C.2       4 UNK         0.5000 
     51 O           2.8508  -13.1731  -38.0127 O.2       4 UNK        -0.5000 
     52 CA          2.5504  -11.4503  -39.6538 C.3       4 UNK         0.1400 
     53 CB          2.0447  -10.2938  -38.7773 C.3       4 UNK        -0.1800 
     54 N           3.1925  -10.8862  -40.8496 N.am      4 UNK        -0.5000 
     55 C           3.6905  -11.5760  -41.8842 C.2       3 UNK         0.5000 
     56 O           3.8491  -12.7995  -41.8867 O.2       3 UNK        -0.5000 
     57 CA          4.0871  -10.7604  -43.1289 C.3       3 UNK         0.1400 
     58 CB          5.6123  -10.5898  -43.1894 C.3       3 UNK        -0.1800 
     59 N           3.6251  -11.3938  -44.3675 N.am      3 UNK        -0.5000 
     60 C           2.3481  -11.6836  -44.6533 C.2       2 UNK         0.5000 
     61 O           1.4014  -11.3811  -43.9198 O.2       2 UNK        -0.5000 
     62 CA          2.0708  -12.4524  -45.9588 C.3       2 UNK         0.1400 
     63 CB          3.1335  -13.5252  -46.2718 C.3       2 UNK        -0.1800 
     64 N           0.7436  -13.0439  -45.8301 N.am      2 UNK        -0.5000 
     65 C          -0.0589  -13.4995  -46.7978 C.2       1 UNK         0.5000 
     66 O           0.2865  -13.5963  -47.9757 O.2       1 UNK        -0.5000 
     67 C          -3.4130  -22.0972  -47.5340 C.2       11 UNK         0.5000 
     68 O          -3.5181  -22.7336  -48.5846 O.2       11 UNK        -0.5000 
     69 N          -2.5572  -22.4628  -46.5655 N.am      12 UNK        -0.5000 
     70 CA         -1.5775  -23.5473  -46.7020 C.3       12 UNK         0.1400 
     71 CB         -0.8635  -23.7766  -45.3661 C.3       12 UNK        -0.1800 
     72 C          -0.5520  -23.2983  -47.8287 C.2       12 UNK         0.5000 
     73 O          -0.0428  -24.2624  -48.3991 O.2       12 UNK        -0.5000 
     74 N          -0.3364  -22.0247  -48.1938 N.am      13 UNK        -0.5000 
     75 CA          0.4222  -21.5931  -49.3716 C.3       13 UNK         0.1400 
     76 CB          0.5259  -20.0611  -49.3527 C.3       13 UNK        -0.1800 
     77 C          -0.1722  -22.0757  -50.7142 C.2       13 UNK         0.5000 
     78 O           0.5650  -22.1891  -51.6927 O.2       13 UNK        -0.5000 
     79 N          -1.4790  -22.3693  -50.7314 N.am      14 UNK        -0.5000 
     80 CA         -2.2060  -22.9693  -51.8496 C.3       14 UNK         0.1400 
     81 CB         -3.4394  -22.1037  -52.1436 C.3       14 UNK        -0.1800 
     82 C          -2.6298  -24.4162  -51.5366 C.2       14 UNK         0.5000 
     83 O          -3.4899  -24.9529  -52.2360 O.2       14 UNK        -0.5000 
     84 N          -2.0704  -25.0136  -50.4725 N.am      15 UNK        -0.5000 
     85 CA         -2.3959  -26.3402  -49.9392 C.3       15 UNK         0.1400 
     86 CB         -1.8681  -27.4389  -50.8847 C.3       15 UNK        -0.1800 
     87 C          -3.8942  -26.4917  -49.5925 C.2       15 UNK         0.5000 
     88 O          -4.5069  -27.5062  -49.9264 O.2       15 UNK        -0.5000 
     89 N          -4.4581  -25.4502  -48.9597 N.am      16 UNK        -0.5000 
     90 CA         -5.8748  -25.2854  -48.6138 C.3       16 UNK         0.1400 
     91 CB         -6.3362  -26.3522  -47.5991 C.3       16 UNK        -0.1800 
     92 C          -6.7684  -25.1948  -49.8683 C.2       16 UNK         0.5000 
     93 O          -7.8181  -25.8357  -49.9394 O.2       16 UNK        -0.5000 
     94 N          -6.3064  -24.3918  -50.8372 N.am      17 UNK        -0.5000 
     95 CA         -6.9251  -24.0882  -52.1319 C.3       17 UNK         0.1400 
     96 CB         -8.2969  -23.4049  -51.9547 C.3       17 UNK        -0.1800 
     97 C          -6.9711  -25.2787  -53.1131 C.2       17 UNK         0.5000 
     98 O          -7.7277  -25.2345  -54.0841 O.2       17 UNK        -0.5000 
     99 N          -6.1352  -26.3012  -52.8856 N.am      18 UNK        -0.5000 
    100 CA        -5.9038  -27.3962  -53.8307 C.3       18 UNK         0.1400 
    101 CB        -5.2493  -28.5757  -53.0985 C.3       18 UNK        -0.1800 
    102 C         -5.0402  -26.9416  -55.0240 C.2       18 UNK         0.5000 
    103 O         -5.2450  -27.4137  -56.1427 O.2       18 UNK        -0.5000 
    104 N         -4.1219  -26.0041  -54.7647 N.am      19 UNK        -0.5000 
    105 CA        -3.3043  -25.2935  -55.7385 C.3       19 UNK         0.1400 
    106 CB        -1.8210  -25.6021  -55.4657 C.3       19 UNK        -0.1800 
    107 C         -3.6364  -23.7990  -55.6040 C.2       19 UNK         0.5000 
    108 O         -2.7859  -23.0044  -55.2010 O.2       19 UNK        -0.5000 
    109 N         -4.8967  -23.4531  -55.9078 N.am      20 UNK        -0.5000 
    110 CA        -5.5411  -22.1464  -55.7016 C.3       20 UNK         0.1400 
    111 CB        -6.9915  -22.2342  -56.2014 C.3       20 UNK        -0.1800 
    112 C         -4.8352  -20.9197  -56.3204 C.2       20 UNK         0.5000 
    113 O         -5.1432  -19.7920  -55.9346 O.2       20 UNK        -0.5000 
    114 N         -3.8976  -21.1502  -57.2478 N.am      21 UNK        -0.5000 
    115 CA        -2.9989  -20.1410  -57.8096 C.3       21 UNK         0.1400 
    116 CB        -2.3413  -20.7247  -59.0706 C.3       21 UNK        -0.1800 
    117 C         -1.9211  -19.6419  -56.8194 C.2       21 UNK         0.5000 
    118 O         -1.2658  -18.6424  -57.1169 O.2       21 UNK        -0.5000 
    119 N         -1.7424  -20.3397  -55.6863 N.am      22 UNK        -0.5000 
    120 CA        -0.7424  -20.0696  -54.6351 C.3       22 UNK         0.1400 
    121 C          0.7187  -20.4221  -55.0547 C.2       22 UNK         0.5000 
    122 N          0.9287  -21.2685  -56.0564 N.am      22 UNK        -0.7600 
    123 O          1.6801  -19.9390  -54.4625 O.2       22 UNK        -0.5000 
    124 C124       -0.8549  -18.6513  -53.9985 C.3       23 UNK        -0.0398 
    125 S125       -2.5064  -18.2686  -53.3150 S.3       23 UNK        -0.2404 
    126 C126       -2.1816  -18.4515  -51.5348 C.3       23 UNK        -0.0205 
    127 H127       -1.3551  -12.4875  -42.2887 H         1 UNK         0.0600 
    128 H128       -3.0438  -12.0019  -42.4759 H         1 UNK         0.0600 
    129 H129       -2.6201  -13.7112  -42.5020 H         1 UNK         0.0600 
    130 H130       -1.5663  -14.6059  -44.4119 H         1 UNK         0.3000 
    131 H131       -2.1429  -13.1487  -46.8949 H         1 UNK         0.0600 
    132 H132       -1.7163  -15.3678  -47.9778 H         1 UNK         0.0800 
    133 H133       -1.3472  -16.0554  -46.4222 H         1 UNK         0.0800 
    134 H134       -3.8863  -14.5235  -48.7712 H         1 UNK         0.0800 
    135 H135       -5.4438  -14.9528  -48.1200 H         1 UNK         0.0800 
    136 H136       -2.5112  -16.2480  -49.9650 H         1 UNK         0.1150 
    137 H137       -4.5385  -19.7995  -51.2338 H         1 UNK         0.1150 
    138 H138       -6.3600  -17.2197  -48.3468 H         1 UNK         0.1150 
    139 H139       -7.2410  -19.6020  -50.6916 H         1 UNK         0.0800 
    140 H140       -7.5356  -19.1675  -49.0267 H         1 UNK         0.0800 
    141 H141       -6.2953  -20.1491  -47.0719 H         1 UNK         0.0800 
    142 H142       -6.0825  -21.8637  -46.8764 H         1 UNK         0.0800 
    143 H143       -3.9203  -20.1511  -48.1727 H         1 UNK         0.0600 
    144 H144       -4.5873  -20.0731  -45.3879 H         1 UNK         0.3000 
    145 H145       -2.5890  -17.5549  -44.8204 H         1 UNK         0.0600 
    146 H146       -3.6573  -18.2434  -42.6843 H         1 UNK         0.0600 
    147 H147       -4.7478  -18.4689  -44.0354 H         1 UNK         0.0600 
    148 H148       -3.9381  -19.8613  -43.3137 H         1 UNK         0.0600 
    149 H149       -0.7234  -18.1192  -43.8694 H         1 UNK         0.3000 
    150 H150        0.4333  -19.8496  -41.9002 H         1 UNK         0.0600 
    151 H151        0.5625  -22.2820  -42.5102 H         1 UNK         0.0600 
    152 H152        2.1401  -21.5192  -42.4233 H         1 UNK         0.0600 
    153 H153        1.4185  -21.8584  -43.9888 H         1 UNK         0.0600 
    154 H154        1.7197  -18.3962  -42.9253 H         1 UNK         0.3000 
    155 H155        3.3906  -17.8469  -45.4545 H         1 UNK         0.0600 
    156 H156        2.0529  -17.8297  -47.4655 H         1 UNK         0.0600 
    157 H157        2.0926  -16.1701  -46.9088 H         1 UNK         0.0600 
    158 H158        0.6581  -17.1560  -46.6409 H         1 UNK         0.0600 
    159 H159        3.1268  -16.3191  -43.8886 H         1 UNK         0.3000 
    160 H160        1.3415  -14.0955  -42.9218 H         1 UNK         0.0600 
    161 H161        0.1825  -16.2441  -41.0677 H         1 UNK         0.0600 
    162 H162        0.3659  -14.5348  -40.6766 H         1 UNK         0.0600 
    163 H163       -0.7421  -15.0381  -41.9405 H         1 UNK         0.0600 
    164 H164        3.2349  -14.4290  -41.8755 H         1 UNK         0.3000 
    165 H165        4.6409  -17.0856  -39.9603 H         1 UNK         0.0600 
    166 H166        6.6419  -16.6564  -41.3659 H         1 UNK         0.0600 
    167 H167        5.4523  -17.5765  -42.2735 H         1 UNK         0.0600 
    168 H168        5.6508  -15.8535  -42.5820 H         1 UNK         0.0600 
    169 H169        4.5537  -14.1811  -40.6357 H         1 UNK         0.3000 
    170 H170        5.5431  -13.3701  -37.3724 H         1 UNK         0.0600 
    171 H171        7.8481  -13.5543  -38.3248 H         1 UNK         0.0600 
    172 H172        7.2930  -12.8476  -39.8376 H         1 UNK         0.0600 
    173 H173        7.2826  -11.8920  -38.3543 H         1 UNK         0.0600 
    174 H174        5.0922  -11.7710  -39.7134 H         1 UNK         0.3000 
    175 H175        1.6832  -12.0180  -39.9976 H         1 UNK         0.0600 
    176 H176        2.8655   -9.6628  -38.4342 H         1 UNK         0.0600 
    177 H177        1.3399   -9.6642  -39.3209 H         1 UNK         0.0600 
    178 H178        1.5260  -10.6671  -37.8932 H         1 UNK         0.0600 
    179 H179        3.1336   -9.8816  -40.9354 H         1 UNK         0.3000 
    180 H180        3.6264   -9.7724  -43.0687 H         1 UNK         0.0600 
    181 H181        5.9872  -10.0978  -42.2909 H         1 UNK         0.0600 
    182 H182        6.1217  -11.5509  -43.2739 H         1 UNK         0.0600 
    183 H183        5.9080   -9.9768  -44.0409 H         1 UNK         0.0600 
    184 H184        4.3448  -11.6984  -45.0060 H         1 UNK         0.3000 
    185 H185        2.0487  -11.7217  -46.7692 H         1 UNK         0.0600 
    186 H186        4.1194  -13.0827  -46.4149 H         1 UNK         0.0600 
    187 H187        3.2136  -14.2587  -45.4704 H         1 UNK         0.0600 
    188 H188        2.8989  -14.0528  -47.1952 H         1 UNK         0.0600 
    189 H189        0.3380  -12.9058  -44.9128 H         1 UNK         0.3000 
    190 H190       -2.4944  -21.8996  -45.7270 H         1 UNK         0.3000 
    191 H191       -2.1260  -24.4578  -46.9518 H         1 UNK         0.0600 
    192 H192       -0.2015  -24.6417  -45.4192 H         1 UNK         0.0600 
    193 H193       -1.5734  -23.9555  -44.5584 H         1 UNK         0.0600 
    194 H194       -0.2551  -22.9154  -45.0974 H         1 UNK         0.0600 
    195 H195       -0.7746  -21.2884  -47.6539 H         1 UNK         0.3000 
    196 H196        1.4288  -22.0085  -49.2923 H         1 UNK         0.0600 
    197 H197        1.0553  -19.6870  -50.2301 H         1 UNK         0.0600 
    198 H198        1.0722  -19.7223  -48.4736 H         1 UNK         0.0600 
    199 H199       -0.4577  -19.5907  -49.3309 H         1 UNK         0.0600 
    200 H200       -2.0145  -22.2718  -49.8757 H         1 UNK         0.3000 
    201 H201       -1.5848  -23.0074  -52.7460 H         1 UNK         0.0600 
    202 H202       -3.1467  -21.1162  -52.4930 H         1 UNK         0.0600 
    203 H203       -4.0671  -21.9938  -51.2595 H         1 UNK         0.0600 
    204 H204       -4.0569  -22.5383  -52.9263 H         1 UNK         0.0600 
    205 H205       -1.3565  -24.5097  -49.9592 H         1 UNK         0.3000 
    206 H206       -1.8591  -26.4357  -48.9944 H         1 UNK         0.0600 
    207 H207       -0.7893  -27.3545  -51.0149 H         1 UNK         0.0600 
    208 H208       -2.0680  -28.4342  -50.4863 H         1 UNK         0.0600 
    209 H209       -2.3247  -27.3796  -51.8720 H         1 UNK         0.0600 
    210 H210       -3.8878  -24.6257  -48.7951 H         1 UNK         0.3000 
    211 H211       -5.9533  -24.3160  -48.1197 H         1 UNK         0.0600 
    212 H212       -6.3519  -27.3517  -48.0342 H         1 UNK         0.0600 
    213 H213       -7.3444  -26.1379  -47.2429 H         1 UNK         0.0600 
    214 H214       -5.6825  -26.3752  -46.7274 H         1 UNK         0.0600 
    215 H215       -5.4174  -23.9413  -50.6729 H         1 UNK         0.3000 
    216 H216       -6.2673  -23.3571  -52.6012 H         1 UNK         0.0600 
    217 H217       -8.2305  -22.5555  -51.2751 H         1 UNK         0.0600 
    218 H218       -8.6712  -23.0259  -52.9063 H         1 UNK         0.0600 
    219 H219       -9.0456  -24.0928  -51.5616 H         1 UNK         0.0600 
    220 H220       -5.5211  -26.2512  -52.0832 H         1 UNK         0.3000 
    221 H221       -6.8669  -27.7324  -54.2205 H         1 UNK         0.0600 
    222 H222       -4.2756  -28.3061  -52.6916 H         1 UNK         0.0600 
    223 H223       -5.8713  -28.9209  -52.2723 H         1 UNK         0.0600 
    224 H224       -5.1018  -29.4205  -53.7723 H         1 UNK         0.0600 
    225 H225       -4.0291  -25.6681  -53.8067 H         1 UNK         0.3000 
    226 H226       -3.5448  -25.6008  -56.7581 H         1 UNK         0.0600 
    227 H227       -1.6157  -26.6667  -55.5777 H         1 UNK         0.0600 
    228 H228       -1.1755  -25.0695  -56.1650 H         1 UNK         0.0600 
    229 H229       -1.5263  -25.3110  -54.4566 H         1 UNK         0.0600 
    230 H230       -5.5110  -24.1880  -56.2285 H         1 UNK         0.3000 
    231 H231       -5.5710  -21.9713  -54.6255 H         1 UNK         0.0600 
    232 H232       -7.0342  -22.4528  -57.2691 H         1 UNK         0.0600 
    233 H233       -7.5458  -23.0119  -55.6764 H         1 UNK         0.0600 
    234 H234       -7.5231  -21.2960  -56.0366 H         1 UNK         0.0600 
    235 H235       -3.7097  -22.1097  -57.4968 H         1 UNK         0.3000 
    236 H236       -3.5957  -19.2752  -58.1038 H         1 UNK         0.0600 
    237 H237       -1.7366  -21.6024  -58.8392 H         1 UNK         0.0600 
    238 H238       -3.0901  -21.0164  -59.8073 H         1 UNK         0.0600 
    239 H239       -1.6881  -19.9925  -59.5471 H         1 UNK         0.0600 
    240 H240       -2.2902  -21.1843  -55.5471 H         1 UNK         0.3000 
    241 H241       -0.9683  -20.7836  -53.8429 H         1 UNK         0.0600 
    242 H242        1.8732  -21.4986  -56.3221 H         1 UNK         0.3800 
    243 H243        0.1526  -21.6875  -56.5426 H         1 UNK         0.3800 
    244 H244       -0.6046  -17.8823  -54.7296 H         1 UNK         0.0800 
    245 H245       -0.1186  -18.5393  -53.2013 H         1 UNK         0.0800 
    246 H246       -1.9002  -19.4831  -51.3242 H         1 UNK         0.0800 
    247 H247       -1.3220  -17.8376  -51.2612 H         1 UNK         0.0800 
@<TRIPOS>BOND
     1    1    2 1    
     2    1  127 1    
     3    1  128 1    
     4    1  129 1    
     5    2    3 2    
     6    2    4 am   BACKBONE|DICT|INTERRES
     7    4    5 1    
     8    4  130 1    
     9    5    6 1    
    10    5   65 1    
    11    5  131 1    
    12    6    7 1    
    13    6  132 1    
    14    6  133 1    
    15    7    8 1    
    16    8    9 1    
    17    8  134 1    
    18    8  135 1    
    19    9   10 ar   
    20    9   14 ar   
    21   10   11 ar   
    22   10  136 1    
    23   11   12 ar   
    24   11  126 1    
    25   12   13 ar   
    26   12  137 1    
    27   13   14 ar   
    28   13   15 1    
    29   14  138 1    
    30   15   16 1    
    31   15  139 1    
    32   15  140 1    
    33   16   17 1    
    34   17   18 1    
    35   17  141 1    
    36   17  142 1    
    37   18   19 1    
    38   18   67 1    
    39   18  143 1    
    40   19   20 am   BACKBONE|DICT|INTERRES
    41   19  144 1    
    42   20   21 2    
    43   20   22 1    
    44   22   23 1    
    45   22   24 1    
    46   22  145 1    
    47   23  146 1    
    48   23  147 1    
    49   23  148 1    
    50   24   25 am   BACKBONE|DICT|INTERRES
    51   24  149 1    
    52   25   26 2    
    53   25   27 1    
    54   27   28 1    
    55   27   29 1    
    56   27  150 1    
    57   28  151 1    
    58   28  152 1    
    59   28  153 1    
    60   29   30 am   BACKBONE|DICT|INTERRES
    61   29  154 1    
    62   30   31 2    
    63   30   32 1    
    64   32   33 1    
    65   32   34 1    
    66   32  155 1    
    67   33  156 1    
    68   33  157 1    
    69   33  158 1    
    70   34   35 am   BACKBONE|DICT|INTERRES
    71   34  159 1    
    72   35   36 2    
    73   35   37 1    
    74   37   38 1    
    75   37   39 1    
    76   37  160 1    
    77   38  161 1    
    78   38  162 1    
    79   38  163 1    
    80   39   40 am   BACKBONE|DICT|INTERRES
    81   39  164 1    
    82   40   41 2    
    83   40   42 1    
    84   42   43 1    
    85   42   44 1    
    86   42  165 1    
    87   43  166 1    
    88   43  167 1    
    89   43  168 1    
    90   44   45 am   BACKBONE|DICT|INTERRES
    91   44  169 1    
    92   45   46 2    
    93   45   47 1    
    94   47   48 1    
    95   47   49 1    
    96   47  170 1    
    97   48  171 1    
    98   48  172 1    
    99   48  173 1    
   100   49   50 am   BACKBONE|DICT|INTERRES
   101   49  174 1    
   102   50   51 2    
   103   50   52 1    
   104   52   53 1    
   105   52   54 1    
   106   52  175 1    
   107   53  176 1    
   108   53  177 1    
   109   53  178 1    
   110   54   55 am   BACKBONE|DICT|INTERRES
   111   54  179 1    
   112   55   56 2    
   113   55   57 1    
   114   57   58 1    
   115   57   59 1    
   116   57  180 1    
   117   58  181 1    
   118   58  182 1    
   119   58  183 1    
   120   59   60 am   BACKBONE|DICT|INTERRES
   121   59  184 1    
   122   60   61 2    
   123   60   62 1    
   124   62   63 1    
   125   62   64 1    
   126   62  185 1    
   127   63  186 1    
   128   63  187 1    
   129   63  188 1    
   130   64   65 am   BACKBONE|DICT|INTERRES
   131   64  189 1    
   132   65   66 2    
   133   67   68 2    
   134   67   69 am   BACKBONE|DICT|INTERRES
   135   69   70 1    
   136   69  190 1    
   137   70   71 1    
   138   70   72 1    
   139   70  191 1    
   140   71  192 1    
   141   71  193 1    
   142   71  194 1    
   143   72   73 2    
   144   72   74 am   BACKBONE|DICT|INTERRES
   145   74   75 1    
   146   74  195 1    
   147   75   76 1    
   148   75   77 1    
   149   75  196 1    
   150   76  197 1    
   151   76  198 1    
   152   76  199 1    
   153   77   78 2    
   154   77   79 am   BACKBONE|DICT|INTERRES
   155   79   80 1    
   156   79  200 1    
   157   80   81 1    
   158   80   82 1    
   159   80  201 1    
   160   81  202 1    
   161   81  203 1    
   162   81  204 1    
   163   82   83 2    
   164   82   84 am   BACKBONE|DICT|INTERRES
   165   84   85 1    
   166   84  205 1    
   167   85   86 1    
   168   85   87 1    
   169   85  206 1    
   170   86  207 1    
   171   86  208 1    
   172   86  209 1    
   173   87   88 2    
   174   87   89 am   BACKBONE|DICT|INTERRES
   175   89   90 1    
   176   89  210 1    
   177   90   91 1    
   178   90   92 1    
   179   90  211 1    
   180   91  212 1    
   181   91  213 1    
   182   91  214 1    
   183   92   93 2    
   184   92   94 am   BACKBONE|DICT|INTERRES
   185   94   95 1    
   186   94  215 1    
   187   95   96 1    
   188   95   97 1    
   189   95  216 1    
   190   96  217 1    
   191   96  218 1    
   192   96  219 1    
   193   97   98 2    
   194   97   99 am   BACKBONE|DICT|INTERRES
   195   99  100 1    
   196   99  220 1    
   197  100  101 1    
   198  100  102 1    
   199  100  221 1    
   200  101  222 1    
   201  101  223 1    
   202  101  224 1    
   203  102  103 2    
   204  102  104 am   BACKBONE|DICT|INTERRES
   205  104  105 1    
   206  104  225 1    
   207  105  106 1    
   208  105  107 1    
   209  105  226 1    
   210  106  227 1    
   211  106  228 1    
   212  106  229 1    
   213  107  108 2    
   214  107  109 am   BACKBONE|DICT|INTERRES
   215  109  110 1    
   216  109  230 1    
   217  110  111 1    
   218  110  112 1    
   219  110  231 1    
   220  111  232 1    
   221  111  233 1    
   222  111  234 1    
   223  112  113 2    
   224  112  114 am   BACKBONE|DICT|INTERRES
   225  114  115 1    
   226  114  235 1    
   227  115  116 1    
   228  115  117 1    
   229  115  236 1    
   230  116  237 1    
   231  116  238 1    
   232  116  239 1    
   233  117  118 2    
   234  117  119 am   BACKBONE|DICT|INTERRES
   235  119  120 1    
   236  119  240 1    
   237  120  121 1    
   238  120  124 1    
   239  120  241 1    
   240  121  122 am   BACKBONE|DICT|INTERRES
   241  121  123 2    
   242  122  242 1    
   243  122  243 1    
   244  124  125 1    
   245  124  244 1    
   246  124  245 1    
   247  125  126 1    
   248  126  246 1    
   249  126  247 1    
@<TRIPOS>SUBSTRUCTURE
     1 UNK         1 GROUP             0       ****    0 ROOT    
