@<TRIPOS>MOLECULE
3R540
247   249    1
SMALL
USER_CHARGES


@<TRIPOS>ATOM
      1 CA         -1.5084  -11.9982  -44.0081 C.3       0 UNK        -0.1800 
      2 C          -0.5035  -12.0936  -45.1463 C.2       0 UNK         0.5000 
      3 O           0.6559  -12.4429  -44.9116 O.2       0 UNK        -0.5000 
      4 N          -0.9389  -11.7539  -46.3689 N.am      1 UNK        -0.5000 
      5 CA         -0.1892  -11.8358  -47.6364 C.3       1 UNK         0.1400 
      6 C6          0.1540  -13.2986  -48.0340 C.3       23 UNK        -0.0398 
      7 S7         -1.3291  -14.3131  -48.3482 S.3       23 UNK        -0.2404 
      8 C8         -0.5718  -15.7251  -49.2095 C.3       23 UNK        -0.0205 
      9 C9         -1.5855  -16.4903  -50.0434 C.ar      23 UNK        -0.0193 
     10 C10        -1.7853  -16.1551  -51.3857 C.ar      23 UNK        -0.1150 
     11 C11        -2.6728  -16.8900  -52.1796 C.ar      23 UNK        -0.0193 
     12 C12        -3.3764  -17.9554  -51.6103 C.ar      23 UNK        -0.1150 
     13 C13        -3.2023  -18.2855  -50.2637 C.ar      23 UNK        -0.0193 
     14 C14        -2.3041  -17.5501  -49.4858 C.ar      23 UNK        -0.1150 
     15 C15        -3.9927  -19.4316  -49.6539 C.3       23 UNK        -0.0205 
     16 S16        -3.0621  -20.9926  -49.7164 S.3       23 UNK        -0.2404 
     17 C17        -1.8971  -20.7645  -48.3303 C.3       23 UNK        -0.0398 
     18 CA         -1.4283  -22.0892  -47.6848 C.3       11 UNK         0.1400 
     19 N          -0.3143  -21.8624  -46.7604 N.am      11 UNK        -0.5000 
     20 C           0.4090  -22.8264  -46.1740 C.2       10 UNK         0.5000 
     21 O           0.2457  -24.0270  -46.3838 O.2       10 UNK        -0.5000 
     22 CA          1.4481  -22.3791  -45.1306 C.3       10 UNK         0.1400 
     23 CB          2.7153  -21.8404  -45.8100 C.3       10 UNK        -0.1800 
     24 N           0.9107  -21.3796  -44.2062 N.am      10 UNK        -0.5000 
     25 C          -0.1111  -21.6033  -43.3666 C.2       9 UNK         0.5000 
     26 O          -0.6627  -22.6967  -43.2405 O.2       9 UNK        -0.5000 
     27 CA         -0.6386  -20.3958  -42.5711 C.3       9 UNK         0.1400 
     28 CB          0.2240  -20.1434  -41.3259 C.3       9 UNK        -0.1800 
     29 N          -0.7108  -19.1759  -43.3765 N.am      9 UNK        -0.5000 
     30 C          -1.4963  -19.0140  -44.4509 C.2       8 UNK         0.5000 
     31 O          -2.2843  -19.8667  -44.8566 O.2       8 UNK        -0.5000 
     32 CA         -1.3265  -17.7084  -45.2472 C.3       8 UNK         0.1400 
     33 CB         -2.0508  -16.5338  -44.5730 C.3       8 UNK        -0.1800 
     34 N           0.0827  -17.3767  -45.4545 N.am      8 UNK        -0.5000 
     35 C           0.9234  -18.0956  -46.2126 C.2       7 UNK         0.5000 
     36 O           0.5806  -19.0821  -46.8632 O.2       7 UNK        -0.5000 
     37 CA          2.4002  -17.6598  -46.2124 C.3       7 UNK         0.1400 
     38 CB          2.6552  -16.5985  -47.2919 C.3       7 UNK        -0.1800 
     39 N           2.8261  -17.1432  -44.9108 N.am      7 UNK        -0.5000 
     40 C           2.9526  -17.8944  -43.8074 C.2       6 UNK         0.5000 
     41 O           2.7651  -19.1106  -43.7820 O.2       6 UNK        -0.5000 
     42 CA          3.2770  -17.1416  -42.5055 C.3       6 UNK         0.1400 
     43 CB          4.7768  -16.8249  -42.4152 C.3       6 UNK        -0.1800 
     44 N           2.4947  -15.9078  -42.3809 N.am      6 UNK        -0.5000 
     45 C           1.1654  -15.8891  -42.1933 C.2       5 UNK         0.5000 
     46 O           0.4942  -16.9166  -42.1051 O.2       5 UNK        -0.5000 
     47 CA          0.4383  -14.5290  -42.1641 C.3       5 UNK         0.1400 
     48 CB         -0.6637  -14.4691  -41.0864 C.3       5 UNK        -0.1800 
     49 N           1.3224  -13.3640  -42.0940 N.am      5 UNK        -0.5000 
     50 C           2.1185  -12.9921  -41.0799 C.2       4 UNK         0.5000 
     51 O           2.1660  -13.5736  -39.9950 O.2       4 UNK        -0.5000 
     52 CA          3.0369  -11.7776  -41.3480 C.3       4 UNK         0.1400 
     53 CB          4.3006  -11.7841  -40.4625 C.3       4 UNK        -0.1800 
     54 N           3.4068  -11.6232  -42.7628 N.am      4 UNK        -0.5000 
     55 C           4.0295  -12.5236  -43.5411 C.2       3 UNK         0.5000 
     56 O           4.3666  -13.6410  -43.1482 O.2       3 UNK        -0.5000 
     57 CA          4.2607  -12.1299  -45.0113 C.3       3 UNK         0.1400 
     58 CB          4.1618  -13.3469  -45.9501 C.3       3 UNK        -0.1800 
     59 N           3.2766  -11.1380  -45.4407 N.am      3 UNK        -0.5000 
     60 C           3.5393   -9.9414  -45.9831 C.2       2 UNK         0.5000 
     61 O           4.6774   -9.4881  -46.1143 O.2       2 UNK        -0.5000 
     62 CA          2.3167   -9.1151  -46.4525 C.3       2 UNK         0.1400 
     63 CB          2.6478   -8.1662  -47.6233 C.3       2 UNK        -0.1800 
     64 N           1.1448   -9.9476  -46.7613 N.am      2 UNK        -0.5000 
     65 C           1.0631  -10.9232  -47.6817 C.2       1 UNK         0.5000 
     66 O           1.9379  -11.1329  -48.5232 O.2       1 UNK        -0.5000 
     67 C          -2.5879  -22.8562  -47.0119 C.2       11 UNK         0.5000 
     68 O          -3.1217  -23.7913  -47.6098 O.2       11 UNK        -0.5000 
     69 N          -2.9383  -22.4830  -45.7730 N.am      12 UNK        -0.5000 
     70 CA         -3.9491  -23.1591  -44.9574 C.3       12 UNK         0.1400 
     71 CB         -4.1915  -22.3713  -43.6622 C.3       12 UNK        -0.1800 
     72 C          -3.6010  -24.6279  -44.6582 C.2       12 UNK         0.5000 
     73 O          -4.4853  -25.4822  -44.7156 O.2       12 UNK        -0.5000 
     74 N          -2.3215  -24.8949  -44.3721 N.am      13 UNK        -0.5000 
     75 CA         -1.7984  -26.2323  -44.1142 C.3       13 UNK         0.1400 
     76 CB         -0.4376  -26.1175  -43.4084 C.3       13 UNK        -0.1800 
     77 C          -1.6857  -27.0868  -45.3902 C.2       13 UNK         0.5000 
     78 O          -2.1874  -28.2115  -45.4124 O.2       13 UNK        -0.5000 
     79 N          -1.0002  -26.5599  -46.4130 N.am      14 UNK        -0.5000 
     80 CA         -0.5761  -27.3263  -47.5856 C.3       14 UNK         0.1400 
     81 CB          0.7280  -26.7237  -48.1317 C.3       14 UNK        -0.1800 
     82 C          -1.6263  -27.3968  -48.7054 C.2       14 UNK         0.5000 
     83 O          -1.6618  -28.3980  -49.4224 O.2       14 UNK        -0.5000 
     84 N          -2.4318  -26.3398  -48.8655 N.am      15 UNK        -0.5000 
     85 CA         -3.3397  -26.1567  -50.0018 C.3       15 UNK         0.1400 
     86 CB         -2.8168  -24.9932  -50.8622 C.3       15 UNK        -0.1800 
     87 C          -4.7943  -25.9175  -49.5637 C.2       15 UNK         0.5000 
     88 O          -5.6078  -25.5019  -50.3898 O.2       15 UNK        -0.5000 
     89 N          -5.0987  -26.1469  -48.2765 N.am      16 UNK        -0.5000 
     90 CA         -6.4080  -25.9654  -47.6333 C.3       16 UNK         0.1400 
     91 CB         -7.4060  -27.0254  -48.1448 C.3       16 UNK        -0.1800 
     92 C          -6.9616  -24.5259  -47.7489 C.2       16 UNK         0.5000 
     93 O          -8.1785  -24.3355  -47.7718 O.2       16 UNK        -0.5000 
     94 N          -6.0499  -23.5452  -47.8405 N.am      17 UNK        -0.5000 
     95 CA         -6.2903  -22.1170  -48.0712 C.3       17 UNK         0.1400 
     96 CB         -7.0987  -21.4846  -46.9178 C.3       17 UNK        -0.1800 
     97 C          -6.8923  -21.8123  -49.4617 C.2       17 UNK         0.5000 
     98 O          -7.5334  -20.7738  -49.6303 O.2       17 UNK        -0.5000 
     99 N          -6.6746  -22.7063  -50.4355 N.am      18 UNK        -0.5000 
    100 CA        -7.2494  -22.6429  -51.7766 C.3       18 UNK         0.1400 
    101 CB        -8.4992  -23.5422  -51.8273 C.3       18 UNK        -0.1800 
    102 C         -6.1974  -23.0068  -52.8389 C.2       18 UNK         0.5000 
    103 O         -6.4776  -23.7981  -53.7421 O.2       18 UNK        -0.5000 
    104 N         -4.9973  -22.4210  -52.7196 N.am      19 UNK        -0.5000 
    105 CA        -3.9212  -22.5445  -53.7058 C.3       19 UNK         0.1400 
    106 CB        -2.6298  -21.9540  -53.1280 C.3       19 UNK        -0.1800 
    107 C         -4.2739  -21.8613  -55.0421 C.2       19 UNK         0.5000 
    108 O         -5.0139  -20.8737  -55.0570 O.2       19 UNK        -0.5000 
    109 N         -3.7202  -22.3903  -56.1397 N.am      20 UNK        -0.5000 
    110 CA        -4.0135  -22.0112  -57.5252 C.3       20 UNK         0.1400 
    111 CB        -3.6274  -23.1878  -58.4406 C.3       20 UNK        -0.1800 
    112 C         -3.3620  -20.6795  -57.9631 C.2       20 UNK         0.5000 
    113 O         -2.6358  -20.6489  -58.9578 O.2       20 UNK        -0.5000 
    114 N         -3.6461  -19.6095  -57.2085 N.am      21 UNK        -0.5000 
    115 CA        -3.2847  -18.2035  -57.4349 C.3       21 UNK         0.1400 
    116 CB        -4.2497  -17.6015  -58.4766 C.3       21 UNK        -0.1800 
    117 C         -1.7970  -17.9659  -57.8026 C.2       21 UNK         0.5000 
    118 O         -1.5159  -17.4974  -58.9063 O.2       21 UNK        -0.5000 
    119 N         -0.8261  -18.2797  -56.9350 N.am      22 UNK        -0.5000 
    120 CA        -0.9333  -18.8313  -55.5716 C.3       22 UNK         0.1400 
    121 C         -0.1607  -20.1778  -55.4427 C.2       22 UNK         0.5000 
    122 N          0.0522  -20.9183  -56.5242 N.am      22 UNK        -0.7600 
    123 O          0.2575  -20.5624  -54.3553 O.2       22 UNK        -0.5000 
    124 C124       -0.5014  -17.8041  -54.4894 C.3       23 UNK        -0.0398 
    125 S125       -1.3797  -16.2049  -54.5889 S.3       23 UNK        -0.2404 
    126 C126       -2.9063  -16.5321  -53.6434 C.3       23 UNK        -0.0205 
    127 H127       -2.3525  -11.3604  -44.2707 H         1 UNK         0.0600 
    128 H128       -1.0352  -11.5824  -43.1185 H         1 UNK         0.0600 
    129 H129       -1.8928  -12.9878  -43.7625 H         1 UNK         0.0600 
    130 H130       -1.9011  -11.4621  -46.4713 H         1 UNK         0.3000 
    131 H131       -0.8541  -11.4350  -48.4030 H         1 UNK         0.0600 
    132 H132        0.7560  -13.7768  -47.2616 H         1 UNK         0.0800 
    133 H133        0.7544  -13.3161  -48.9449 H         1 UNK         0.0800 
    134 H134       -0.1175  -16.3887  -48.4739 H         1 UNK         0.0800 
    135 H135        0.2385  -15.3835  -49.8551 H         1 UNK         0.0800 
    136 H136       -1.2397  -15.3270  -51.8157 H         1 UNK         0.1150 
    137 H137       -4.0693  -18.5261  -52.2130 H         1 UNK         0.1150 
    138 H138       -2.1573  -17.8065  -48.4482 H         1 UNK         0.1150 
    139 H139       -4.2739  -19.1981  -48.6259 H         1 UNK         0.0800 
    140 H140       -4.9290  -19.5602  -50.1986 H         1 UNK         0.0800 
    141 H141       -2.3424  -20.1155  -47.5754 H         1 UNK         0.0800 
    142 H142       -1.0358  -20.2234  -48.7245 H         1 UNK         0.0800 
    143 H143       -1.0453  -22.7287  -48.4831 H         1 UNK         0.0600 
    144 H144       -0.0839  -20.8928  -46.5634 H         1 UNK         0.3000 
    145 H145        1.7273  -23.2567  -44.5438 H         1 UNK         0.0600 
    146 H146        3.4740  -21.5735  -45.0741 H         1 UNK         0.0600 
    147 H147        2.5074  -20.9563  -46.4119 H         1 UNK         0.0600 
    148 H148        3.1517  -22.5909  -46.4702 H         1 UNK         0.0600 
    149 H149        1.3572  -20.4680  -44.2044 H         1 UNK         0.3000 
    150 H150       -1.6508  -20.6338  -42.2386 H         1 UNK         0.0600 
    151 H151        0.2795  -21.0356  -40.7011 H         1 UNK         0.0600 
    152 H152       -0.1930  -19.3430  -40.7145 H         1 UNK         0.0600 
    153 H153        1.2436  -19.8629  -41.5915 H         1 UNK         0.0600 
    154 H154       -0.1280  -18.4009  -43.0706 H         1 UNK         0.3000 
    155 H155       -1.7820  -17.8593  -46.2263 H         1 UNK         0.0600 
    156 H156       -1.6834  -16.3522  -43.5640 H         1 UNK         0.0600 
    157 H157       -3.1202  -16.7336  -44.4968 H         1 UNK         0.0600 
    158 H158       -1.9327  -15.6142  -45.1471 H         1 UNK         0.0600 
    159 H159        0.4516  -16.5978  -44.9330 H         1 UNK         0.3000 
    160 H160        3.0077  -18.5361  -46.4472 H         1 UNK         0.0600 
    161 H161        2.0735  -15.6953  -47.1131 H         1 UNK         0.0600 
    162 H162        2.3851  -16.9744  -48.2796 H         1 UNK         0.0600 
    163 H163        3.7079  -16.3179  -47.3293 H         1 UNK         0.0600 
    164 H164        3.0051  -16.1525  -44.8419 H         1 UNK         0.3000 
    165 H165        3.0187  -17.7931  -41.6679 H         1 UNK         0.0600 
    166 H166        5.0130  -16.2920  -41.4940 H         1 UNK         0.0600 
    167 H167        5.3681  -17.7414  -42.4231 H         1 UNK         0.0600 
    168 H168        5.1136  -16.2122  -43.2520 H         1 UNK         0.0600 
    169 H169        3.0027  -15.0339  -42.4706 H         1 UNK         0.3000 
    170 H170       -0.0564  -14.4580  -43.1321 H         1 UNK         0.0600 
    171 H171       -1.4179  -15.2389  -41.2534 H         1 UNK         0.0600 
    172 H172       -0.2624  -14.6231  -40.0847 H         1 UNK         0.0600 
    173 H173       -1.1768  -13.5077  -41.0997 H         1 UNK         0.0600 
    174 H174        1.3742  -12.8277  -42.9530 H         1 UNK         0.3000 
    175 H175        2.4527  -10.8949  -41.0847 H         1 UNK         0.0600 
    176 H176        4.9046  -12.6771  -40.6269 H         1 UNK         0.0600 
    177 H177        4.9265  -10.9146  -40.6626 H         1 UNK         0.0600 
    178 H178        4.0392  -11.7562  -39.4041 H         1 UNK         0.0600 
    179 H179        3.1524  -10.7434  -43.1888 H         1 UNK         0.3000 
    180 H180        5.2719  -11.7237  -45.0732 H         1 UNK         0.0600 
    181 H181        4.3186  -13.0556  -46.9889 H         1 UNK         0.0600 
    182 H182        3.1823  -13.8210  -45.8821 H         1 UNK         0.0600 
    183 H183        4.9137  -14.0991  -45.7081 H         1 UNK         0.0600 
    184 H184        2.3076  -11.4328  -45.3597 H         1 UNK         0.3000 
    185 H185        2.0311   -8.4960  -45.6011 H         1 UNK         0.0600 
    186 H186        3.0280   -8.7065  -48.4906 H         1 UNK         0.0600 
    187 H187        1.7678   -7.6047  -47.9367 H         1 UNK         0.0600 
    188 H188        3.4081   -7.4397  -47.3344 H         1 UNK         0.0600 
    189 H189        0.3648   -9.8535  -46.1260 H         1 UNK         0.3000 
    190 H190       -2.4996  -21.6621  -45.3629 H         1 UNK         0.3000 
    191 H191       -4.8821  -23.1586  -45.5165 H         1 UNK         0.0600 
    192 H192       -4.5068  -21.3498  -43.8757 H         1 UNK         0.0600 
    193 H193       -3.2961  -22.3235  -43.0438 H         1 UNK         0.0600 
    194 H194       -4.9772  -22.8359  -43.0653 H         1 UNK         0.0600 
    195 H195       -1.6668  -24.1231  -44.2960 H         1 UNK         0.3000 
    196 H196       -2.4831  -26.7418  -43.4328 H         1 UNK         0.0600 
    197 H197       -0.5327  -25.5948  -42.4564 H         1 UNK         0.0600 
    198 H198        0.2887  -25.5737  -44.0134 H         1 UNK         0.0600 
    199 H199       -0.0204  -27.1032  -43.1988 H         1 UNK         0.0600 
    200 H200       -0.6180  -25.6192  -46.3265 H         1 UNK         0.3000 
    201 H201       -0.3578  -28.3508  -47.2758 H         1 UNK         0.0600 
    202 H202        1.5019  -26.6946  -47.3645 H         1 UNK         0.0600 
    203 H203        0.5795  -25.7066  -48.4966 H         1 UNK         0.0600 
    204 H204        1.1148  -27.3158  -48.9621 H         1 UNK         0.0600 
    205 H205       -2.3697  -25.5551  -48.2243 H         1 UNK         0.3000 
    206 H206       -3.3614  -27.0507  -50.6275 H         1 UNK         0.0600 
    207 H207       -2.8410  -24.0494  -50.3174 H         1 UNK         0.0600 
    208 H208       -1.7901  -25.1684  -51.1834 H         1 UNK         0.0600 
    209 H209       -3.4192  -24.8693  -51.7622 H         1 UNK         0.0600 
    210 H210       -4.3516  -26.4555  -47.6704 H         1 UNK         0.3000 
    211 H211       -6.2570  -26.1465  -46.5692 H         1 UNK         0.0600 
    212 H212       -7.6620  -26.8670  -49.1929 H         1 UNK         0.0600 
    213 H213       -8.3346  -26.9983  -47.5737 H         1 UNK         0.0600 
    214 H214       -6.9973  -28.0311  -48.0473 H         1 UNK         0.0600 
    215 H215       -5.0704  -23.8172  -47.8256 H         1 UNK         0.3000 
    216 H216       -5.3076  -21.6496  -48.0571 H         1 UNK         0.0600 
    217 H217       -7.1217  -20.3981  -47.0096 H         1 UNK         0.0600 
    218 H218       -6.6605  -21.7125  -45.9471 H         1 UNK         0.0600 
    219 H219       -8.1326  -21.8299  -46.9085 H         1 UNK         0.0600 
    220 H220       -6.1495  -23.5516  -50.2319 H         1 UNK         0.3000 
    221 H221       -7.5592  -21.6214  -52.0059 H         1 UNK         0.0600 
    222 H222       -8.2471  -24.5848  -51.6288 H         1 UNK         0.0600 
    223 H223       -9.2378  -23.2315  -51.0882 H         1 UNK         0.0600 
    224 H224       -8.9801  -23.4962  -52.8051 H         1 UNK         0.0600 
    225 H225       -4.8417  -21.7810  -51.9550 H         1 UNK         0.3000 
    226 H226       -3.7597  -23.6080  -53.8937 H         1 UNK         0.0600 
    227 H227       -2.3536  -22.4391  -52.1932 H         1 UNK         0.0600 
    228 H228       -1.8000  -22.1068  -53.8165 H         1 UNK         0.0600 
    229 H229       -2.7171  -20.8826  -52.9417 H         1 UNK         0.0600 
    230 H230       -3.0834  -23.1662  -56.0294 H         1 UNK         0.3000 
    231 H231       -5.0929  -21.8716  -57.6159 H         1 UNK         0.0600 
    232 H232       -3.8833  -22.9779  -59.4800 H         1 UNK         0.0600 
    233 H233       -4.1568  -24.0980  -58.1582 H         1 UNK         0.0600 
    234 H234       -2.5573  -23.3949  -58.3997 H         1 UNK         0.0600 
    235 H235       -4.2304  -19.7870  -56.3951 H         1 UNK         0.3000 
    236 H236       -3.4622  -17.6751  -56.4988 H         1 UNK         0.0600 
    237 H237       -4.1549  -18.0928  -59.4457 H         1 UNK         0.0600 
    238 H238       -5.2865  -17.6972  -58.1541 H         1 UNK         0.0600 
    239 H239       -4.0549  -16.5385  -58.6247 H         1 UNK         0.0600 
    240 H240        0.1258  -18.1329  -57.2364 H         1 UNK         0.3000 
    241 H241       -1.9625  -19.0962  -55.3413 H         1 UNK         0.0600 
    242 H242        0.5625  -21.7832  -56.4379 H         1 UNK         0.3800 
    243 H243       -0.2833  -20.6219  -57.4284 H         1 UNK         0.3800 
    244 H244        0.5658  -17.5964  -54.5802 H         1 UNK         0.0800 
    245 H245       -0.6385  -18.2191  -53.4895 H         1 UNK         0.0800 
    246 H246       -3.4641  -17.3242  -54.1441 H         1 UNK         0.0800 
    247 H247       -3.5360  -15.6426  -53.6831 H         1 UNK         0.0800 
@<TRIPOS>BOND
     1    1    2 1    
     2    1  127 1    
     3    1  128 1    
     4    1  129 1    
     5    2    3 2    
     6    2    4 am   BACKBONE|DICT|INTERRES
     7    4    5 1    
     8    4  130 1    
     9    5    6 1    
    10    5   65 1    
    11    5  131 1    
    12    6    7 1    
    13    6  132 1    
    14    6  133 1    
    15    7    8 1    
    16    8    9 1    
    17    8  134 1    
    18    8  135 1    
    19    9   10 ar   
    20    9   14 ar   
    21   10   11 ar   
    22   10  136 1    
    23   11   12 ar   
    24   11  126 1    
    25   12   13 ar   
    26   12  137 1    
    27   13   14 ar   
    28   13   15 1    
    29   14  138 1    
    30   15   16 1    
    31   15  139 1    
    32   15  140 1    
    33   16   17 1    
    34   17   18 1    
    35   17  141 1    
    36   17  142 1    
    37   18   19 1    
    38   18   67 1    
    39   18  143 1    
    40   19   20 am   BACKBONE|DICT|INTERRES
    41   19  144 1    
    42   20   21 2    
    43   20   22 1    
    44   22   23 1    
    45   22   24 1    
    46   22  145 1    
    47   23  146 1    
    48   23  147 1    
    49   23  148 1    
    50   24   25 am   BACKBONE|DICT|INTERRES
    51   24  149 1    
    52   25   26 2    
    53   25   27 1    
    54   27   28 1    
    55   27   29 1    
    56   27  150 1    
    57   28  151 1    
    58   28  152 1    
    59   28  153 1    
    60   29   30 am   BACKBONE|DICT|INTERRES
    61   29  154 1    
    62   30   31 2    
    63   30   32 1    
    64   32   33 1    
    65   32   34 1    
    66   32  155 1    
    67   33  156 1    
    68   33  157 1    
    69   33  158 1    
    70   34   35 am   BACKBONE|DICT|INTERRES
    71   34  159 1    
    72   35   36 2    
    73   35   37 1    
    74   37   38 1    
    75   37   39 1    
    76   37  160 1    
    77   38  161 1    
    78   38  162 1    
    79   38  163 1    
    80   39   40 am   BACKBONE|DICT|INTERRES
    81   39  164 1    
    82   40   41 2    
    83   40   42 1    
    84   42   43 1    
    85   42   44 1    
    86   42  165 1    
    87   43  166 1    
    88   43  167 1    
    89   43  168 1    
    90   44   45 am   BACKBONE|DICT|INTERRES
    91   44  169 1    
    92   45   46 2    
    93   45   47 1    
    94   47   48 1    
    95   47   49 1    
    96   47  170 1    
    97   48  171 1    
    98   48  172 1    
    99   48  173 1    
   100   49   50 am   BACKBONE|DICT|INTERRES
   101   49  174 1    
   102   50   51 2    
   103   50   52 1    
   104   52   53 1    
   105   52   54 1    
   106   52  175 1    
   107   53  176 1    
   108   53  177 1    
   109   53  178 1    
   110   54   55 am   BACKBONE|DICT|INTERRES
   111   54  179 1    
   112   55   56 2    
   113   55   57 1    
   114   57   58 1    
   115   57   59 1    
   116   57  180 1    
   117   58  181 1    
   118   58  182 1    
   119   58  183 1    
   120   59   60 am   BACKBONE|DICT|INTERRES
   121   59  184 1    
   122   60   61 2    
   123   60   62 1    
   124   62   63 1    
   125   62   64 1    
   126   62  185 1    
   127   63  186 1    
   128   63  187 1    
   129   63  188 1    
   130   64   65 am   BACKBONE|DICT|INTERRES
   131   64  189 1    
   132   65   66 2    
   133   67   68 2    
   134   67   69 am   BACKBONE|DICT|INTERRES
   135   69   70 1    
   136   69  190 1    
   137   70   71 1    
   138   70   72 1    
   139   70  191 1    
   140   71  192 1    
   141   71  193 1    
   142   71  194 1    
   143   72   73 2    
   144   72   74 am   BACKBONE|DICT|INTERRES
   145   74   75 1    
   146   74  195 1    
   147   75   76 1    
   148   75   77 1    
   149   75  196 1    
   150   76  197 1    
   151   76  198 1    
   152   76  199 1    
   153   77   78 2    
   154   77   79 am   BACKBONE|DICT|INTERRES
   155   79   80 1    
   156   79  200 1    
   157   80   81 1    
   158   80   82 1    
   159   80  201 1    
   160   81  202 1    
   161   81  203 1    
   162   81  204 1    
   163   82   83 2    
   164   82   84 am   BACKBONE|DICT|INTERRES
   165   84   85 1    
   166   84  205 1    
   167   85   86 1    
   168   85   87 1    
   169   85  206 1    
   170   86  207 1    
   171   86  208 1    
   172   86  209 1    
   173   87   88 2    
   174   87   89 am   BACKBONE|DICT|INTERRES
   175   89   90 1    
   176   89  210 1    
   177   90   91 1    
   178   90   92 1    
   179   90  211 1    
   180   91  212 1    
   181   91  213 1    
   182   91  214 1    
   183   92   93 2    
   184   92   94 am   BACKBONE|DICT|INTERRES
   185   94   95 1    
   186   94  215 1    
   187   95   96 1    
   188   95   97 1    
   189   95  216 1    
   190   96  217 1    
   191   96  218 1    
   192   96  219 1    
   193   97   98 2    
   194   97   99 am   BACKBONE|DICT|INTERRES
   195   99  100 1    
   196   99  220 1    
   197  100  101 1    
   198  100  102 1    
   199  100  221 1    
   200  101  222 1    
   201  101  223 1    
   202  101  224 1    
   203  102  103 2    
   204  102  104 am   BACKBONE|DICT|INTERRES
   205  104  105 1    
   206  104  225 1    
   207  105  106 1    
   208  105  107 1    
   209  105  226 1    
   210  106  227 1    
   211  106  228 1    
   212  106  229 1    
   213  107  108 2    
   214  107  109 am   BACKBONE|DICT|INTERRES
   215  109  110 1    
   216  109  230 1    
   217  110  111 1    
   218  110  112 1    
   219  110  231 1    
   220  111  232 1    
   221  111  233 1    
   222  111  234 1    
   223  112  113 2    
   224  112  114 am   BACKBONE|DICT|INTERRES
   225  114  115 1    
   226  114  235 1    
   227  115  116 1    
   228  115  117 1    
   229  115  236 1    
   230  116  237 1    
   231  116  238 1    
   232  116  239 1    
   233  117  118 2    
   234  117  119 am   BACKBONE|DICT|INTERRES
   235  119  120 1    
   236  119  240 1    
   237  120  121 1    
   238  120  124 1    
   239  120  241 1    
   240  121  122 am   BACKBONE|DICT|INTERRES
   241  121  123 2    
   242  122  242 1    
   243  122  243 1    
   244  124  125 1    
   245  124  244 1    
   246  124  245 1    
   247  125  126 1    
   248  126  246 1    
   249  126  247 1    
@<TRIPOS>SUBSTRUCTURE
     1 UNK         1 GROUP             0       ****    0 ROOT    
