@<TRIPOS>MOLECULE
3R540
247   249    1
SMALL
USER_CHARGES


@<TRIPOS>ATOM
      1 CA         -0.2117  -10.6364  -46.1345 C.3       0 UNK        -0.1800 
      2 C          -0.2110  -11.1488  -47.5671 C.2       0 UNK         0.5000 
      3 O           0.8495  -11.2401  -48.1854 O.2       0 UNK        -0.5000 
      4 N          -1.3911  -11.5052  -48.0917 N.am      1 UNK        -0.5000 
      5 CA         -1.6066  -12.0208  -49.4530 C.3       1 UNK         0.1400 
      6 C6         -3.1083  -12.0770  -49.8330 C.3       23 UNK        -0.0398 
      7 S7         -4.1793  -12.8833  -48.5886 S.3       23 UNK        -0.2404 
      8 C8         -4.8982  -14.2752  -49.5186 C.3       23 UNK        -0.0205 
      9 C9         -4.0317  -15.5247  -49.4631 C.ar      23 UNK        -0.0193 
     10 C10        -3.4385  -16.0371  -50.6226 C.ar      23 UNK        -0.1150 
     11 C11        -2.7037  -17.2265  -50.5741 C.ar      23 UNK        -0.0193 
     12 C12        -2.5450  -17.8853  -49.3531 C.ar      23 UNK        -0.1150 
     13 C13        -3.1343  -17.3873  -48.1912 C.ar      23 UNK        -0.0193 
     14 C14        -3.8771  -16.2063  -48.2514 C.ar      23 UNK        -0.1150 
     15 C15        -2.9557  -18.1263  -46.8765 C.3       23 UNK        -0.0205 
     16 S16        -4.0994  -19.5321  -46.7374 S.3       23 UNK        -0.2404 
     17 C17        -3.5722  -20.2437  -45.1415 C.3       23 UNK        -0.0398 
     18 CA         -2.7648  -21.5584  -45.2832 C.3       11 UNK         0.1400 
     19 N          -1.9671  -21.8178  -44.0708 N.am      11 UNK        -0.5000 
     20 C          -1.2532  -22.9140  -43.7726 C.2       10 UNK         0.5000 
     21 O          -1.2952  -23.9519  -44.4334 O.2       10 UNK        -0.5000 
     22 CA         -0.3308  -22.8578  -42.5393 C.3       10 UNK         0.1400 
     23 CB          0.9778  -23.6300  -42.7839 C.3       10 UNK        -0.1800 
     24 N           0.0041  -21.4907  -42.1335 N.am      10 UNK        -0.5000 
     25 C          -0.5908  -20.8202  -41.1389 C.2       9 UNK         0.5000 
     26 O          -1.5607  -21.2465  -40.5115 O.2       9 UNK        -0.5000 
     27 CA         -0.0081  -19.4389  -40.7881 C.3       9 UNK         0.1400 
     28 CB          1.2723  -19.5867  -39.9517 C.3       9 UNK        -0.1800 
     29 N           0.2754  -18.6210  -41.9663 N.am      9 UNK        -0.5000 
     30 C          -0.6592  -18.0968  -42.7704 C.2       8 UNK         0.5000 
     31 O          -1.8695  -18.2436  -42.6001 O.2       8 UNK        -0.5000 
     32 CA         -0.1549  -17.2860  -43.9786 C.3       8 UNK         0.1400 
     33 CB          0.2296  -15.8604  -43.5505 C.3       8 UNK        -0.1800 
     34 N           0.9756  -17.9301  -44.6496 N.am      8 UNK        -0.5000 
     35 C           0.9010  -19.1101  -45.2833 C.2       7 UNK         0.5000 
     36 O          -0.1424  -19.7392  -45.4317 O.2       7 UNK        -0.5000 
     37 CA          2.2130  -19.7136  -45.8076 C.3       7 UNK         0.1400 
     38 CB          2.5339  -19.1926  -47.2160 C.3       7 UNK        -0.1800 
     39 N           3.3363  -19.4585  -44.9067 N.am      7 UNK        -0.5000 
     40 C           3.4578  -20.0021  -43.6865 C.2       6 UNK         0.5000 
     41 O           2.6520  -20.7999  -43.2083 O.2       6 UNK        -0.5000 
     42 CA          4.6528  -19.5305  -42.8397 C.3       6 UNK         0.1400 
     43 CB          5.9325  -20.2805  -43.2383 C.3       6 UNK        -0.1800 
     44 N           4.8757  -18.0889  -42.9549 N.am      6 UNK        -0.5000 
     45 C           4.0191  -17.1545  -42.5181 C.2       5 UNK         0.5000 
     46 O           2.9751  -17.4128  -41.9201 O.2       5 UNK        -0.5000 
     47 CA          4.3646  -15.6910  -42.8501 C.3       5 UNK         0.1400 
     48 CB          5.2475  -15.0816  -41.7512 C.3       5 UNK        -0.1800 
     49 N           5.0293  -15.5419  -44.1486 N.am      5 UNK        -0.5000 
     50 C           4.4502  -15.8031  -45.3276 C.2       4 UNK         0.5000 
     51 O           3.2897  -16.2046  -45.4443 O.2       4 UNK        -0.5000 
     52 CA          5.3350  -15.6507  -46.5735 C.3       4 UNK         0.1400 
     53 CB          5.8813  -17.0179  -47.0121 C.3       4 UNK        -0.1800 
     54 N           4.5631  -15.0731  -47.6692 N.am      4 UNK        -0.5000 
     55 C           4.4990  -13.7688  -47.9549 C.2       3 UNK         0.5000 
     56 O           5.1465  -12.9084  -47.3566 O.2       3 UNK        -0.5000 
     57 CA          3.5444  -13.3401  -49.0854 C.3       3 UNK         0.1400 
     58 CB          4.1258  -13.6564  -50.4772 C.3       3 UNK        -0.1800 
     59 N           2.1787  -13.8520  -48.9313 N.am      3 UNK        -0.5000 
     60 C           1.7223  -15.1093  -49.0466 C.2       2 UNK         0.5000 
     61 O           2.4358  -16.0712  -49.3328 O.2       2 UNK        -0.5000 
     62 CA          0.2268  -15.3476  -48.7480 C.3       2 UNK         0.1400 
     63 CB          0.0824  -16.0810  -47.4091 C.3       2 UNK        -0.1800 
     64 N          -0.5620  -14.1166  -48.6865 N.am      2 UNK        -0.5000 
     65 C          -0.8916  -13.3586  -49.7411 C.2       1 UNK         0.5000 
     66 O          -0.6134  -13.6485  -50.9036 O.2       1 UNK        -0.5000 
     67 C          -3.6768  -22.7213  -45.7298 C.2       11 UNK         0.5000 
     68 O          -3.7595  -23.0058  -46.9272 O.2       11 UNK        -0.5000 
     69 N          -4.3048  -23.4003  -44.7598 N.am      12 UNK        -0.5000 
     70 CA         -5.1747  -24.5623  -44.9585 C.3       12 UNK         0.1400 
     71 CB         -5.7686  -24.9750  -43.6040 C.3       12 UNK        -0.1800 
     72 C          -4.4882  -25.7678  -45.6335 C.2       12 UNK         0.5000 
     73 O          -5.1717  -26.5473  -46.2969 O.2       12 UNK        -0.5000 
     74 N          -3.1657  -25.8909  -45.4669 N.am      13 UNK        -0.5000 
     75 CA         -2.3365  -26.9272  -46.0785 C.3       13 UNK         0.1400 
     76 CB         -1.5028  -27.6108  -44.9830 C.3       13 UNK        -0.1800 
     77 C          -1.4164  -26.3370  -47.1593 C.2       13 UNK         0.5000 
     78 O          -1.2580  -26.9474  -48.2164 O.2       13 UNK        -0.5000 
     79 N          -0.8256  -25.1667  -46.8799 N.am      14 UNK        -0.5000 
     80 CA          0.1754  -24.5067  -47.7194 C.3       14 UNK         0.1400 
     81 CB          0.8369  -23.3714  -46.9214 C.3       14 UNK        -0.1800 
     82 C          -0.3813  -23.9678  -49.0473 C.2       14 UNK         0.5000 
     83 O           0.3387  -23.9789  -50.0464 O.2       14 UNK        -0.5000 
     84 N          -1.6369  -23.5044  -49.0345 N.am      15 UNK        -0.5000 
     85 CA         -2.3072  -22.9031  -50.1879 C.3       15 UNK         0.1400 
     86 CB         -2.3369  -21.3803  -49.9964 C.3       15 UNK        -0.1800 
     87 C          -3.7199  -23.4680  -50.4038 C.2       15 UNK         0.5000 
     88 O          -4.4770  -22.9018  -51.1952 O.2       15 UNK        -0.5000 
     89 N          -4.0617  -24.5476  -49.6839 N.am      16 UNK        -0.5000 
     90 CA         -5.3693  -25.2112  -49.6585 C.3       16 UNK         0.1400 
     91 CB         -5.6096  -25.9742  -50.9770 C.3       16 UNK        -0.1800 
     92 C          -6.5171  -24.2490  -49.2782 C.2       16 UNK         0.5000 
     93 O          -7.5773  -24.2690  -49.9040 O.2       16 UNK        -0.5000 
     94 N          -6.2545  -23.4062  -48.2672 N.am      17 UNK        -0.5000 
     95 CA         -7.1084  -22.3306  -47.7536 C.3       17 UNK         0.1400 
     96 CB         -8.4342  -22.8808  -47.1859 C.3       17 UNK        -0.1800 
     97 C          -7.2961  -21.2038  -48.7887 C.2       17 UNK         0.5000 
     98 O          -8.4226  -20.7826  -49.0571 O.2       17 UNK        -0.5000 
     99 N          -6.1646  -20.7457  -49.3449 N.am      18 UNK        -0.5000 
    100 CA        -6.0257  -19.6635  -50.3272 C.3       18 UNK         0.1400 
    101 CB        -6.4875  -18.3169  -49.7318 C.3       18 UNK        -0.1800 
    102 C         -6.6878  -19.9720  -51.6873 C.2       18 UNK         0.5000 
    103 O         -7.1159  -19.0517  -52.3866 O.2       18 UNK        -0.5000 
    104 N         -6.7536  -21.2603  -52.0470 N.am      19 UNK        -0.5000 
    105 CA        -7.2108  -21.7272  -53.3549 C.3       19 UNK         0.1400 
    106 CB        -7.7414  -23.1614  -53.2266 C.3       19 UNK        -0.1800 
    107 C         -6.0837  -21.6511  -54.4002 C.2       19 UNK         0.5000 
    108 O         -6.3603  -21.4022  -55.5747 O.2       19 UNK        -0.5000 
    109 N         -4.8355  -21.8513  -53.9547 N.am      20 UNK        -0.5000 
    110 CA        -3.6240  -21.6533  -54.7483 C.3       20 UNK         0.1400 
    111 CB        -2.4441  -22.3067  -54.0125 C.3       20 UNK        -0.1800 
    112 C         -3.3388  -20.1574  -54.9849 C.2       20 UNK         0.5000 
    113 O         -3.7840  -19.3117  -54.2058 O.2       20 UNK        -0.5000 
    114 N         -2.5705  -19.8608  -56.0390 N.am      21 UNK        -0.5000 
    115 CA        -2.0541  -18.5222  -56.3230 C.3       21 UNK         0.1400 
    116 CB        -1.6818  -18.4342  -57.8113 C.3       21 UNK        -0.1800 
    117 C         -0.8310  -18.2138  -55.4398 C.2       21 UNK         0.5000 
    118 O         -0.0193  -19.1091  -55.1911 O.2       21 UNK        -0.5000 
    119 N         -0.7107  -16.9526  -55.0157 N.am      22 UNK        -0.5000 
    120 CA         0.3969  -16.4185  -54.2090 C.3       22 UNK         0.1400 
    121 C          0.8888  -15.0740  -54.8054 C.2       22 UNK         0.5000 
    122 N          2.1586  -14.7371  -54.6254 N.am      22 UNK        -0.7600 
    123 O          0.1278  -14.3201  -55.4099 O.2       22 UNK        -0.5000 
    124 C124        0.0009  -16.2358  -52.7199 C.3       23 UNK        -0.0398 
    125 S125       -0.3111  -17.8168  -51.8688 S.3       23 UNK        -0.2404 
    126 C126       -2.1296  -17.8459  -51.8387 C.3       23 UNK        -0.0205 
    127 H127       -1.2158  -10.6210  -45.7099 H         1 UNK         0.0600 
    128 H128        0.1886   -9.6233  -46.0988 H         1 UNK         0.0600 
    129 H129        0.4130  -11.2735  -45.5084 H         1 UNK         0.0600 
    130 H130       -2.2279  -11.4281  -47.5299 H         1 UNK         0.3000 
    131 H131       -1.1415  -11.2978  -50.1267 H         1 UNK         0.0600 
    132 H132       -3.4772  -11.0577  -49.9531 H         1 UNK         0.0800 
    133 H133       -3.2439  -12.5444  -50.8100 H         1 UNK         0.0800 
    134 H134       -5.8700  -14.5129  -49.0835 H         1 UNK         0.0800 
    135 H135       -5.0987  -13.9770  -50.5486 H         1 UNK         0.0800 
    136 H136       -3.5717  -15.5270  -51.5660 H         1 UNK         0.1150 
    137 H137       -1.9662  -18.7945  -49.3069 H         1 UNK         0.1150 
    138 H138       -4.3446  -15.8194  -47.3570 H         1 UNK         0.1150 
    139 H139       -1.9302  -18.4879  -46.8060 H         1 UNK         0.0800 
    140 H140       -3.1084  -17.4481  -46.0357 H         1 UNK         0.0800 
    141 H141       -2.9682  -19.4962  -44.6278 H         1 UNK         0.0800 
    142 H142       -4.4516  -20.3880  -44.5115 H         1 UNK         0.0800 
    143 H143       -2.0377  -21.4207  -46.0852 H         1 UNK         0.0600 
    144 H144       -1.8310  -21.0197  -43.4672 H         1 UNK         0.3000 
    145 H145       -0.8615  -23.3650  -41.7313 H         1 UNK         0.0600 
    146 H146        1.6295  -23.5876  -41.9112 H         1 UNK         0.0600 
    147 H147        0.7849  -24.6834  -42.9911 H         1 UNK         0.0600 
    148 H148        1.5297  -23.2240  -43.6319 H         1 UNK         0.0600 
    149 H149        0.8127  -21.0771  -42.5908 H         1 UNK         0.3000 
    150 H150       -0.7470  -18.9110  -40.1815 H         1 UNK         0.0600 
    151 H151        1.0893  -20.1826  -39.0567 H         1 UNK         0.0600 
    152 H152        1.6431  -18.6148  -39.6254 H         1 UNK         0.0600 
    153 H153        2.0684  -20.0743  -40.5154 H         1 UNK         0.0600 
    154 H154        1.2505  -18.4021  -42.1452 H         1 UNK         0.3000 
    155 H155       -0.9722  -17.2143  -44.6981 H         1 UNK         0.0600 
    156 H156       -0.6318  -15.3368  -43.1345 H         1 UNK         0.0600 
    157 H157        0.5929  -15.2695  -44.3899 H         1 UNK         0.0600 
    158 H158        1.0071  -15.8619  -42.7874 H         1 UNK         0.0600 
    159 H159        1.8629  -17.4392  -44.6357 H         1 UNK         0.3000 
    160 H160        2.0745  -20.7949  -45.8727 H         1 UNK         0.0600 
    161 H161        2.6782  -18.1122  -47.2266 H         1 UNK         0.0600 
    162 H162        1.7206  -19.4174  -47.9074 H         1 UNK         0.0600 
    163 H163        3.4352  -19.6581  -47.6143 H         1 UNK         0.0600 
    164 H164        4.0127  -18.7726  -45.2044 H         1 UNK         0.3000 
    165 H165        4.4328  -19.7591  -41.7947 H         1 UNK         0.0600 
    166 H166        6.7672  -20.0057  -42.5931 H         1 UNK         0.0600 
    167 H167        5.7955  -21.3590  -43.1489 H         1 UNK         0.0600 
    168 H168        6.2212  -20.0704  -44.2689 H         1 UNK         0.0600 
    169 H169        5.7149  -17.7902  -43.4288 H         1 UNK         0.3000 
    170 H170        3.4282  -15.1304  -42.8850 H         1 UNK         0.0600 
    171 H171        4.7659  -15.1612  -40.7756 H         1 UNK         0.0600 
    172 H172        6.2128  -15.5846  -41.6829 H         1 UNK         0.0600 
    173 H173        5.4319  -14.0230  -41.9353 H         1 UNK         0.0600 
    174 H174        5.9867  -15.2208  -44.1301 H         1 UNK         0.3000 
    175 H175        6.1833  -15.0061  -46.3335 H         1 UNK         0.0600 
    176 H176        5.0821  -17.7027  -47.2946 H         1 UNK         0.0600 
    177 H177        6.5473  -16.9156  -47.8691 H         1 UNK         0.0600 
    178 H178        6.4532  -17.4892  -46.2118 H         1 UNK         0.0600 
    179 H179        3.9381  -15.6962  -48.1727 H         1 UNK         0.3000 
    180 H180        3.4503  -12.2551  -49.0177 H         1 UNK         0.0600 
    181 H181        4.2943  -14.7238  -50.6212 H         1 UNK         0.0600 
    182 H182        5.0849  -13.1566  -50.6174 H         1 UNK         0.0600 
    183 H183        3.4604  -13.3123  -51.2691 H         1 UNK         0.0600 
    184 H184        1.5071  -13.1399  -48.6645 H         1 UNK         0.3000 
    185 H185       -0.1862  -15.9759  -49.5378 H         1 UNK         0.0600 
    186 H186        0.7069  -15.6293  -46.6389 H         1 UNK         0.0600 
    187 H187       -0.9451  -16.0740  -47.0500 H         1 UNK         0.0600 
    188 H188        0.3870  -17.1220  -47.5106 H         1 UNK         0.0600 
    189 H189       -0.8385  -13.7990  -47.7696 H         1 UNK         0.3000 
    190 H190       -4.1504  -23.1151  -43.8037 H         1 UNK         0.3000 
    191 H191       -5.9962  -24.2532  -45.6053 H         1 UNK         0.0600 
    192 H192       -4.9912  -25.2668  -42.8968 H         1 UNK         0.0600 
    193 H193       -6.3410  -24.1609  -43.1590 H         1 UNK         0.0600 
    194 H194       -6.4462  -25.8227  -43.7156 H         1 UNK         0.0600 
    195 H195       -2.6730  -25.1795  -44.9350 H         1 UNK         0.3000 
    196 H196       -2.9577  -27.6895  -46.5533 H         1 UNK         0.0600 
    197 H197       -2.1450  -28.0862  -44.2415 H         1 UNK         0.0600 
    198 H198       -0.8599  -26.9005  -44.4612 H         1 UNK         0.0600 
    199 H199       -0.8629  -28.3869  -45.4049 H         1 UNK         0.0600 
    200 H200       -1.0020  -24.7340  -45.9751 H         1 UNK         0.3000 
    201 H201        0.9449  -25.2431  -47.9607 H         1 UNK         0.0600 
    202 H202        1.6130  -22.8797  -47.5094 H         1 UNK         0.0600 
    203 H203        1.3085  -23.7508  -46.0153 H         1 UNK         0.0600 
    204 H204        0.1147  -22.6079  -46.6298 H         1 UNK         0.0600 
    205 H205       -2.1610  -23.5059  -48.1661 H         1 UNK         0.3000 
    206 H206       -1.7592  -23.1246  -51.1051 H         1 UNK         0.0600 
    207 H207       -1.3258  -20.9759  -49.9469 H         1 UNK         0.0600 
    208 H208       -2.8564  -21.1038  -49.0786 H         1 UNK         0.0600 
    209 H209       -2.8428  -20.8861  -50.8250 H         1 UNK         0.0600 
    210 H210       -3.3594  -24.9395  -49.0740 H         1 UNK         0.3000 
    211 H211       -5.3258  -25.9537  -48.8621 H         1 UNK         0.0600 
    212 H212       -4.8367  -26.7258  -51.1372 H         1 UNK         0.0600 
    213 H213       -6.5677  -26.4949  -50.9650 H         1 UNK         0.0600 
    214 H214       -5.6045  -25.3091  -51.8387 H         1 UNK         0.0600 
    215 H215       -5.3223  -23.4381  -47.8613 H         1 UNK         0.3000 
    216 H216       -6.5634  -21.8848  -46.9200 H         1 UNK         0.0600 
    217 H217       -9.0773  -23.2864  -47.9672 H         1 UNK         0.0600 
    218 H218       -8.2562  -23.6696  -46.4556 H         1 UNK         0.0600 
    219 H219       -8.9952  -22.0931  -46.6820 H         1 UNK         0.0600 
    220 H220       -5.2988  -21.1792  -49.0593 H         1 UNK         0.3000 
    221 H221       -4.9572  -19.5776  -50.5283 H         1 UNK         0.0600 
    222 H222       -7.5689  -18.2796  -49.6000 H         1 UNK         0.0600 
    223 H223       -6.0259  -18.1348  -48.7620 H         1 UNK         0.0600 
    224 H224       -6.2086  -17.4874  -50.3823 H         1 UNK         0.0600 
    225 H225       -6.3305  -21.9527  -51.4395 H         1 UNK         0.3000 
    226 H226       -8.0324  -21.0941  -53.6966 H         1 UNK         0.0600 
    227 H227       -8.5533  -23.2186  -52.5012 H         1 UNK         0.0600 
    228 H228       -8.1280  -23.5220  -54.1805 H         1 UNK         0.0600 
    229 H229       -6.9599  -23.8489  -52.9074 H         1 UNK         0.0600 
    230 H230       -4.7038  -22.0611  -52.9706 H         1 UNK         0.3000 
    231 H231       -3.7565  -22.1466  -55.7134 H         1 UNK         0.0600 
    232 H232       -1.5365  -22.2687  -54.6160 H         1 UNK         0.0600 
    233 H233       -2.6443  -23.3550  -53.7897 H         1 UNK         0.0600 
    234 H234       -2.2307  -21.7958  -53.0735 H         1 UNK         0.0600 
    235 H235       -2.1994  -20.6105  -56.6041 H         1 UNK         0.3000 
    236 H236       -2.8366  -17.7875  -56.1200 H         1 UNK         0.0600 
    237 H237       -2.5462  -18.6295  -58.4464 H         1 UNK         0.0600 
    238 H238       -1.3126  -17.4391  -58.0628 H         1 UNK         0.0600 
    239 H239       -0.9020  -19.1497  -58.0753 H         1 UNK         0.0600 
    240 H240       -1.3767  -16.2572  -55.3232 H         1 UNK         0.3000 
    241 H241        1.2412  -17.1091  -54.2580 H         1 UNK         0.0600 
    242 H242        2.4889  -13.8617  -55.0011 H         1 UNK         0.3800 
    243 H243        2.8029  -15.3366  -54.1331 H         1 UNK         0.3800 
    244 H244        0.7995  -15.7337  -52.1708 H         1 UNK         0.0800 
    245 H245       -0.8750  -15.5914  -52.6334 H         1 UNK         0.0800 
    246 H246       -2.4564  -18.8831  -51.8994 H         1 UNK         0.0800 
    247 H247       -2.5285  -17.3585  -52.7292 H         1 UNK         0.0800 
@<TRIPOS>BOND
     1    1    2 1    
     2    1  127 1    
     3    1  128 1    
     4    1  129 1    
     5    2    3 2    
     6    2    4 am   BACKBONE|DICT|INTERRES
     7    4    5 1    
     8    4  130 1    
     9    5    6 1    
    10    5   65 1    
    11    5  131 1    
    12    6    7 1    
    13    6  132 1    
    14    6  133 1    
    15    7    8 1    
    16    8    9 1    
    17    8  134 1    
    18    8  135 1    
    19    9   10 ar   
    20    9   14 ar   
    21   10   11 ar   
    22   10  136 1    
    23   11   12 ar   
    24   11  126 1    
    25   12   13 ar   
    26   12  137 1    
    27   13   14 ar   
    28   13   15 1    
    29   14  138 1    
    30   15   16 1    
    31   15  139 1    
    32   15  140 1    
    33   16   17 1    
    34   17   18 1    
    35   17  141 1    
    36   17  142 1    
    37   18   19 1    
    38   18   67 1    
    39   18  143 1    
    40   19   20 am   BACKBONE|DICT|INTERRES
    41   19  144 1    
    42   20   21 2    
    43   20   22 1    
    44   22   23 1    
    45   22   24 1    
    46   22  145 1    
    47   23  146 1    
    48   23  147 1    
    49   23  148 1    
    50   24   25 am   BACKBONE|DICT|INTERRES
    51   24  149 1    
    52   25   26 2    
    53   25   27 1    
    54   27   28 1    
    55   27   29 1    
    56   27  150 1    
    57   28  151 1    
    58   28  152 1    
    59   28  153 1    
    60   29   30 am   BACKBONE|DICT|INTERRES
    61   29  154 1    
    62   30   31 2    
    63   30   32 1    
    64   32   33 1    
    65   32   34 1    
    66   32  155 1    
    67   33  156 1    
    68   33  157 1    
    69   33  158 1    
    70   34   35 am   BACKBONE|DICT|INTERRES
    71   34  159 1    
    72   35   36 2    
    73   35   37 1    
    74   37   38 1    
    75   37   39 1    
    76   37  160 1    
    77   38  161 1    
    78   38  162 1    
    79   38  163 1    
    80   39   40 am   BACKBONE|DICT|INTERRES
    81   39  164 1    
    82   40   41 2    
    83   40   42 1    
    84   42   43 1    
    85   42   44 1    
    86   42  165 1    
    87   43  166 1    
    88   43  167 1    
    89   43  168 1    
    90   44   45 am   BACKBONE|DICT|INTERRES
    91   44  169 1    
    92   45   46 2    
    93   45   47 1    
    94   47   48 1    
    95   47   49 1    
    96   47  170 1    
    97   48  171 1    
    98   48  172 1    
    99   48  173 1    
   100   49   50 am   BACKBONE|DICT|INTERRES
   101   49  174 1    
   102   50   51 2    
   103   50   52 1    
   104   52   53 1    
   105   52   54 1    
   106   52  175 1    
   107   53  176 1    
   108   53  177 1    
   109   53  178 1    
   110   54   55 am   BACKBONE|DICT|INTERRES
   111   54  179 1    
   112   55   56 2    
   113   55   57 1    
   114   57   58 1    
   115   57   59 1    
   116   57  180 1    
   117   58  181 1    
   118   58  182 1    
   119   58  183 1    
   120   59   60 am   BACKBONE|DICT|INTERRES
   121   59  184 1    
   122   60   61 2    
   123   60   62 1    
   124   62   63 1    
   125   62   64 1    
   126   62  185 1    
   127   63  186 1    
   128   63  187 1    
   129   63  188 1    
   130   64   65 am   BACKBONE|DICT|INTERRES
   131   64  189 1    
   132   65   66 2    
   133   67   68 2    
   134   67   69 am   BACKBONE|DICT|INTERRES
   135   69   70 1    
   136   69  190 1    
   137   70   71 1    
   138   70   72 1    
   139   70  191 1    
   140   71  192 1    
   141   71  193 1    
   142   71  194 1    
   143   72   73 2    
   144   72   74 am   BACKBONE|DICT|INTERRES
   145   74   75 1    
   146   74  195 1    
   147   75   76 1    
   148   75   77 1    
   149   75  196 1    
   150   76  197 1    
   151   76  198 1    
   152   76  199 1    
   153   77   78 2    
   154   77   79 am   BACKBONE|DICT|INTERRES
   155   79   80 1    
   156   79  200 1    
   157   80   81 1    
   158   80   82 1    
   159   80  201 1    
   160   81  202 1    
   161   81  203 1    
   162   81  204 1    
   163   82   83 2    
   164   82   84 am   BACKBONE|DICT|INTERRES
   165   84   85 1    
   166   84  205 1    
   167   85   86 1    
   168   85   87 1    
   169   85  206 1    
   170   86  207 1    
   171   86  208 1    
   172   86  209 1    
   173   87   88 2    
   174   87   89 am   BACKBONE|DICT|INTERRES
   175   89   90 1    
   176   89  210 1    
   177   90   91 1    
   178   90   92 1    
   179   90  211 1    
   180   91  212 1    
   181   91  213 1    
   182   91  214 1    
   183   92   93 2    
   184   92   94 am   BACKBONE|DICT|INTERRES
   185   94   95 1    
   186   94  215 1    
   187   95   96 1    
   188   95   97 1    
   189   95  216 1    
   190   96  217 1    
   191   96  218 1    
   192   96  219 1    
   193   97   98 2    
   194   97   99 am   BACKBONE|DICT|INTERRES
   195   99  100 1    
   196   99  220 1    
   197  100  101 1    
   198  100  102 1    
   199  100  221 1    
   200  101  222 1    
   201  101  223 1    
   202  101  224 1    
   203  102  103 2    
   204  102  104 am   BACKBONE|DICT|INTERRES
   205  104  105 1    
   206  104  225 1    
   207  105  106 1    
   208  105  107 1    
   209  105  226 1    
   210  106  227 1    
   211  106  228 1    
   212  106  229 1    
   213  107  108 2    
   214  107  109 am   BACKBONE|DICT|INTERRES
   215  109  110 1    
   216  109  230 1    
   217  110  111 1    
   218  110  112 1    
   219  110  231 1    
   220  111  232 1    
   221  111  233 1    
   222  111  234 1    
   223  112  113 2    
   224  112  114 am   BACKBONE|DICT|INTERRES
   225  114  115 1    
   226  114  235 1    
   227  115  116 1    
   228  115  117 1    
   229  115  236 1    
   230  116  237 1    
   231  116  238 1    
   232  116  239 1    
   233  117  118 2    
   234  117  119 am   BACKBONE|DICT|INTERRES
   235  119  120 1    
   236  119  240 1    
   237  120  121 1    
   238  120  124 1    
   239  120  241 1    
   240  121  122 am   BACKBONE|DICT|INTERRES
   241  121  123 2    
   242  122  242 1    
   243  122  243 1    
   244  124  125 1    
   245  124  244 1    
   246  124  245 1    
   247  125  126 1    
   248  126  246 1    
   249  126  247 1    
@<TRIPOS>SUBSTRUCTURE
     1 UNK         1 GROUP             0       ****    0 ROOT    
