@<TRIPOS>MOLECULE
3R540
247   249    1
SMALL
USER_CHARGES


@<TRIPOS>ATOM
      1 CA         -1.1327  -11.2267  -46.4142 C.3       0 UNK        -0.1800 
      2 C           0.2711  -11.4814  -46.9460 C.2       0 UNK         0.5000 
      3 O           1.0760  -10.5524  -47.0235 O.2       0 UNK        -0.5000 
      4 N           0.5610  -12.7340  -47.3167 N.am      1 UNK        -0.5000 
      5 CA          1.8785  -13.2043  -47.7631 C.3       1 UNK         0.1400 
      6 C6          1.7839  -14.5891  -48.4560 C.3       23 UNK        -0.0398 
      7 S7          0.7847  -14.4892  -49.9795 S.3       23 UNK        -0.2404 
      8 C8          1.4400  -15.8684  -50.9778 C.3       23 UNK        -0.0205 
      9 C9          0.8054  -17.2122  -50.6365 C.ar      23 UNK        -0.0193 
     10 C10        -0.5869  -17.3501  -50.6142 C.ar      23 UNK        -0.1150 
     11 C11        -1.1768  -18.5889  -50.3545 C.ar      23 UNK        -0.0193 
     12 C12        -0.3646  -19.7018  -50.1272 C.ar      23 UNK        -0.1150 
     13 C13         1.0275  -19.5834  -50.1513 C.ar      23 UNK        -0.0193 
     14 C14         1.6074  -18.3352  -50.4036 C.ar      23 UNK        -0.1150 
     15 C15         1.8942  -20.8176  -49.9381 C.3       23 UNK        -0.0205 
     16 S16         2.9013  -20.7514  -48.4197 S.3       23 UNK        -0.2404 
     17 C17         1.6755  -20.4256  -47.1084 C.3       23 UNK        -0.0398 
     18 CA          1.0613  -21.7086  -46.4895 C.3       11 UNK         0.1400 
     19 N           0.7612  -21.5429  -45.0645 N.am      11 UNK        -0.5000 
     20 C           0.3172  -22.5036  -44.2414 C.2       10 UNK         0.5000 
     21 O           0.1731  -23.6790  -44.5757 O.2       10 UNK        -0.5000 
     22 CA         -0.0941  -22.0645  -42.8228 C.3       10 UNK         0.1400 
     23 CB          1.1256  -21.9625  -41.8952 C.3       10 UNK        -0.1800 
     24 N          -0.8277  -20.7967  -42.8261 N.am      10 UNK        -0.5000 
     25 C          -2.0322  -20.6318  -43.3928 C.2       9 UNK         0.5000 
     26 O          -2.6759  -21.5506  -43.8997 O.2       9 UNK        -0.5000 
     27 CA         -2.5900  -19.1976  -43.4498 C.3       9 UNK         0.1400 
     28 CB         -3.2615  -18.8179  -42.1220 C.3       9 UNK        -0.1800 
     29 N          -1.5683  -18.2058  -43.7890 N.am      9 UNK        -0.5000 
     30 C          -0.9094  -18.1606  -44.9562 C.2       8 UNK         0.5000 
     31 O          -1.1336  -18.9220  -45.8951 O.2       8 UNK        -0.5000 
     32 CA          0.2302  -17.1325  -45.0765 C.3       8 UNK         0.1400 
     33 CB         -0.3267  -15.7398  -45.4038 C.3       8 UNK        -0.1800 
     34 N           1.0534  -17.0696  -43.8676 N.am      8 UNK        -0.5000 
     35 C           1.7695  -18.0927  -43.3791 C.2       7 UNK         0.5000 
     36 O           1.8576  -19.1869  -43.9308 O.2       7 UNK        -0.5000 
     37 CA          2.4487  -17.8861  -42.0159 C.3       7 UNK         0.1400 
     38 CB          3.8107  -17.1934  -42.1731 C.3       7 UNK        -0.1800 
     39 N           1.5957  -17.1222  -41.1067 N.am      7 UNK        -0.5000 
     40 C           0.4893  -17.6100  -40.5278 C.2       6 UNK         0.5000 
     41 O           0.1098  -18.7746  -40.6566 O.2       6 UNK        -0.5000 
     42 CA         -0.3528  -16.6195  -39.7003 C.3       6 UNK         0.1400 
     43 CB          0.1961  -16.5060  -38.2704 C.3       6 UNK        -0.1800 
     44 N          -0.4103  -15.2862  -40.3043 N.am      6 UNK        -0.5000 
     45 C          -1.0352  -15.0067  -41.4570 C.2       5 UNK         0.5000 
     46 O          -1.6794  -15.8364  -42.0974 O.2       5 UNK        -0.5000 
     47 CA         -0.8725  -13.5778  -42.0166 C.3       5 UNK         0.1400 
     48 CB         -1.9921  -12.6652  -41.4954 C.3       5 UNK        -0.1800 
     49 N           0.4285  -12.9606  -41.7319 N.am      5 UNK        -0.5000 
     50 C           1.6144  -13.4755  -42.0828 C.2       4 UNK         0.5000 
     51 O           1.7425  -14.5649  -42.6461 O.2       4 UNK        -0.5000 
     52 CA          2.8622  -12.6758  -41.6842 C.3       4 UNK         0.1400 
     53 CB          3.0529  -12.6965  -40.1540 C.3       4 UNK        -0.1800 
     54 N           4.0219  -13.2712  -42.3406 N.am      4 UNK        -0.5000 
     55 C           5.2336  -12.7206  -42.4629 C.2       3 UNK         0.5000 
     56 O           5.5137  -11.5929  -42.0560 O.2       3 UNK        -0.5000 
     57 CA          6.3280  -13.5622  -43.1514 C.3       3 UNK         0.1400 
     58 CB          7.2907  -14.1301  -42.0968 C.3       3 UNK        -0.1800 
     59 N           5.8008  -14.6817  -43.9400 N.am      3 UNK        -0.5000 
     60 C           5.3007  -14.6500  -45.1839 C.2       2 UNK         0.5000 
     61 O           4.8839  -15.6746  -45.7253 O.2       2 UNK        -0.5000 
     62 CA          5.2939  -13.3235  -45.9830 C.3       2 UNK         0.1400 
     63 CB          6.6124  -13.1568  -46.7561 C.3       2 UNK        -0.1800 
     64 N           4.1868  -13.2550  -46.9379 N.am      2 UNK        -0.5000 
     65 C           2.8923  -13.2255  -46.5969 C.2       1 UNK         0.5000 
     66 O           2.5009  -13.2117  -45.4278 O.2       1 UNK        -0.5000 
     67 C          -0.1824  -22.1712  -47.2749 C.2       11 UNK         0.5000 
     68 O          -0.0984  -23.1426  -48.0245 O.2       11 UNK        -0.5000 
     69 N          -1.3221  -21.4996  -47.0510 N.am      12 UNK        -0.5000 
     70 CA         -2.6228  -21.8257  -47.6360 C.3       12 UNK         0.1400 
     71 CB         -3.6631  -20.7760  -47.2131 C.3       12 UNK        -0.1800 
     72 C          -3.1053  -23.2371  -47.2672 C.2       12 UNK         0.5000 
     73 O          -3.5825  -23.9560  -48.1445 O.2       12 UNK        -0.5000 
     74 N          -2.9444  -23.6177  -45.9929 N.am      13 UNK        -0.5000 
     75 CA         -3.2634  -24.9499  -45.4821 C.3       13 UNK         0.1400 
     76 CB         -3.1729  -24.9492  -43.9486 C.3       13 UNK        -0.1800 
     77 C          -2.3689  -26.0475  -46.0875 C.2       13 UNK         0.5000 
     78 O          -2.8815  -27.0986  -46.4723 O.2       13 UNK        -0.5000 
     79 N          -1.0597  -25.7761  -46.1848 N.am      14 UNK        -0.5000 
     80 CA         -0.0633  -26.6760  -46.7682 C.3       14 UNK         0.1400 
     81 CB          1.3467  -26.1511  -46.4557 C.3       14 UNK        -0.1800 
     82 C          -0.2469  -26.8742  -48.2839 C.2       14 UNK         0.5000 
     83 O          -0.1515  -28.0040  -48.7651 O.2       14 UNK        -0.5000 
     84 N          -0.5179  -25.7785  -49.0048 N.am      15 UNK        -0.5000 
     85 CA         -0.7573  -25.7705  -50.4491 C.3       15 UNK         0.1400 
     86 CB         -0.5817  -24.3361  -50.9722 C.3       15 UNK        -0.1800 
     87 C          -2.1434  -26.3151  -50.8457 C.2       15 UNK         0.5000 
     88 O          -2.3198  -26.7119  -51.9981 O.2       15 UNK        -0.5000 
     89 N          -3.0906  -26.3102  -49.8948 N.am      16 UNK        -0.5000 
     90 CA         -4.5227  -26.5789  -50.0574 C.3       16 UNK         0.1400 
     91 CB         -4.7811  -28.0340  -50.5017 C.3       16 UNK        -0.1800 
     92 C          -5.1768  -25.5217  -50.9708 C.2       16 UNK         0.5000 
     93 O          -5.8298  -25.8620  -51.9595 O.2       16 UNK        -0.5000 
     94 N          -4.9485  -24.2492  -50.6142 N.am      17 UNK        -0.5000 
     95 CA         -5.2896  -23.0348  -51.3586 C.3       17 UNK         0.1400 
     96 CB         -6.8224  -22.8481  -51.4369 C.3       17 UNK        -0.1800 
     97 C          -4.5632  -22.9831  -52.7218 C.2       17 UNK         0.5000 
     98 O          -3.3842  -23.3355  -52.7890 O.2       17 UNK        -0.5000 
     99 N          -5.2548  -22.5349  -53.7734 N.am      18 UNK        -0.5000 
    100 CA        -4.7686  -22.4642  -55.1460 C.3       18 UNK         0.1400 
    101 CB        -3.8863  -21.2169  -55.3320 C.3       18 UNK        -0.1800 
    102 C         -5.9762  -22.4618  -56.0960 C.2       18 UNK         0.5000 
    103 O         -7.1143  -22.2972  -55.6479 O.2       18 UNK        -0.5000 
    104 N         -5.7113  -22.6610  -57.3929 N.am      19 UNK        -0.5000 
    105 CA        -6.7330  -22.7820  -58.4371 C.3       19 UNK         0.1400 
    106 CB        -6.0888  -23.3854  -59.6952 C.3       19 UNK        -0.1800 
    107 C         -7.4427  -21.4584  -58.7838 C.2       19 UNK         0.5000 
    108 O         -8.5901  -21.4927  -59.2312 O.2       19 UNK        -0.5000 
    109 N         -6.7554  -20.3258  -58.5908 N.am      20 UNK        -0.5000 
    110 CA        -7.2415  -18.9864  -58.9310 C.3       20 UNK         0.1400 
    111 CB        -6.9450  -18.6870  -60.4144 C.3       20 UNK        -0.1800 
    112 C         -6.6675  -17.9218  -57.9777 C.2       20 UNK         0.5000 
    113 O         -6.4542  -16.7788  -58.3861 O.2       20 UNK        -0.5000 
    114 N         -6.4198  -18.3106  -56.7228 N.am      21 UNK        -0.5000 
    115 CA        -5.8952  -17.4679  -55.6523 C.3       21 UNK         0.1400 
    116 CB        -4.3790  -17.2497  -55.8405 C.3       21 UNK        -0.1800 
    117 C         -6.2170  -18.1302  -54.3034 C.2       21 UNK         0.5000 
    118 O         -6.7688  -19.2337  -54.2809 O.2       21 UNK        -0.5000 
    119 N         -5.8556  -17.4518  -53.2075 N.am      22 UNK        -0.5000 
    120 CA        -5.9752  -17.9322  -51.8165 C.3       22 UNK         0.1400 
    121 C         -7.4375  -18.0424  -51.2818 C.2       22 UNK         0.5000 
    122 N         -8.4275  -17.4420  -51.9309 N.am      22 UNK        -0.7600 
    123 O         -7.6796  -18.6526  -50.2441 O.2       22 UNK        -0.5000 
    124 C124       -5.1496  -19.2234  -51.5436 C.3       23 UNK        -0.0398 
    125 S125       -3.3802  -19.0556  -51.9617 S.3       23 UNK        -0.2404 
    126 C126       -2.6892  -18.7238  -50.3151 C.3       23 UNK        -0.0205 
    127 H127       -1.7386  -12.1332  -46.4179 H         1 UNK         0.0600 
    128 H128       -1.6365  -10.4780  -47.0255 H         1 UNK         0.0600 
    129 H129       -1.0833  -10.8566  -45.3901 H         1 UNK         0.0600 
    130 H130       -0.1469  -13.4475  -47.2329 H         1 UNK         0.3000 
    131 H131        2.2533  -12.4846  -48.4945 H         1 UNK         0.0600 
    132 H132        2.7775  -14.9557  -48.7189 H         1 UNK         0.0800 
    133 H133        1.3487  -15.3371  -47.7923 H         1 UNK         0.0800 
    134 H134        2.5261  -15.9086  -50.8839 H         1 UNK         0.0800 
    135 H135        1.2354  -15.6572  -52.0281 H         1 UNK         0.0800 
    136 H136       -1.2146  -16.4916  -50.8079 H         1 UNK         0.1150 
    137 H137       -0.8179  -20.6649  -49.9425 H         1 UNK         0.1150 
    138 H138        2.6844  -18.2462  -50.4337 H         1 UNK         0.1150 
    139 H139        1.2834  -21.7209  -49.9176 H         1 UNK         0.0800 
    140 H140        2.5620  -20.9292  -50.7933 H         1 UNK         0.0800 
    141 H141        0.9146  -19.7238  -47.4516 H         1 UNK         0.0800 
    142 H142        2.2311  -19.8817  -46.3458 H         1 UNK         0.0800 
    143 H143        1.8008  -22.5100  -46.5478 H         1 UNK         0.0600 
    144 H144        0.9138  -20.6148  -44.6779 H         1 UNK         0.3000 
    145 H145       -0.7583  -22.8315  -42.4191 H         1 UNK         0.0600 
    146 H146        0.8287  -21.6886  -40.8826 H         1 UNK         0.0600 
    147 H147        1.6478  -22.9181  -41.8348 H         1 UNK         0.0600 
    148 H148        1.8426  -21.2206  -42.2448 H         1 UNK         0.0600 
    149 H149       -0.3756  -20.0010  -42.3915 H         1 UNK         0.3000 
    150 H150       -3.3506  -19.1705  -44.2328 H         1 UNK         0.0600 
    151 H151       -4.0414  -19.5339  -41.8600 H         1 UNK         0.0600 
    152 H152       -3.7296  -17.8354  -42.1849 H         1 UNK         0.0600 
    153 H153       -2.5464  -18.7947  -41.2996 H         1 UNK         0.0600 
    154 H154       -1.3736  -17.4951  -43.0901 H         1 UNK         0.3000 
    155 H155        0.8789  -17.4414  -45.8988 H         1 UNK         0.0600 
    156 H156       -1.0778  -15.4238  -44.6811 H         1 UNK         0.0600 
    157 H157       -0.7994  -15.7342  -46.3866 H         1 UNK         0.0600 
    158 H158        0.4637  -14.9906  -45.4108 H         1 UNK         0.0600 
    159 H159        1.0916  -16.1790  -43.3786 H         1 UNK         0.3000 
    160 H160        2.6232  -18.8698  -41.5748 H         1 UNK         0.0600 
    161 H161        3.7185  -16.2287  -42.6681 H         1 UNK         0.0600 
    162 H162        4.4853  -17.8030  -42.7754 H         1 UNK         0.0600 
    163 H163        4.2892  -17.0339  -41.2067 H         1 UNK         0.0600 
    164 H164        1.7914  -16.1345  -41.0287 H         1 UNK         0.3000 
    165 H165       -1.3700  -17.0134  -39.6453 H         1 UNK         0.0600 
    166 H166       -0.4372  -15.8670  -37.6547 H         1 UNK         0.0600 
    167 H167        0.2348  -17.4842  -37.7890 H         1 UNK         0.0600 
    168 H168        1.2055  -16.0929  -38.2565 H         1 UNK         0.0600 
    169 H169        0.0942  -14.5473  -39.8376 H         1 UNK         0.3000 
    170 H170       -0.9676  -13.6409  -43.1020 H         1 UNK         0.0600 
    171 H171       -2.9739  -13.0879  -41.7133 H         1 UNK         0.0600 
    172 H172       -1.9271  -12.5247  -40.4157 H         1 UNK         0.0600 
    173 H173       -1.9520  -11.6828  -41.9661 H         1 UNK         0.0600 
    174 H174        0.4052  -12.0702  -41.2562 H         1 UNK         0.3000 
    175 H175        2.7394  -11.6492  -42.0347 H         1 UNK         0.0600 
    176 H176        3.1856  -13.7131  -39.7813 H         1 UNK         0.0600 
    177 H177        3.9243  -12.1158  -39.8516 H         1 UNK         0.0600 
    178 H178        2.1928  -12.2669  -39.6395 H         1 UNK         0.0600 
    179 H179        3.8272  -14.1653  -42.7741 H         1 UNK         0.3000 
    180 H180        6.9049  -12.8968  -43.7948 H         1 UNK         0.0600 
    181 H181        6.7819  -14.8081  -41.4101 H         1 UNK         0.0600 
    182 H182        7.7347  -13.3318  -41.5004 H         1 UNK         0.0600 
    183 H183        8.1099  -14.6772  -42.5639 H         1 UNK         0.0600 
    184 H184        5.8223  -15.5751  -43.4724 H         1 UNK         0.3000 
    185 H185        5.1744  -12.4783  -45.3051 H         1 UNK         0.0600 
    186 H186        6.6438  -12.2026  -47.2826 H         1 UNK         0.0600 
    187 H187        7.4728  -13.1842  -46.0869 H         1 UNK         0.0600 
    188 H188        6.7487  -13.9508  -47.4916 H         1 UNK         0.0600 
    189 H189        4.4402  -13.2816  -47.9145 H         1 UNK         0.3000 
    190 H190       -1.2902  -20.6758  -46.4541 H         1 UNK         0.3000 
    191 H191       -2.5141  -21.7868  -48.7211 H         1 UNK         0.0600 
    192 H192       -3.9027  -20.8474  -46.1524 H         1 UNK         0.0600 
    193 H193       -4.5936  -20.9076  -47.7666 H         1 UNK         0.0600 
    194 H194       -3.3110  -19.7617  -47.3978 H         1 UNK         0.0600 
    195 H195       -2.5923  -22.9415  -45.3219 H         1 UNK         0.3000 
    196 H196       -4.2958  -25.1736  -45.7589 H         1 UNK         0.0600 
    197 H197       -3.4353  -25.9264  -43.5415 H         1 UNK         0.0600 
    198 H198       -3.8578  -24.2205  -43.5145 H         1 UNK         0.0600 
    199 H199       -2.1676  -24.7082  -43.6030 H         1 UNK         0.0600 
    200 H200       -0.7110  -24.9011  -45.8027 H         1 UNK         0.3000 
    201 H201       -0.1734  -27.6517  -46.2906 H         1 UNK         0.0600 
    202 H202        1.5153  -26.0933  -45.3803 H         1 UNK         0.0600 
    203 H203        1.5078  -25.1562  -46.8722 H         1 UNK         0.0600 
    204 H204        2.1107  -26.8098  -46.8703 H         1 UNK         0.0600 
    205 H205       -0.5175  -24.8715  -48.5419 H         1 UNK         0.3000 
    206 H206       -0.0053  -26.4012  -50.9278 H         1 UNK         0.0600 
    207 H207        0.4162  -23.9556  -50.7552 H         1 UNK         0.0600 
    208 H208       -0.7187  -24.2934  -52.0535 H         1 UNK         0.0600 
    209 H209       -1.3070  -23.6548  -50.5247 H         1 UNK         0.0600 
    210 H210       -2.8316  -25.9242  -48.9959 H         1 UNK         0.3000 
    211 H211       -4.9696  -26.4549  -49.0698 H         1 UNK         0.0600 
    212 H212       -4.4160  -28.2276  -51.5104 H         1 UNK         0.0600 
    213 H213       -5.8488  -28.2555  -50.4956 H         1 UNK         0.0600 
    214 H214       -4.2981  -28.7418  -49.8280 H         1 UNK         0.0600 
    215 H215       -4.3874  -24.1024  -49.7772 H         1 UNK         0.3000 
    216 H216       -4.8867  -22.2069  -50.7737 H         1 UNK         0.0600 
    217 H217       -7.0875  -21.8699  -51.8392 H         1 UNK         0.0600 
    218 H218       -7.2731  -22.9142  -50.4466 H         1 UNK         0.0600 
    219 H219       -7.2952  -23.6028  -52.0661 H         1 UNK         0.0600 
    220 H220       -6.2340  -22.2933  -53.6771 H         1 UNK         0.3000 
    221 H221       -4.1812  -23.3592  -55.3617 H         1 UNK         0.0600 
    222 H222       -4.4243  -20.3112  -55.0617 H         1 UNK         0.0600 
    223 H223       -2.9942  -21.2668  -54.7075 H         1 UNK         0.0600 
    224 H224       -3.5517  -21.1102  -56.3642 H         1 UNK         0.0600 
    225 H225       -4.7533  -22.7920  -57.6851 H         1 UNK         0.3000 
    226 H226       -7.4976  -23.4774  -58.0840 H         1 UNK         0.0600 
    227 H227       -5.6582  -24.3652  -59.4876 H         1 UNK         0.0600 
    228 H228       -6.8270  -23.5184  -60.4872 H         1 UNK         0.0600 
    229 H229       -5.2976  -22.7460  -60.0888 H         1 UNK         0.0600 
    230 H230       -5.8184  -20.3812  -58.2172 H         1 UNK         0.3000 
    231 H231       -8.3235  -18.9523  -58.7878 H         1 UNK         0.0600 
    232 H232       -7.4028  -19.4296  -61.0680 H         1 UNK         0.0600 
    233 H233       -5.8728  -18.6814  -60.6133 H         1 UNK         0.0600 
    234 H234       -7.3416  -17.7145  -60.7088 H         1 UNK         0.0600 
    235 H235       -6.6993  -19.2349  -56.4146 H         1 UNK         0.3000 
    236 H236       -6.4070  -16.5037  -55.6760 H         1 UNK         0.0600 
    237 H237       -3.9635  -16.6255  -55.0490 H         1 UNK         0.0600 
    238 H238       -3.8304  -18.1911  -55.8354 H         1 UNK         0.0600 
    239 H239       -4.1643  -16.7477  -56.7838 H         1 UNK         0.0600 
    240 H240       -5.4194  -16.5477  -53.3162 H         1 UNK         0.3000 
    241 H241       -5.5322  -17.1442  -51.2067 H         1 UNK         0.0600 
    242 H242       -9.3676  -17.5093  -51.5735 H         1 UNK         0.3800 
    243 H243       -8.2489  -16.9299  -52.7797 H         1 UNK         0.3800 
    244 H244       -5.5510  -20.0536  -52.1225 H         1 UNK         0.0800 
    245 H245       -5.2347  -19.5242  -50.4982 H         1 UNK         0.0800 
    246 H246       -3.1360  -17.8173  -49.9039 H         1 UNK         0.0800 
    247 H247       -2.9665  -19.5386  -49.6498 H         1 UNK         0.0800 
@<TRIPOS>BOND
     1    1    2 1    
     2    1  127 1    
     3    1  128 1    
     4    1  129 1    
     5    2    3 2    
     6    2    4 am   BACKBONE|DICT|INTERRES
     7    4    5 1    
     8    4  130 1    
     9    5    6 1    
    10    5   65 1    
    11    5  131 1    
    12    6    7 1    
    13    6  132 1    
    14    6  133 1    
    15    7    8 1    
    16    8    9 1    
    17    8  134 1    
    18    8  135 1    
    19    9   10 ar   
    20    9   14 ar   
    21   10   11 ar   
    22   10  136 1    
    23   11   12 ar   
    24   11  126 1    
    25   12   13 ar   
    26   12  137 1    
    27   13   14 ar   
    28   13   15 1    
    29   14  138 1    
    30   15   16 1    
    31   15  139 1    
    32   15  140 1    
    33   16   17 1    
    34   17   18 1    
    35   17  141 1    
    36   17  142 1    
    37   18   19 1    
    38   18   67 1    
    39   18  143 1    
    40   19   20 am   BACKBONE|DICT|INTERRES
    41   19  144 1    
    42   20   21 2    
    43   20   22 1    
    44   22   23 1    
    45   22   24 1    
    46   22  145 1    
    47   23  146 1    
    48   23  147 1    
    49   23  148 1    
    50   24   25 am   BACKBONE|DICT|INTERRES
    51   24  149 1    
    52   25   26 2    
    53   25   27 1    
    54   27   28 1    
    55   27   29 1    
    56   27  150 1    
    57   28  151 1    
    58   28  152 1    
    59   28  153 1    
    60   29   30 am   BACKBONE|DICT|INTERRES
    61   29  154 1    
    62   30   31 2    
    63   30   32 1    
    64   32   33 1    
    65   32   34 1    
    66   32  155 1    
    67   33  156 1    
    68   33  157 1    
    69   33  158 1    
    70   34   35 am   BACKBONE|DICT|INTERRES
    71   34  159 1    
    72   35   36 2    
    73   35   37 1    
    74   37   38 1    
    75   37   39 1    
    76   37  160 1    
    77   38  161 1    
    78   38  162 1    
    79   38  163 1    
    80   39   40 am   BACKBONE|DICT|INTERRES
    81   39  164 1    
    82   40   41 2    
    83   40   42 1    
    84   42   43 1    
    85   42   44 1    
    86   42  165 1    
    87   43  166 1    
    88   43  167 1    
    89   43  168 1    
    90   44   45 am   BACKBONE|DICT|INTERRES
    91   44  169 1    
    92   45   46 2    
    93   45   47 1    
    94   47   48 1    
    95   47   49 1    
    96   47  170 1    
    97   48  171 1    
    98   48  172 1    
    99   48  173 1    
   100   49   50 am   BACKBONE|DICT|INTERRES
   101   49  174 1    
   102   50   51 2    
   103   50   52 1    
   104   52   53 1    
   105   52   54 1    
   106   52  175 1    
   107   53  176 1    
   108   53  177 1    
   109   53  178 1    
   110   54   55 am   BACKBONE|DICT|INTERRES
   111   54  179 1    
   112   55   56 2    
   113   55   57 1    
   114   57   58 1    
   115   57   59 1    
   116   57  180 1    
   117   58  181 1    
   118   58  182 1    
   119   58  183 1    
   120   59   60 am   BACKBONE|DICT|INTERRES
   121   59  184 1    
   122   60   61 2    
   123   60   62 1    
   124   62   63 1    
   125   62   64 1    
   126   62  185 1    
   127   63  186 1    
   128   63  187 1    
   129   63  188 1    
   130   64   65 am   BACKBONE|DICT|INTERRES
   131   64  189 1    
   132   65   66 2    
   133   67   68 2    
   134   67   69 am   BACKBONE|DICT|INTERRES
   135   69   70 1    
   136   69  190 1    
   137   70   71 1    
   138   70   72 1    
   139   70  191 1    
   140   71  192 1    
   141   71  193 1    
   142   71  194 1    
   143   72   73 2    
   144   72   74 am   BACKBONE|DICT|INTERRES
   145   74   75 1    
   146   74  195 1    
   147   75   76 1    
   148   75   77 1    
   149   75  196 1    
   150   76  197 1    
   151   76  198 1    
   152   76  199 1    
   153   77   78 2    
   154   77   79 am   BACKBONE|DICT|INTERRES
   155   79   80 1    
   156   79  200 1    
   157   80   81 1    
   158   80   82 1    
   159   80  201 1    
   160   81  202 1    
   161   81  203 1    
   162   81  204 1    
   163   82   83 2    
   164   82   84 am   BACKBONE|DICT|INTERRES
   165   84   85 1    
   166   84  205 1    
   167   85   86 1    
   168   85   87 1    
   169   85  206 1    
   170   86  207 1    
   171   86  208 1    
   172   86  209 1    
   173   87   88 2    
   174   87   89 am   BACKBONE|DICT|INTERRES
   175   89   90 1    
   176   89  210 1    
   177   90   91 1    
   178   90   92 1    
   179   90  211 1    
   180   91  212 1    
   181   91  213 1    
   182   91  214 1    
   183   92   93 2    
   184   92   94 am   BACKBONE|DICT|INTERRES
   185   94   95 1    
   186   94  215 1    
   187   95   96 1    
   188   95   97 1    
   189   95  216 1    
   190   96  217 1    
   191   96  218 1    
   192   96  219 1    
   193   97   98 2    
   194   97   99 am   BACKBONE|DICT|INTERRES
   195   99  100 1    
   196   99  220 1    
   197  100  101 1    
   198  100  102 1    
   199  100  221 1    
   200  101  222 1    
   201  101  223 1    
   202  101  224 1    
   203  102  103 2    
   204  102  104 am   BACKBONE|DICT|INTERRES
   205  104  105 1    
   206  104  225 1    
   207  105  106 1    
   208  105  107 1    
   209  105  226 1    
   210  106  227 1    
   211  106  228 1    
   212  106  229 1    
   213  107  108 2    
   214  107  109 am   BACKBONE|DICT|INTERRES
   215  109  110 1    
   216  109  230 1    
   217  110  111 1    
   218  110  112 1    
   219  110  231 1    
   220  111  232 1    
   221  111  233 1    
   222  111  234 1    
   223  112  113 2    
   224  112  114 am   BACKBONE|DICT|INTERRES
   225  114  115 1    
   226  114  235 1    
   227  115  116 1    
   228  115  117 1    
   229  115  236 1    
   230  116  237 1    
   231  116  238 1    
   232  116  239 1    
   233  117  118 2    
   234  117  119 am   BACKBONE|DICT|INTERRES
   235  119  120 1    
   236  119  240 1    
   237  120  121 1    
   238  120  124 1    
   239  120  241 1    
   240  121  122 am   BACKBONE|DICT|INTERRES
   241  121  123 2    
   242  122  242 1    
   243  122  243 1    
   244  124  125 1    
   245  124  244 1    
   246  124  245 1    
   247  125  126 1    
   248  126  246 1    
   249  126  247 1    
@<TRIPOS>SUBSTRUCTURE
     1 UNK         1 GROUP             0       ****    0 ROOT    
