@<TRIPOS>MOLECULE
3R540
247   249    1
SMALL
USER_CHARGES


@<TRIPOS>ATOM
      1 CA         -1.4722  -11.3302  -45.3785 C.3       0 UNK        -0.1800 
      2 C          -0.5459  -12.3479  -46.0274 C.2       0 UNK         0.5000 
      3 O          -0.3020  -13.4002  -45.4393 O.2       0 UNK        -0.5000 
      4 N          -0.0468  -12.0321  -47.2320 N.am      1 UNK        -0.5000 
      5 CA          0.9061  -12.8121  -48.0324 C.3       1 UNK         0.1400 
      6 C6          0.3442  -14.1779  -48.5112 C.3       23 UNK        -0.0398 
      7 S7          1.2480  -14.8025  -49.9692 S.3       23 UNK        -0.2404 
      8 C8         -0.0965  -15.1095  -51.1596 C.3       23 UNK        -0.0205 
      9 C9         -0.8447  -16.4004  -50.8593 C.ar      23 UNK        -0.0193 
     10 C10        -2.2089  -16.3834  -50.5539 C.ar      23 UNK        -0.1150 
     11 C11        -2.9040  -17.5775  -50.3262 C.ar      23 UNK        -0.0193 
     12 C12        -2.2102  -18.7908  -50.3680 C.ar      23 UNK        -0.1150 
     13 C13        -0.8428  -18.8199  -50.6604 C.ar      23 UNK        -0.0193 
     14 C14        -0.1726  -17.6235  -50.9231 C.ar      23 UNK        -0.1150 
     15 C15        -0.0856  -20.1410  -50.6878 C.3       23 UNK        -0.0205 
     16 S16         1.2593  -20.2164  -49.4555 S.3       23 UNK        -0.2404 
     17 C17         0.3738  -19.9096  -47.8885 C.3       23 UNK        -0.0398 
     18 CA          0.0007  -21.2009  -47.1249 C.3       11 UNK         0.1400 
     19 N          -0.3158  -20.9150  -45.7259 N.am      11 UNK        -0.5000 
     20 C          -0.5786  -21.8317  -44.7848 C.2       10 UNK         0.5000 
     21 O          -0.5069  -23.0465  -44.9662 O.2       10 UNK        -0.5000 
     22 CA         -1.0634  -21.2949  -43.4290 C.3       10 UNK         0.1400 
     23 CB          0.1236  -20.8796  -42.5488 C.3       10 UNK        -0.1800 
     24 N          -1.9820  -20.1671  -43.5969 N.am      10 UNK        -0.5000 
     25 C          -3.2273  -20.2831  -44.0804 C.2       9 UNK         0.5000 
     26 O          -3.7393  -21.3579  -44.3931 O.2       9 UNK        -0.5000 
     27 CA         -4.0212  -18.9794  -44.2796 C.3       9 UNK         0.1400 
     28 CB         -4.6603  -18.5273  -42.9582 C.3       9 UNK        -0.1800 
     29 N          -3.2062  -17.8911  -44.8210 N.am      9 UNK        -0.5000 
     30 C          -2.6829  -17.8761  -46.0554 C.2       8 UNK         0.5000 
     31 O          -2.8375  -18.7815  -46.8729 O.2       8 UNK        -0.5000 
     32 CA         -1.8110  -16.6592  -46.4223 C.3       8 UNK         0.1400 
     33 CB         -2.7157  -15.4881  -46.8377 C.3       8 UNK        -0.1800 
     34 N          -0.9292  -16.2105  -45.3388 N.am      8 UNK        -0.5000 
     35 C          -0.0781  -16.9731  -44.6398 C.2       7 UNK         0.5000 
     36 O           0.0915  -18.1737  -44.8581 O.2       7 UNK        -0.5000 
     37 CA          0.6065  -16.2882  -43.4409 C.3       7 UNK         0.1400 
     38 CB          0.2317  -16.9814  -42.1170 C.3       7 UNK        -0.1800 
     39 N           2.0571  -16.1409  -43.5667 N.am      7 UNK        -0.5000 
     40 C           3.0085  -17.0819  -43.6669 C.2       6 UNK         0.5000 
     41 O           2.8036  -18.2949  -43.6863 O.2       6 UNK        -0.5000 
     42 CA          4.4604  -16.5749  -43.6818 C.3       6 UNK         0.1400 
     43 CB          4.8056  -15.8921  -45.0117 C.3       6 UNK        -0.1800 
     44 N           4.6787  -15.6289  -42.5893 N.am      6 UNK        -0.5000 
     45 C           5.3653  -15.8930  -41.4697 C.2       5 UNK         0.5000 
     46 O           5.9681  -16.9474  -41.2647 O.2       5 UNK        -0.5000 
     47 CA          5.3754  -14.7981  -40.3827 C.3       5 UNK         0.1400 
     48 CB          6.5938  -13.8787  -40.5576 C.3       5 UNK        -0.1800 
     49 N           4.1619  -13.9807  -40.3826 N.am      5 UNK        -0.5000 
     50 C           2.9342  -14.4263  -40.0814 C.2       4 UNK         0.5000 
     51 O           2.7095  -15.5548  -39.6437 O.2       4 UNK        -0.5000 
     52 CA          1.7534  -13.4620  -40.3240 C.3       4 UNK         0.1400 
     53 CB          1.1998  -12.9431  -38.9880 C.3       4 UNK        -0.1800 
     54 N           2.0595  -12.3132  -41.1854 N.am      4 UNK        -0.5000 
     55 C           2.4337  -12.3732  -42.4709 C.2       3 UNK         0.5000 
     56 O           2.6064  -13.4347  -43.0731 O.2       3 UNK        -0.5000 
     57 CA          2.6430  -11.0159  -43.1740 C.3       3 UNK         0.1400 
     58 CB          3.6282  -10.1096  -42.4034 C.3       3 UNK        -0.1800 
     59 N           3.0441  -11.1362  -44.5797 N.am      3 UNK        -0.5000 
     60 C           4.1816  -11.6423  -45.0819 C.2       2 UNK         0.5000 
     61 O           5.1094  -12.0808  -44.3989 O.2       2 UNK        -0.5000 
     62 CA          4.2972  -11.6076  -46.6216 C.3       2 UNK         0.1400 
     63 CB          5.3850  -12.5499  -47.1811 C.3       2 UNK        -0.1800 
     64 N           3.0073  -11.8073  -47.2982 N.am      2 UNK        -0.5000 
     65 C           2.2632  -12.9247  -47.3044 C.2       1 UNK         0.5000 
     66 O           2.5856  -13.9745  -46.7500 O.2       1 UNK        -0.5000 
     67 C          -1.1450  -21.9724  -47.8133 C.2       11 UNK         0.5000 
     68 O          -0.8934  -23.0098  -48.4256 O.2       11 UNK        -0.5000 
     69 N          -2.3855  -21.4848  -47.6597 N.am      12 UNK        -0.5000 
     70 CA         -3.5988  -22.1275  -48.1641 C.3       12 UNK         0.1400 
     71 CB         -4.8142  -21.2275  -47.9033 C.3       12 UNK        -0.1800 
     72 C          -3.8276  -23.5260  -47.5682 C.2       12 UNK         0.5000 
     73 O          -4.1650  -24.4444  -48.3137 O.2       12 UNK        -0.5000 
     74 N          -3.6091  -23.6738  -46.2537 N.am      13 UNK        -0.5000 
     75 CA         -3.6933  -24.9494  -45.5416 C.3       13 UNK         0.1400 
     76 CB         -3.5773  -24.7127  -44.0285 C.3       13 UNK        -0.1800 
     77 C          -2.6446  -25.9674  -46.0250 C.2       13 UNK         0.5000 
     78 O          -2.9979  -27.1164  -46.2915 O.2       13 UNK        -0.5000 
     79 N          -1.3898  -25.5202  -46.1801 N.am      14 UNK        -0.5000 
     80 CA         -0.2779  -26.3156  -46.7094 C.3       14 UNK         0.1400 
     81 CB          1.0312  -25.5251  -46.5641 C.3       14 UNK        -0.1800 
     82 C          -0.4912  -26.7508  -48.1721 C.2       14 UNK         0.5000 
     83 O          -0.1368  -27.8734  -48.5331 O.2       14 UNK        -0.5000 
     84 N          -1.1025  -25.8694  -48.9730 N.am      15 UNK        -0.5000 
     85 CA         -1.4985  -26.1164  -50.3593 C.3       15 UNK         0.1400 
     86 CB         -1.6496  -24.7632  -51.0703 C.3       15 UNK        -0.1800 
     87 C          -2.7983  -26.9360  -50.4985 C.2       15 UNK         0.5000 
     88 O          -3.2070  -27.2034  -51.6280 O.2       15 UNK        -0.5000 
     89 N          -3.4518  -27.2838  -49.3784 N.am      16 UNK        -0.5000 
     90 CA         -4.7287  -28.0031  -49.2840 C.3       16 UNK         0.1400 
     91 CB         -4.5559  -29.4705  -49.7272 C.3       16 UNK        -0.1800 
     92 C          -5.8808  -27.2807  -50.0180 C.2       16 UNK         0.5000 
     93 O          -6.7061  -27.9240  -50.6684 O.2       16 UNK        -0.5000 
     94 N          -5.8855  -25.9436  -49.9148 N.am      17 UNK        -0.5000 
     95 CA         -6.7967  -24.9824  -50.5440 C.3       17 UNK         0.1400 
     96 CB         -8.2509  -25.2083  -50.0814 C.3       17 UNK        -0.1800 
     97 C          -6.6724  -24.8885  -52.0816 C.2       17 UNK         0.5000 
     98 O          -7.5135  -24.2459  -52.7110 O.2       17 UNK        -0.5000 
     99 N          -5.6210  -25.4825  -52.6642 N.am      18 UNK        -0.5000 
    100 CA        -5.3382  -25.4735  -54.1027 C.3       18 UNK         0.1400 
    101 CB        -4.9401  -26.8938  -54.5415 C.3       18 UNK        -0.1800 
    102 C         -4.2617  -24.4341  -54.4813 C.2       18 UNK         0.5000 
    103 O         -3.6669  -24.5417  -55.5552 O.2       18 UNK        -0.5000 
    104 N         -4.0148  -23.4527  -53.6009 N.am      19 UNK        -0.5000 
    105 CA        -3.0771  -22.3492  -53.8065 C.3       19 UNK         0.1400 
    106 CB        -2.9718  -21.5258  -52.5132 C.3       19 UNK        -0.1800 
    107 C         -3.5177  -21.4413  -54.9666 C.2       19 UNK         0.5000 
    108 O         -4.6025  -20.8611  -54.8983 O.2       19 UNK        -0.5000 
    109 N         -2.6638  -21.2958  -55.9876 N.am      20 UNK        -0.5000 
    110 CA        -2.9262  -20.4964  -57.1914 C.3       20 UNK         0.1400 
    111 CB        -1.7849  -20.7192  -58.1956 C.3       20 UNK        -0.1800 
    112 C         -3.1217  -18.9893  -56.9230 C.2       20 UNK         0.5000 
    113 O         -3.7627  -18.3073  -57.7232 O.2       20 UNK        -0.5000 
    114 N         -2.5789  -18.5041  -55.7990 N.am      21 UNK        -0.5000 
    115 CA        -2.7195  -17.1304  -55.3210 C.3       21 UNK         0.1400 
    116 CB        -1.6587  -16.8815  -54.2396 C.3       21 UNK        -0.1800 
    117 C         -4.1239  -16.8024  -54.7738 C.2       21 UNK         0.5000 
    118 O         -4.4915  -15.6264  -54.7637 O.2       21 UNK        -0.5000 
    119 N         -4.8708  -17.8221  -54.3268 N.am      22 UNK        -0.5000 
    120 CA        -6.2005  -17.6791  -53.7084 C.3       22 UNK         0.1400 
    121 C         -7.3160  -18.4963  -54.4184 C.2       22 UNK         0.5000 
    122 N         -7.0175  -19.5506  -55.1648 N.am      22 UNK        -0.7600 
    123 O         -8.4889  -18.1503  -54.3052 O.2       22 UNK        -0.5000 
    124 C124       -6.1595  -17.9981  -52.1909 C.3       23 UNK        -0.0398 
    125 S125       -5.3866  -16.6542  -51.2254 S.3       23 UNK        -0.2404 
    126 C126       -4.3918  -17.5582  -49.9938 C.3       23 UNK        -0.0205 
    127 H127       -1.6014  -10.4428  -45.9984 H         1 UNK         0.0600 
    128 H128       -1.0677  -11.0174  -44.4158 H         1 UNK         0.0600 
    129 H129       -2.4535  -11.7733  -45.2092 H         1 UNK         0.0600 
    130 H130       -0.3111  -11.1457  -47.6391 H         1 UNK         0.3000 
    131 H131        1.0786  -12.2073  -48.9246 H         1 UNK         0.0600 
    132 H132        0.3669  -14.9276  -47.7191 H         1 UNK         0.0800 
    133 H133       -0.7031  -14.0605  -48.7875 H         1 UNK         0.0800 
    134 H134       -0.7733  -14.2541  -51.1848 H         1 UNK         0.0800 
    135 H135        0.3347  -15.1846  -52.1587 H         1 UNK         0.0800 
    136 H136       -2.7380  -15.4420  -50.5088 H         1 UNK         0.1150 
    137 H137       -2.7336  -19.7133  -50.1616 H         1 UNK         0.1150 
    138 H138        0.8820  -17.6425  -51.1597 H         1 UNK         0.1150 
    139 H139       -0.7612  -20.9807  -50.5254 H         1 UNK         0.0800 
    140 H140        0.3404  -20.2823  -51.6818 H         1 UNK         0.0800 
    141 H141        1.0461  -19.3092  -47.2737 H         1 UNK         0.0800 
    142 H142       -0.4998  -19.2798  -48.0526 H         1 UNK         0.0800 
    143 H143        0.8755  -21.8547  -47.1159 H         1 UNK         0.0600 
    144 H144       -0.3461  -19.9340  -45.4591 H         1 UNK         0.3000 
    145 H145       -1.5984  -22.0981  -42.9181 H         1 UNK         0.0600 
    146 H146       -0.2113  -20.4784  -41.5922 H         1 UNK         0.0600 
    147 H147        0.7653  -21.7356  -42.3369 H         1 UNK         0.0600 
    148 H148        0.7416  -20.1250  -43.0358 H         1 UNK         0.0600 
    149 H149       -1.6056  -19.2456  -43.4307 H         1 UNK         0.3000 
    150 H150       -4.8229  -19.1863  -44.9919 H         1 UNK         0.0600 
    151 H151       -5.2881  -19.3150  -42.5393 H         1 UNK         0.0600 
    152 H152       -5.2941  -17.6527  -43.1059 H         1 UNK         0.0600 
    153 H153       -3.9075  -18.2747  -42.2104 H         1 UNK         0.0600 
    154 H154       -3.0286  -17.1051  -44.2138 H         1 UNK         0.3000 
    155 H155       -1.1821  -16.9362  -47.2706 H         1 UNK         0.0600 
    156 H156       -2.1383  -14.6082  -47.1085 H         1 UNK         0.0600 
    157 H157       -3.3946  -15.1978  -46.0350 H         1 UNK         0.0600 
    158 H158       -3.3226  -15.7467  -47.7030 H         1 UNK         0.0600 
    159 H159       -0.9258  -15.2097  -45.1583 H         1 UNK         0.3000 
    160 H160        0.2239  -15.2679  -43.3813 H         1 UNK         0.0600 
    161 H161        0.6413  -17.9884  -42.0538 H         1 UNK         0.0600 
    162 H162       -0.8505  -17.0601  -42.0076 H         1 UNK         0.0600 
    163 H163        0.6039  -16.4221  -41.2599 H         1 UNK         0.0600 
    164 H164        2.3612  -15.1691  -43.5726 H         1 UNK         0.3000 
    165 H165        5.1134  -17.4438  -43.5768 H         1 UNK         0.0600 
    166 H166        4.2850  -14.9406  -45.1106 H         1 UNK         0.0600 
    167 H167        5.8743  -15.6904  -45.0829 H         1 UNK         0.0600 
    168 H168        4.5297  -16.5146  -45.8638 H         1 UNK         0.0600 
    169 H169        4.1850  -14.7462  -42.6593 H         1 UNK         0.3000 
    170 H170        5.4527  -15.2926  -39.4122 H         1 UNK         0.0600 
    171 H171        7.5214  -14.4524  -40.5410 H         1 UNK         0.0600 
    172 H172        6.5577  -13.3397  -41.5056 H         1 UNK         0.0600 
    173 H173        6.6529  -13.1438  -39.7545 H         1 UNK         0.0600 
    174 H174        4.2519  -13.0366  -40.7267 H         1 UNK         0.3000 
    175 H175        0.9679  -14.0379  -40.8168 H         1 UNK         0.0600 
    176 H176        1.9339  -12.3343  -38.4588 H         1 UNK         0.0600 
    177 H177        0.3055  -12.3382  -39.1386 H         1 UNK         0.0600 
    178 H178        0.9231  -13.7687  -38.3307 H         1 UNK         0.0600 
    179 H179        1.9437  -11.4048  -40.7599 H         1 UNK         0.3000 
    180 H180        1.6704  -10.5220  -43.1851 H         1 UNK         0.0600 
    181 H181        4.5912  -10.5960  -42.2451 H         1 UNK         0.0600 
    182 H182        3.2371   -9.8363  -41.4232 H         1 UNK         0.0600 
    183 H183        3.8099   -9.1794  -42.9420 H         1 UNK         0.0600 
    184 H184        2.3474  -10.8435  -45.2484 H         1 UNK         0.3000 
    185 H185        4.6052  -10.5898  -46.8655 H         1 UNK         0.0600 
    186 H186        5.4517  -12.4733  -48.2662 H         1 UNK         0.0600 
    187 H187        6.3660  -12.2959  -46.7783 H         1 UNK         0.0600 
    188 H188        5.1927  -13.5926  -46.9307 H         1 UNK         0.0600 
    189 H189        2.6452  -10.9946  -47.7779 H         1 UNK         0.3000 
    190 H190       -2.5120  -20.5946  -47.1833 H         1 UNK         0.3000 
    191 H191       -3.4853  -22.2404  -49.2439 H         1 UNK         0.0600 
    192 H192       -4.6809  -20.2463  -48.3540 H         1 UNK         0.0600 
    193 H193       -5.7208  -21.6618  -48.3264 H         1 UNK         0.0600 
    194 H194       -4.9858  -21.0798  -46.8370 H         1 UNK         0.0600 
    195 H195       -3.3851  -22.8545  -45.6980 H         1 UNK         0.3000 
    196 H196       -4.6801  -25.3729  -45.7402 H         1 UNK         0.0600 
    197 H197       -3.6659  -25.6506  -43.4790 H         1 UNK         0.0600 
    198 H198       -4.3668  -24.0510  -43.6720 H         1 UNK         0.0600 
    199 H199       -2.6205  -24.2649  -43.7608 H         1 UNK         0.0600 
    200 H200       -1.1720  -24.5649  -45.9066 H         1 UNK         0.3000 
    201 H201       -0.1984  -27.2204  -46.1036 H         1 UNK         0.0600 
    202 H202        1.2322  -25.2852  -45.5199 H         1 UNK         0.0600 
    203 H203        0.9992  -24.5882  -47.1213 H         1 UNK         0.0600 
    204 H204        1.8799  -26.1008  -46.9355 H         1 UNK         0.0600 
    205 H205       -1.2940  -24.9394  -48.6113 H         1 UNK         0.3000 
    206 H206       -0.7045  -26.6768  -50.8568 H         1 UNK         0.0600 
    207 H207       -0.7350  -24.1737  -51.0027 H         1 UNK         0.0600 
    208 H208       -1.8722  -24.8948  -52.1297 H         1 UNK         0.0600 
    209 H209       -2.4591  -24.1801  -50.6313 H         1 UNK         0.0600 
    210 H210       -3.0585  -26.9901  -48.4927 H         1 UNK         0.3000 
    211 H211       -4.9982  -28.0068  -48.2270 H         1 UNK         0.0600 
    212 H212       -4.3337  -29.5489  -50.7919 H         1 UNK         0.0600 
    213 H213       -5.4632  -30.0456  -49.5390 H         1 UNK         0.0600 
    214 H214       -3.7471  -29.9539  -49.1793 H         1 UNK         0.0600 
    215 H215       -5.1560  -25.5156  -49.3439 H         1 UNK         0.3000 
    216 H216       -6.4879  -24.0062  -50.1674 H         1 UNK         0.0600 
    217 H217       -8.3158  -25.2569  -48.9945 H         1 UNK         0.0600 
    218 H218       -8.6675  -26.1312  -50.4853 H         1 UNK         0.0600 
    219 H219       -8.8967  -24.3918  -50.4064 H         1 UNK         0.0600 
    220 H220       -4.9638  -25.9979  -52.0896 H         1 UNK         0.3000 
    221 H221       -6.2393  -25.2042  -54.6569 H         1 UNK         0.0600 
    222 H222       -3.9746  -27.1885  -54.1305 H         1 UNK         0.0600 
    223 H223       -5.6794  -27.6285  -54.2218 H         1 UNK         0.0600 
    224 H224       -4.8657  -26.9618  -55.6274 H         1 UNK         0.0600 
    225 H225       -4.5728  -23.4226  -52.7621 H         1 UNK         0.3000 
    226 H226       -2.0951  -22.7709  -54.0301 H         1 UNK         0.0600 
    227 H227       -2.3044  -20.6748  -52.6523 H         1 UNK         0.0600 
    228 H228       -3.9404  -21.1326  -52.2014 H         1 UNK         0.0600 
    229 H229       -2.5727  -22.1187  -51.6930 H         1 UNK         0.0600 
    230 H230       -1.7936  -21.8082  -55.9737 H         1 UNK         0.3000 
    231 H231       -3.8513  -20.8664  -57.6383 H         1 UNK         0.0600 
    232 H232       -1.9603  -20.1629  -59.1174 H         1 UNK         0.0600 
    233 H233       -1.6964  -21.7716  -58.4659 H         1 UNK         0.0600 
    234 H234       -0.8254  -20.3927  -57.7926 H         1 UNK         0.0600 
    235 H235       -2.0565  -19.1367  -55.2120 H         1 UNK         0.3000 
    236 H236       -2.5237  -16.4534  -56.1551 H         1 UNK         0.0600 
    237 H237       -0.6506  -17.0181  -54.6310 H         1 UNK         0.0600 
    238 H238       -1.7227  -15.8635  -53.8533 H         1 UNK         0.0600 
    239 H239       -1.7878  -17.5608  -53.3966 H         1 UNK         0.0600 
    240 H240       -4.5218  -18.7667  -54.4207 H         1 UNK         0.3000 
    241 H241       -6.5332  -16.6444  -53.8106 H         1 UNK         0.0600 
    242 H242       -7.7637  -20.0489  -55.6223 H         1 UNK         0.3800 
    243 H243       -6.0777  -19.9424  -55.1830 H         1 UNK         0.3800 
    244 H244       -5.6365  -18.9404  -52.0205 H         1 UNK         0.0800 
    245 H245       -7.1655  -18.1314  -51.7886 H         1 UNK         0.0800 
    246 H246       -4.5312  -17.0877  -49.0221 H         1 UNK         0.0800 
    247 H247       -4.7803  -18.5702  -49.8881 H         1 UNK         0.0800 
@<TRIPOS>BOND
     1    1    2 1    
     2    1  127 1    
     3    1  128 1    
     4    1  129 1    
     5    2    3 2    
     6    2    4 am   BACKBONE|DICT|INTERRES
     7    4    5 1    
     8    4  130 1    
     9    5    6 1    
    10    5   65 1    
    11    5  131 1    
    12    6    7 1    
    13    6  132 1    
    14    6  133 1    
    15    7    8 1    
    16    8    9 1    
    17    8  134 1    
    18    8  135 1    
    19    9   10 ar   
    20    9   14 ar   
    21   10   11 ar   
    22   10  136 1    
    23   11   12 ar   
    24   11  126 1    
    25   12   13 ar   
    26   12  137 1    
    27   13   14 ar   
    28   13   15 1    
    29   14  138 1    
    30   15   16 1    
    31   15  139 1    
    32   15  140 1    
    33   16   17 1    
    34   17   18 1    
    35   17  141 1    
    36   17  142 1    
    37   18   19 1    
    38   18   67 1    
    39   18  143 1    
    40   19   20 am   BACKBONE|DICT|INTERRES
    41   19  144 1    
    42   20   21 2    
    43   20   22 1    
    44   22   23 1    
    45   22   24 1    
    46   22  145 1    
    47   23  146 1    
    48   23  147 1    
    49   23  148 1    
    50   24   25 am   BACKBONE|DICT|INTERRES
    51   24  149 1    
    52   25   26 2    
    53   25   27 1    
    54   27   28 1    
    55   27   29 1    
    56   27  150 1    
    57   28  151 1    
    58   28  152 1    
    59   28  153 1    
    60   29   30 am   BACKBONE|DICT|INTERRES
    61   29  154 1    
    62   30   31 2    
    63   30   32 1    
    64   32   33 1    
    65   32   34 1    
    66   32  155 1    
    67   33  156 1    
    68   33  157 1    
    69   33  158 1    
    70   34   35 am   BACKBONE|DICT|INTERRES
    71   34  159 1    
    72   35   36 2    
    73   35   37 1    
    74   37   38 1    
    75   37   39 1    
    76   37  160 1    
    77   38  161 1    
    78   38  162 1    
    79   38  163 1    
    80   39   40 am   BACKBONE|DICT|INTERRES
    81   39  164 1    
    82   40   41 2    
    83   40   42 1    
    84   42   43 1    
    85   42   44 1    
    86   42  165 1    
    87   43  166 1    
    88   43  167 1    
    89   43  168 1    
    90   44   45 am   BACKBONE|DICT|INTERRES
    91   44  169 1    
    92   45   46 2    
    93   45   47 1    
    94   47   48 1    
    95   47   49 1    
    96   47  170 1    
    97   48  171 1    
    98   48  172 1    
    99   48  173 1    
   100   49   50 am   BACKBONE|DICT|INTERRES
   101   49  174 1    
   102   50   51 2    
   103   50   52 1    
   104   52   53 1    
   105   52   54 1    
   106   52  175 1    
   107   53  176 1    
   108   53  177 1    
   109   53  178 1    
   110   54   55 am   BACKBONE|DICT|INTERRES
   111   54  179 1    
   112   55   56 2    
   113   55   57 1    
   114   57   58 1    
   115   57   59 1    
   116   57  180 1    
   117   58  181 1    
   118   58  182 1    
   119   58  183 1    
   120   59   60 am   BACKBONE|DICT|INTERRES
   121   59  184 1    
   122   60   61 2    
   123   60   62 1    
   124   62   63 1    
   125   62   64 1    
   126   62  185 1    
   127   63  186 1    
   128   63  187 1    
   129   63  188 1    
   130   64   65 am   BACKBONE|DICT|INTERRES
   131   64  189 1    
   132   65   66 2    
   133   67   68 2    
   134   67   69 am   BACKBONE|DICT|INTERRES
   135   69   70 1    
   136   69  190 1    
   137   70   71 1    
   138   70   72 1    
   139   70  191 1    
   140   71  192 1    
   141   71  193 1    
   142   71  194 1    
   143   72   73 2    
   144   72   74 am   BACKBONE|DICT|INTERRES
   145   74   75 1    
   146   74  195 1    
   147   75   76 1    
   148   75   77 1    
   149   75  196 1    
   150   76  197 1    
   151   76  198 1    
   152   76  199 1    
   153   77   78 2    
   154   77   79 am   BACKBONE|DICT|INTERRES
   155   79   80 1    
   156   79  200 1    
   157   80   81 1    
   158   80   82 1    
   159   80  201 1    
   160   81  202 1    
   161   81  203 1    
   162   81  204 1    
   163   82   83 2    
   164   82   84 am   BACKBONE|DICT|INTERRES
   165   84   85 1    
   166   84  205 1    
   167   85   86 1    
   168   85   87 1    
   169   85  206 1    
   170   86  207 1    
   171   86  208 1    
   172   86  209 1    
   173   87   88 2    
   174   87   89 am   BACKBONE|DICT|INTERRES
   175   89   90 1    
   176   89  210 1    
   177   90   91 1    
   178   90   92 1    
   179   90  211 1    
   180   91  212 1    
   181   91  213 1    
   182   91  214 1    
   183   92   93 2    
   184   92   94 am   BACKBONE|DICT|INTERRES
   185   94   95 1    
   186   94  215 1    
   187   95   96 1    
   188   95   97 1    
   189   95  216 1    
   190   96  217 1    
   191   96  218 1    
   192   96  219 1    
   193   97   98 2    
   194   97   99 am   BACKBONE|DICT|INTERRES
   195   99  100 1    
   196   99  220 1    
   197  100  101 1    
   198  100  102 1    
   199  100  221 1    
   200  101  222 1    
   201  101  223 1    
   202  101  224 1    
   203  102  103 2    
   204  102  104 am   BACKBONE|DICT|INTERRES
   205  104  105 1    
   206  104  225 1    
   207  105  106 1    
   208  105  107 1    
   209  105  226 1    
   210  106  227 1    
   211  106  228 1    
   212  106  229 1    
   213  107  108 2    
   214  107  109 am   BACKBONE|DICT|INTERRES
   215  109  110 1    
   216  109  230 1    
   217  110  111 1    
   218  110  112 1    
   219  110  231 1    
   220  111  232 1    
   221  111  233 1    
   222  111  234 1    
   223  112  113 2    
   224  112  114 am   BACKBONE|DICT|INTERRES
   225  114  115 1    
   226  114  235 1    
   227  115  116 1    
   228  115  117 1    
   229  115  236 1    
   230  116  237 1    
   231  116  238 1    
   232  116  239 1    
   233  117  118 2    
   234  117  119 am   BACKBONE|DICT|INTERRES
   235  119  120 1    
   236  119  240 1    
   237  120  121 1    
   238  120  124 1    
   239  120  241 1    
   240  121  122 am   BACKBONE|DICT|INTERRES
   241  121  123 2    
   242  122  242 1    
   243  122  243 1    
   244  124  125 1    
   245  124  244 1    
   246  124  245 1    
   247  125  126 1    
   248  126  246 1    
   249  126  247 1    
@<TRIPOS>SUBSTRUCTURE
     1 UNK         1 GROUP             0       ****    0 ROOT    
