@<TRIPOS>MOLECULE
3R540
247   249    1
SMALL
USER_CHARGES


@<TRIPOS>ATOM
      1 CA          1.1370  -12.2385  -44.8804 C.3       0 UNK        -0.1800 
      2 C           0.4223  -13.3303  -45.6626 C.2       0 UNK         0.5000 
      3 O          -0.1483  -14.2414  -45.0594 O.2       0 UNK        -0.5000 
      4 N           0.4543  -13.2410  -46.9994 N.am      1 UNK        -0.5000 
      5 CA         -0.1710  -14.1891  -47.9288 C.3       1 UNK         0.1400 
      6 C6          0.1950  -13.8889  -49.4101 C.3       23 UNK        -0.0398 
      7 S7          1.6039  -14.8917  -49.9932 S.3       23 UNK        -0.2404 
      8 C8          0.7772  -16.5028  -50.1962 C.3       23 UNK        -0.0205 
      9 C9          1.6343  -17.5305  -50.9176 C.ar      23 UNK        -0.0193 
     10 C10         1.2061  -18.0626  -52.1367 C.ar      23 UNK        -0.1150 
     11 C11         1.9509  -19.0519  -52.7838 C.ar      23 UNK        -0.0193 
     12 C12         3.1505  -19.4882  -52.2156 C.ar      23 UNK        -0.1150 
     13 C13         3.5935  -18.9610  -50.9988 C.ar      23 UNK        -0.0193 
     14 C14         2.8266  -17.9887  -50.3490 C.ar      23 UNK        -0.1150 
     15 C15         4.9081  -19.4373  -50.4002 C.3       23 UNK        -0.0205 
     16 S16         4.7816  -21.1172  -49.7107 S.3       23 UNK        -0.2404 
     17 C17         3.8628  -20.8163  -48.1650 C.3       23 UNK        -0.0398 
     18 CA          2.8370  -21.9350  -47.8535 C.3       11 UNK         0.1400 
     19 N           2.6011  -22.0339  -46.4127 N.am      11 UNK        -0.5000 
     20 C           2.4473  -23.1722  -45.7243 C.2       10 UNK         0.5000 
     21 O           2.5048  -24.2925  -46.2314 O.2       10 UNK        -0.5000 
     22 CA          2.1845  -23.0421  -44.2085 C.3       10 UNK         0.1400 
     23 CB          3.4969  -23.1793  -43.4222 C.3       10 UNK        -0.1800 
     24 N           1.5422  -21.7800  -43.8374 N.am      10 UNK        -0.5000 
     25 C           0.2902  -21.4408  -44.1716 C.2       9 UNK         0.5000 
     26 O          -0.4785  -22.1891  -44.7728 O.2       9 UNK        -0.5000 
     27 CA         -0.1611  -20.0081  -43.8327 C.3       9 UNK         0.1400 
     28 CB         -0.8705  -19.9775  -42.4713 C.3       9 UNK        -0.1800 
     29 N           0.9220  -19.0188  -43.8450 N.am      9 UNK        -0.5000 
     30 C           1.7267  -18.7520  -44.8849 C.2       8 UNK         0.5000 
     31 O           1.6369  -19.3152  -45.9740 O.2       8 UNK        -0.5000 
     32 CA          2.8433  -17.7186  -44.6735 C.3       8 UNK         0.1400 
     33 CB          2.3590  -16.3223  -45.0716 C.3       8 UNK        -0.1800 
     34 N           3.3194  -17.6900  -43.2924 N.am      8 UNK        -0.5000 
     35 C           4.1419  -18.6016  -42.7560 C.2       7 UNK         0.5000 
     36 O           4.6064  -19.5561  -43.3794 O.2       7 UNK        -0.5000 
     37 CA          4.4788  -18.4245  -41.2639 C.3       7 UNK         0.1400 
     38 CB          5.6544  -17.4519  -41.0861 C.3       7 UNK        -0.1800 
     39 N           3.3318  -17.9436  -40.4912 N.am      7 UNK        -0.5000 
     40 C           2.2471  -18.6820  -40.2186 C.2       6 UNK         0.5000 
     41 O           2.1316  -19.8656  -40.5364 O.2       6 UNK        -0.5000 
     42 CA          1.0857  -17.9723  -39.4961 C.3       6 UNK         0.1400 
     43 CB          1.2249  -18.1266  -37.9743 C.3       6 UNK        -0.1800 
     44 N           0.9638  -16.5483  -39.8282 N.am      6 UNK        -0.5000 
     45 C           0.6468  -16.0756  -41.0402 C.2       5 UNK         0.5000 
     46 O           0.4860  -16.7916  -42.0313 O.2       5 UNK        -0.5000 
     47 CA          0.5355  -14.5510  -41.1803 C.3       5 UNK         0.1400 
     48 CB          1.8407  -13.9733  -41.7478 C.3       5 UNK        -0.1800 
     49 N          -0.5629  -14.2410  -42.0906 N.am      5 UNK        -0.5000 
     50 C          -1.7589  -13.7660  -41.7198 C.2       4 UNK         0.5000 
     51 O          -2.0252  -13.3894  -40.5776 O.2       4 UNK        -0.5000 
     52 CA         -2.8593  -13.7445  -42.7974 C.3       4 UNK         0.1400 
     53 CB         -2.8364  -12.4321  -43.5951 C.3       4 UNK        -0.1800 
     54 N          -2.7405  -14.8795  -43.7130 N.am      4 UNK        -0.5000 
     55 C          -3.1114  -16.1308  -43.4060 C.2       3 UNK         0.5000 
     56 O          -3.6705  -16.4307  -42.3496 O.2       3 UNK        -0.5000 
     57 CA         -2.7857  -17.2274  -44.4418 C.3       3 UNK         0.1400 
     58 CB         -3.6489  -18.4981  -44.2772 C.3       3 UNK        -0.1800 
     59 N          -2.8192  -16.7600  -45.8305 N.am      3 UNK        -0.5000 
     60 C          -3.8759  -16.2826  -46.5090 C.2       2 UNK         0.5000 
     61 O          -5.0011  -16.1423  -46.0292 O.2       2 UNK        -0.5000 
     62 CA         -3.6109  -15.9239  -47.9875 C.3       2 UNK         0.1400 
     63 CB         -4.6620  -14.9695  -48.5919 C.3       2 UNK        -0.1800 
     64 N          -2.2411  -15.4435  -48.2054 N.am      2 UNK        -0.5000 
     65 C          -1.7004  -14.3070  -47.7398 C.2       1 UNK         0.5000 
     66 O          -2.3378  -13.4112  -47.1818 O.2       1 UNK        -0.5000 
     67 C           1.5047  -21.7264  -48.6038 C.2       11 UNK         0.5000 
     68 O           1.2785  -22.3612  -49.6337 O.2       11 UNK        -0.5000 
     69 N           0.6360  -20.8631  -48.0555 N.am      12 UNK        -0.5000 
     70 CA         -0.6840  -20.5288  -48.5930 C.3       12 UNK         0.1400 
     71 CB         -1.2179  -19.2861  -47.8625 C.3       12 UNK        -0.1800 
     72 C          -1.7118  -21.6682  -48.4811 C.2       12 UNK         0.5000 
     73 O          -2.6569  -21.6949  -49.2717 O.2       12 UNK        -0.5000 
     74 N          -1.5036  -22.5649  -47.5075 N.am      13 UNK        -0.5000 
     75 CA         -2.3573  -23.6775  -47.0879 C.3       13 UNK         0.1400 
     76 CB         -2.6818  -24.6201  -48.2653 C.3       13 UNK        -0.1800 
     77 C          -3.6294  -23.2110  -46.3535 C.2       13 UNK         0.5000 
     78 O          -3.9424  -22.0168  -46.3107 O.2       13 UNK        -0.5000 
     79 N          -4.3438  -24.1835  -45.7705 N.am      14 UNK        -0.5000 
     80 CA         -5.6137  -23.9907  -45.0703 C.3       14 UNK         0.1400 
     81 CB         -6.0904  -25.3365  -44.5039 C.3       14 UNK        -0.1800 
     82 C          -6.6785  -23.3825  -45.9988 C.2       14 UNK         0.5000 
     83 O          -6.8377  -23.8505  -47.1280 O.2       14 UNK        -0.5000 
     84 N          -7.3439  -22.3226  -45.5201 N.am      15 UNK        -0.5000 
     85 CA         -8.3288  -21.5067  -46.2429 C.3       15 UNK         0.1400 
     86 CB         -9.6107  -22.3221  -46.5158 C.3       15 UNK        -0.1800 
     87 C          -7.7700  -20.8352  -47.5203 C.2       15 UNK         0.5000 
     88 O          -8.5449  -20.5087  -48.4206 O.2       15 UNK        -0.5000 
     89 N          -6.4402  -20.6448  -47.5749 N.am      16 UNK        -0.5000 
     90 CA         -5.6668  -20.0861  -48.6890 C.3       16 UNK         0.1400 
     91 CB         -6.0605  -18.6141  -48.9407 C.3       16 UNK        -0.1800 
     92 C          -5.7290  -20.9462  -49.9711 C.2       16 UNK         0.5000 
     93 O          -5.6011  -20.4070  -51.0705 O.2       16 UNK        -0.5000 
     94 N          -5.9258  -22.2649  -49.8191 N.am      17 UNK        -0.5000 
     95 CA         -6.1616  -23.2102  -50.9133 C.3       17 UNK         0.1400 
     96 CB         -6.4626  -24.5983  -50.3293 C.3       17 UNK        -0.1800 
     97 C          -5.0366  -23.3010  -51.9629 C.2       17 UNK         0.5000 
     98 O          -5.3383  -23.4932  -53.1415 O.2       17 UNK        -0.5000 
     99 N          -3.7742  -23.1566  -51.5371 N.am      18 UNK        -0.5000 
    100 CA        -2.6186  -23.1528  -52.4351 C.3       18 UNK         0.1400 
    101 CB        -1.3887  -23.7344  -51.7243 C.3       18 UNK        -0.1800 
    102 C         -2.3327  -21.7419  -52.9694 C.2       18 UNK         0.5000 
    103 O         -1.9506  -21.6107  -54.1319 O.2       18 UNK        -0.5000 
    104 N         -2.5607  -20.7121  -52.1397 N.am      19 UNK        -0.5000 
    105 CA        -2.4259  -19.2987  -52.5074 C.3       19 UNK         0.1400 
    106 CB        -2.5237  -18.4150  -51.2554 C.3       19 UNK        -0.1800 
    107 C         -3.4232  -18.8434  -53.5869 C.2       19 UNK         0.5000 
    108 O         -3.0789  -17.9954  -54.4100 O.2       19 UNK        -0.5000 
    109 N         -4.6221  -19.4392  -53.5875 N.am      20 UNK        -0.5000 
    110 CA        -5.6603  -19.2440  -54.5996 C.3       20 UNK         0.1400 
    111 CB        -6.9503  -19.9286  -54.1220 C.3       20 UNK        -0.1800 
    112 C         -5.2652  -19.7578  -56.0001 C.2       20 UNK         0.5000 
    113 O         -5.8099  -19.2705  -56.9917 O.2       20 UNK        -0.5000 
    114 N         -4.3376  -20.7227  -56.0584 N.am      21 UNK        -0.5000 
    115 CA        -3.7865  -21.2787  -57.2895 C.3       21 UNK         0.1400 
    116 CB        -3.6352  -22.8034  -57.1345 C.3       21 UNK        -0.1800 
    117 C         -2.4523  -20.5887  -57.6173 C.2       21 UNK         0.5000 
    118 O         -2.3945  -19.7851  -58.5485 O.2       21 UNK        -0.5000 
    119 N         -1.4138  -20.9103  -56.8346 N.am      22 UNK        -0.5000 
    120 CA        -0.0397  -20.3891  -56.9268 C.3       22 UNK         0.1400 
    121 C          0.6918  -20.6439  -58.2830 C.2       22 UNK         0.5000 
    122 N          0.3138  -21.6635  -59.0447 N.am      22 UNK        -0.7600 
    123 O          1.6260  -19.9343  -58.6459 O.2       22 UNK        -0.5000 
    124 C124        0.0538  -18.9220  -56.4150 C.3       23 UNK        -0.0398 
    125 S125        1.5893  -18.5510  -55.4939 S.3       23 UNK        -0.2404 
    126 C126        1.4350  -19.6767  -54.0703 C.3       23 UNK        -0.0205 
    127 H127        2.0988  -12.6051  -44.5231 H         1 UNK         0.0600 
    128 H128        0.5430  -11.9390  -44.0171 H         1 UNK         0.0600 
    129 H129        1.3130  -11.3543  -45.4932 H         1 UNK         0.0600 
    130 H130        0.9265  -12.4572  -47.4254 H         1 UNK         0.3000 
    131 H131        0.2292  -15.1660  -47.6514 H         1 UNK         0.0600 
    132 H132        0.4395  -12.8343  -49.5450 H         1 UNK         0.0800 
    133 H133       -0.6365  -14.0701  -50.0945 H         1 UNK         0.0800 
    134 H134        0.5256  -16.8999  -49.2146 H         1 UNK         0.0800 
    135 H135       -0.1634  -16.3571  -50.7292 H         1 UNK         0.0800 
    136 H136        0.2852  -17.7145  -52.5811 H         1 UNK         0.1150 
    137 H137        3.7360  -20.2502  -52.7108 H         1 UNK         0.1150 
    138 H138        3.1570  -17.5819  -49.4035 H         1 UNK         0.1150 
    139 H139        5.6730  -19.4352  -51.1781 H         1 UNK         0.0800 
    140 H140        5.2591  -18.7500  -49.6288 H         1 UNK         0.0800 
    141 H141        3.3890  -19.8335  -48.1776 H         1 UNK         0.0800 
    142 H142        4.6113  -20.7674  -47.3725 H         1 UNK         0.0800 
    143 H143        3.2577  -22.8826  -48.1972 H         1 UNK         0.0600 
    144 H144        2.4833  -21.1540  -45.9253 H         1 UNK         0.3000 
    145 H145        1.5222  -23.8598  -43.9164 H         1 UNK         0.0600 
    146 H146        3.3179  -23.1523  -42.3472 H         1 UNK         0.0600 
    147 H147        3.9898  -24.1263  -43.6459 H         1 UNK         0.0600 
    148 H148        4.1968  -22.3788  -43.6659 H         1 UNK         0.0600 
    149 H149        2.1071  -21.1075  -43.3376 H         1 UNK         0.3000 
    150 H150       -0.8800  -19.7111  -44.5953 H         1 UNK         0.0600 
    151 H151       -1.7433  -20.6317  -42.4741 H         1 UNK         0.0600 
    152 H152       -1.2166  -18.9745  -42.2220 H         1 UNK         0.0600 
    153 H153       -0.2152  -20.3145  -41.6689 H         1 UNK         0.0600 
    154 H154        1.0107  -18.4398  -43.0164 H         1 UNK         0.3000 
    155 H155        3.6749  -17.9889  -45.3280 H         1 UNK         0.0600 
    156 H156        1.5351  -16.0067  -44.4343 H         1 UNK         0.0600 
    157 H157        2.0056  -16.3051  -46.1035 H         1 UNK         0.0600 
    158 H158        3.1554  -15.5832  -44.9857 H         1 UNK         0.0600 
    159 H159        2.9455  -16.9647  -42.6992 H         1 UNK         0.3000 
    160 H160        4.7784  -19.3983  -40.8703 H         1 UNK         0.0600 
    161 H161        5.4099  -16.4513  -41.4452 H         1 UNK         0.0600 
    162 H162        6.5304  -17.7942  -41.6388 H         1 UNK         0.0600 
    163 H163        5.9440  -17.3713  -40.0382 H         1 UNK         0.0600 
    164 H164        3.3547  -16.9840  -40.1795 H         1 UNK         0.3000 
    165 H165        0.1613  -18.4656  -39.8040 H         1 UNK         0.0600 
    166 H166        0.3623  -17.7089  -37.4547 H         1 UNK         0.0600 
    167 H167        1.2934  -19.1783  -37.6929 H         1 UNK         0.0600 
    168 H168        2.1188  -17.6272  -37.5984 H         1 UNK         0.0600 
    169 H169        1.0943  -15.8981  -39.0663 H         1 UNK         0.3000 
    170 H170        0.3598  -14.1125  -40.1960 H         1 UNK         0.0600 
    171 H171        2.6846  -14.1914  -41.0922 H         1 UNK         0.0600 
    172 H172        2.0725  -14.3839  -42.7304 H         1 UNK         0.0600 
    173 H173        1.7782  -12.8895  -41.8456 H         1 UNK         0.0600 
    174 H174       -0.4406  -14.5422  -43.0523 H         1 UNK         0.3000 
    175 H175       -3.8239  -13.8061  -42.2889 H         1 UNK         0.0600 
    176 H176       -1.9009  -12.3010  -44.1365 H         1 UNK         0.0600 
    177 H177       -3.6475  -12.4009  -44.3230 H         1 UNK         0.0600 
    178 H178       -2.9567  -11.5726  -42.9348 H         1 UNK         0.0600 
    179 H179       -2.2356  -14.7122  -44.5751 H         1 UNK         0.3000 
    180 H180       -1.7491  -17.5028  -44.2461 H         1 UNK         0.0600 
    181 H181       -3.3649  -19.2674  -44.9957 H         1 UNK         0.0600 
    182 H182       -4.7095  -18.2878  -44.4166 H         1 UNK         0.0600 
    183 H183       -3.5343  -18.9275  -43.2819 H         1 UNK         0.0600 
    184 H184       -1.9342  -16.7915  -46.3128 H         1 UNK         0.3000 
    185 H185       -3.6808  -16.8641  -48.5346 H         1 UNK         0.0600 
    186 H186       -5.6527  -15.4252  -48.5801 H         1 UNK         0.0600 
    187 H187       -4.7314  -14.0332  -48.0382 H         1 UNK         0.0600 
    188 H188       -4.4282  -14.7315  -49.6295 H         1 UNK         0.0600 
    189 H189       -1.6398  -16.0931  -48.6883 H         1 UNK         0.3000 
    190 H190        0.9289  -20.3446  -47.2297 H         1 UNK         0.3000 
    191 H191       -0.5599  -20.2956  -49.6518 H         1 UNK         0.0600 
    192 H192       -2.1584  -18.9479  -48.2976 H         1 UNK         0.0600 
    193 H193       -0.5105  -18.4605  -47.9097 H         1 UNK         0.0600 
    194 H194       -1.4104  -19.4974  -46.8114 H         1 UNK         0.0600 
    195 H195       -0.7423  -22.3746  -46.8675 H         1 UNK         0.3000 
    196 H196       -1.7639  -24.2379  -46.3640 H         1 UNK         0.0600 
    197 H197       -3.4035  -24.1790  -48.9510 H         1 UNK         0.0600 
    198 H198       -1.7842  -24.8689  -48.8311 H         1 UNK         0.0600 
    199 H199       -3.1092  -25.5588  -47.9123 H         1 UNK         0.0600 
    200 H200       -4.0329  -25.1387  -45.8661 H         1 UNK         0.3000 
    201 H201       -5.4325  -23.3087  -44.2369 H         1 UNK         0.0600 
    202 H202       -6.2602  -26.0683  -45.2950 H         1 UNK         0.0600 
    203 H203       -7.0278  -25.2199  -43.9585 H         1 UNK         0.0600 
    204 H204       -5.3611  -25.7544  -43.8097 H         1 UNK         0.0600 
    205 H205       -7.1256  -22.0036  -44.5862 H         1 UNK         0.3000 
    206 H206       -8.5967  -20.6900  -45.5712 H         1 UNK         0.0600 
    207 H207       -9.9874  -22.7828  -45.6026 H         1 UNK         0.0600 
    208 H208      -10.4054  -21.6854  -46.9065 H         1 UNK         0.0600 
    209 H209       -9.4395  -23.1141  -47.2455 H         1 UNK         0.0600 
    210 H210       -5.8789  -20.9908  -46.8053 H         1 UNK         0.3000 
    211 H211       -4.6251  -20.0960  -48.3670 H         1 UNK         0.0600 
    212 H212       -6.0122  -18.0312  -48.0215 H         1 UNK         0.0600 
    213 H213       -7.0719  -18.5264  -49.3376 H         1 UNK         0.0600 
    214 H214       -5.3971  -18.1416  -49.6635 H         1 UNK         0.0600 
    215 H215       -6.0342  -22.6302  -48.8810 H         1 UNK         0.3000 
    216 H216       -7.0557  -22.8686  -51.4389 H         1 UNK         0.0600 
    217 H217       -5.6428  -24.9612  -49.7087 H         1 UNK         0.0600 
    218 H218       -6.6274  -25.3315  -51.1200 H         1 UNK         0.0600 
    219 H219       -7.3635  -24.5789  -49.7160 H         1 UNK         0.0600 
    220 H220       -3.5989  -22.9153  -50.5670 H         1 UNK         0.3000 
    221 H221       -2.8249  -23.7940  -53.2949 H         1 UNK         0.0600 
    222 H222       -0.5387  -23.7910  -52.4053 H         1 UNK         0.0600 
    223 H223       -1.5833  -24.7441  -51.3631 H         1 UNK         0.0600 
    224 H224       -1.0797  -23.1275  -50.8756 H         1 UNK         0.0600 
    225 H225       -2.8783  -20.9171  -51.1995 H         1 UNK         0.3000 
    226 H226       -1.4341  -19.1627  -52.9337 H         1 UNK         0.0600 
    227 H227       -1.6323  -18.5160  -50.6407 H         1 UNK         0.0600 
    228 H228       -2.6091  -17.3596  -51.5181 H         1 UNK         0.0600 
    229 H229       -3.3881  -18.6758  -50.6473 H         1 UNK         0.0600 
    230 H230       -4.8589  -20.0451  -52.8058 H         1 UNK         0.3000 
    231 H231       -5.8507  -18.1722  -54.6841 H         1 UNK         0.0600 
    232 H232       -6.8054  -21.0004  -53.9790 H         1 UNK         0.0600 
    233 H233       -7.7562  -19.7977  -54.8452 H         1 UNK         0.0600 
    234 H234       -7.2919  -19.5088  -53.1756 H         1 UNK         0.0600 
    235 H235       -3.9043  -21.0242  -55.1960 H         1 UNK         0.3000 
    236 H236       -4.4664  -21.1005  -58.1254 H         1 UNK         0.0600 
    237 H237       -4.6091  -23.2788  -57.0166 H         1 UNK         0.0600 
    238 H238       -3.1659  -23.2417  -58.0161 H         1 UNK         0.0600 
    239 H239       -3.0322  -23.0757  -56.2678 H         1 UNK         0.0600 
    240 H240       -1.5887  -21.5058  -56.0307 H         1 UNK         0.3000 
    241 H241        0.5066  -21.0211  -56.2283 H         1 UNK         0.0600 
    242 H242        0.7888  -21.8336  -59.9174 H         1 UNK         0.3800 
    243 H243       -0.4444  -22.2632  -58.7613 H         1 UNK         0.3800 
    244 H244       -0.7744  -18.7030  -55.7396 H         1 UNK         0.0800 
    245 H245       -0.0527  -18.2143  -57.2386 H         1 UNK         0.0800 
    246 H246        0.3962  -19.9725  -53.9306 H         1 UNK         0.0800 
    247 H247        1.9780  -20.5970  -54.2910 H         1 UNK         0.0800 
@<TRIPOS>BOND
     1    1    2 1    
     2    1  127 1    
     3    1  128 1    
     4    1  129 1    
     5    2    3 2    
     6    2    4 am   BACKBONE|DICT|INTERRES
     7    4    5 1    
     8    4  130 1    
     9    5    6 1    
    10    5   65 1    
    11    5  131 1    
    12    6    7 1    
    13    6  132 1    
    14    6  133 1    
    15    7    8 1    
    16    8    9 1    
    17    8  134 1    
    18    8  135 1    
    19    9   10 ar   
    20    9   14 ar   
    21   10   11 ar   
    22   10  136 1    
    23   11   12 ar   
    24   11  126 1    
    25   12   13 ar   
    26   12  137 1    
    27   13   14 ar   
    28   13   15 1    
    29   14  138 1    
    30   15   16 1    
    31   15  139 1    
    32   15  140 1    
    33   16   17 1    
    34   17   18 1    
    35   17  141 1    
    36   17  142 1    
    37   18   19 1    
    38   18   67 1    
    39   18  143 1    
    40   19   20 am   BACKBONE|DICT|INTERRES
    41   19  144 1    
    42   20   21 2    
    43   20   22 1    
    44   22   23 1    
    45   22   24 1    
    46   22  145 1    
    47   23  146 1    
    48   23  147 1    
    49   23  148 1    
    50   24   25 am   BACKBONE|DICT|INTERRES
    51   24  149 1    
    52   25   26 2    
    53   25   27 1    
    54   27   28 1    
    55   27   29 1    
    56   27  150 1    
    57   28  151 1    
    58   28  152 1    
    59   28  153 1    
    60   29   30 am   BACKBONE|DICT|INTERRES
    61   29  154 1    
    62   30   31 2    
    63   30   32 1    
    64   32   33 1    
    65   32   34 1    
    66   32  155 1    
    67   33  156 1    
    68   33  157 1    
    69   33  158 1    
    70   34   35 am   BACKBONE|DICT|INTERRES
    71   34  159 1    
    72   35   36 2    
    73   35   37 1    
    74   37   38 1    
    75   37   39 1    
    76   37  160 1    
    77   38  161 1    
    78   38  162 1    
    79   38  163 1    
    80   39   40 am   BACKBONE|DICT|INTERRES
    81   39  164 1    
    82   40   41 2    
    83   40   42 1    
    84   42   43 1    
    85   42   44 1    
    86   42  165 1    
    87   43  166 1    
    88   43  167 1    
    89   43  168 1    
    90   44   45 am   BACKBONE|DICT|INTERRES
    91   44  169 1    
    92   45   46 2    
    93   45   47 1    
    94   47   48 1    
    95   47   49 1    
    96   47  170 1    
    97   48  171 1    
    98   48  172 1    
    99   48  173 1    
   100   49   50 am   BACKBONE|DICT|INTERRES
   101   49  174 1    
   102   50   51 2    
   103   50   52 1    
   104   52   53 1    
   105   52   54 1    
   106   52  175 1    
   107   53  176 1    
   108   53  177 1    
   109   53  178 1    
   110   54   55 am   BACKBONE|DICT|INTERRES
   111   54  179 1    
   112   55   56 2    
   113   55   57 1    
   114   57   58 1    
   115   57   59 1    
   116   57  180 1    
   117   58  181 1    
   118   58  182 1    
   119   58  183 1    
   120   59   60 am   BACKBONE|DICT|INTERRES
   121   59  184 1    
   122   60   61 2    
   123   60   62 1    
   124   62   63 1    
   125   62   64 1    
   126   62  185 1    
   127   63  186 1    
   128   63  187 1    
   129   63  188 1    
   130   64   65 am   BACKBONE|DICT|INTERRES
   131   64  189 1    
   132   65   66 2    
   133   67   68 2    
   134   67   69 am   BACKBONE|DICT|INTERRES
   135   69   70 1    
   136   69  190 1    
   137   70   71 1    
   138   70   72 1    
   139   70  191 1    
   140   71  192 1    
   141   71  193 1    
   142   71  194 1    
   143   72   73 2    
   144   72   74 am   BACKBONE|DICT|INTERRES
   145   74   75 1    
   146   74  195 1    
   147   75   76 1    
   148   75   77 1    
   149   75  196 1    
   150   76  197 1    
   151   76  198 1    
   152   76  199 1    
   153   77   78 2    
   154   77   79 am   BACKBONE|DICT|INTERRES
   155   79   80 1    
   156   79  200 1    
   157   80   81 1    
   158   80   82 1    
   159   80  201 1    
   160   81  202 1    
   161   81  203 1    
   162   81  204 1    
   163   82   83 2    
   164   82   84 am   BACKBONE|DICT|INTERRES
   165   84   85 1    
   166   84  205 1    
   167   85   86 1    
   168   85   87 1    
   169   85  206 1    
   170   86  207 1    
   171   86  208 1    
   172   86  209 1    
   173   87   88 2    
   174   87   89 am   BACKBONE|DICT|INTERRES
   175   89   90 1    
   176   89  210 1    
   177   90   91 1    
   178   90   92 1    
   179   90  211 1    
   180   91  212 1    
   181   91  213 1    
   182   91  214 1    
   183   92   93 2    
   184   92   94 am   BACKBONE|DICT|INTERRES
   185   94   95 1    
   186   94  215 1    
   187   95   96 1    
   188   95   97 1    
   189   95  216 1    
   190   96  217 1    
   191   96  218 1    
   192   96  219 1    
   193   97   98 2    
   194   97   99 am   BACKBONE|DICT|INTERRES
   195   99  100 1    
   196   99  220 1    
   197  100  101 1    
   198  100  102 1    
   199  100  221 1    
   200  101  222 1    
   201  101  223 1    
   202  101  224 1    
   203  102  103 2    
   204  102  104 am   BACKBONE|DICT|INTERRES
   205  104  105 1    
   206  104  225 1    
   207  105  106 1    
   208  105  107 1    
   209  105  226 1    
   210  106  227 1    
   211  106  228 1    
   212  106  229 1    
   213  107  108 2    
   214  107  109 am   BACKBONE|DICT|INTERRES
   215  109  110 1    
   216  109  230 1    
   217  110  111 1    
   218  110  112 1    
   219  110  231 1    
   220  111  232 1    
   221  111  233 1    
   222  111  234 1    
   223  112  113 2    
   224  112  114 am   BACKBONE|DICT|INTERRES
   225  114  115 1    
   226  114  235 1    
   227  115  116 1    
   228  115  117 1    
   229  115  236 1    
   230  116  237 1    
   231  116  238 1    
   232  116  239 1    
   233  117  118 2    
   234  117  119 am   BACKBONE|DICT|INTERRES
   235  119  120 1    
   236  119  240 1    
   237  120  121 1    
   238  120  124 1    
   239  120  241 1    
   240  121  122 am   BACKBONE|DICT|INTERRES
   241  121  123 2    
   242  122  242 1    
   243  122  243 1    
   244  124  125 1    
   245  124  244 1    
   246  124  245 1    
   247  125  126 1    
   248  126  246 1    
   249  126  247 1    
@<TRIPOS>SUBSTRUCTURE
     1 UNK         1 GROUP             0       ****    0 ROOT    
