@<TRIPOS>MOLECULE
3R540
247   249    1
SMALL
USER_CHARGES


@<TRIPOS>ATOM
      1 CA         -0.4767   -9.0983  -43.5305 C.3       0 UNK        -0.1800 
      2 C          -1.6911   -9.9629  -43.8647 C.2       0 UNK         0.5000 
      3 O          -2.7803   -9.6951  -43.3621 O.2       0 UNK        -0.5000 
      4 N          -1.5635  -11.0026  -44.7018 N.am      1 UNK        -0.5000 
      5 CA         -0.3303  -11.4729  -45.3474 C.3       1 UNK         0.1400 
      6 C6         -0.6238  -12.2119  -46.6749 C.3       23 UNK        -0.0398 
      7 S7         -1.6461  -13.7148  -46.4973 S.3       23 UNK        -0.2404 
      8 C8         -2.6486  -13.6268  -48.0133 C.3       23 UNK        -0.0205 
      9 C9         -3.2725  -14.9753  -48.3321 C.ar      23 UNK        -0.0193 
     10 C10        -2.7455  -15.7748  -49.3498 C.ar      23 UNK        -0.1150 
     11 C11        -3.2880  -17.0327  -49.6265 C.ar      23 UNK        -0.0193 
     12 C12        -4.3868  -17.4736  -48.8802 C.ar      23 UNK        -0.1150 
     13 C13        -4.9247  -16.6877  -47.8535 C.ar      23 UNK        -0.0193 
     14 C14        -4.3652  -15.4343  -47.5943 C.ar      23 UNK        -0.1150 
     15 C15        -6.0916  -17.1684  -46.9914 C.3       23 UNK        -0.0205 
     16 S16        -6.1931  -18.9777  -46.7506 S.3       23 UNK        -0.2404 
     17 C17        -4.5326  -19.3815  -46.1071 C.3       23 UNK        -0.0398 
     18 CA         -4.0682  -20.7852  -46.5703 C.3       11 UNK         0.1400 
     19 N          -2.6171  -20.8547  -46.7916 N.am      11 UNK        -0.5000 
     20 C          -1.9459  -21.9376  -47.2132 C.2       10 UNK         0.5000 
     21 O          -2.4849  -23.0005  -47.5137 O.2       10 UNK        -0.5000 
     22 CA         -0.4129  -21.8508  -47.2386 C.3       10 UNK         0.1400 
     23 CB          0.0865  -21.2014  -48.5389 C.3       10 UNK        -0.1800 
     24 N           0.0877  -21.1330  -46.0660 N.am      10 UNK        -0.5000 
     25 C           0.0651  -21.6380  -44.8220 C.2       9 UNK         0.5000 
     26 O          -0.2589  -22.7971  -44.5644 O.2       9 UNK        -0.5000 
     27 CA          0.4158  -20.6811  -43.6674 C.3       9 UNK         0.1400 
     28 CB          1.9212  -20.7234  -43.3676 C.3       9 UNK        -0.1800 
     29 N           0.0032  -19.3025  -43.9394 N.am      9 UNK        -0.5000 
     30 C          -1.2758  -18.8920  -43.9660 C.2       8 UNK         0.5000 
     31 O          -2.2274  -19.6299  -43.7085 O.2       8 UNK        -0.5000 
     32 CA         -1.5459  -17.4366  -44.4092 C.3       8 UNK         0.1400 
     33 CB         -1.5842  -16.4982  -43.1952 C.3       8 UNK        -0.1800 
     34 N          -0.5580  -16.9351  -45.3640 N.am      8 UNK        -0.5000 
     35 C          -0.3002  -17.4745  -46.5632 C.2       7 UNK         0.5000 
     36 O          -0.9723  -18.3848  -47.0465 O.2       7 UNK        -0.5000 
     37 CA          0.9696  -16.9896  -47.2966 C.3       7 UNK         0.1400 
     38 CB          0.6278  -16.1577  -48.5386 C.3       7 UNK        -0.1800 
     39 N           1.8964  -16.2327  -46.4468 N.am      7 UNK        -0.5000 
     40 C           2.5854  -16.7422  -45.4147 C.2       6 UNK         0.5000 
     41 O           2.4767  -17.9133  -45.0509 O.2       6 UNK        -0.5000 
     42 CA          3.4762  -15.7754  -44.6085 C.3       6 UNK         0.1400 
     43 CB          4.7797  -16.4324  -44.1114 C.3       6 UNK        -0.1800 
     44 N           3.7325  -14.4966  -45.2803 N.am      6 UNK        -0.5000 
     45 C           4.4919  -14.2681  -46.3644 C.2       5 UNK         0.5000 
     46 O           5.1077  -15.1439  -46.9713 O.2       5 UNK        -0.5000 
     47 CA          4.5714  -12.8138  -46.8626 C.3       5 UNK         0.1400 
     48 CB          3.5782  -12.5882  -48.0129 C.3       5 UNK        -0.1800 
     49 N           4.2792  -11.8676  -45.7846 N.am      5 UNK        -0.5000 
     50 C           5.0918  -10.8894  -45.3702 C.2       4 UNK         0.5000 
     51 O           6.1559  -10.5934  -45.9156 O.2       4 UNK        -0.5000 
     52 CA          4.6462  -10.1347  -44.1046 C.3       4 UNK         0.1400 
     53 CB          3.4715   -9.1912  -44.4112 C.3       4 UNK        -0.1800 
     54 N           4.2656  -11.0401  -43.0191 N.am      4 UNK        -0.5000 
     55 C           5.0832  -11.8843  -42.3760 C.2       3 UNK         0.5000 
     56 O           6.2868  -11.9787  -42.6173 O.2       3 UNK        -0.5000 
     57 CA          4.4677  -12.7891  -41.2848 C.3       3 UNK         0.1400 
     58 CB          4.5236  -12.1081  -39.9039 C.3       3 UNK        -0.1800 
     59 N           3.1178  -13.2945  -41.5828 N.am      3 UNK        -0.5000 
     60 C           1.9735  -12.6075  -41.6980 C.2       2 UNK         0.5000 
     61 O           1.8721  -11.3934  -41.5100 O.2       2 UNK        -0.5000 
     62 CA          0.7416  -13.4045  -42.1659 C.3       2 UNK         0.1400 
     63 CB         -0.2228  -13.6440  -40.9950 C.3       2 UNK        -0.1800 
     64 N           0.0289  -12.7123  -43.2410 N.am      2 UNK        -0.5000 
     65 C           0.5614  -12.3153  -44.4071 C.2       1 UNK         0.5000 
     66 O           1.7179  -12.5737  -44.7490 O.2       1 UNK        -0.5000 
     67 C          -4.5630  -21.8724  -45.5936 C.2       11 UNK         0.5000 
     68 O          -5.5104  -22.5943  -45.9072 O.2       11 UNK        -0.5000 
     69 N          -3.8558  -22.0160  -44.4631 N.am      12 UNK        -0.5000 
     70 CA         -4.0828  -23.0456  -43.4449 C.3       12 UNK         0.1400 
     71 CB         -3.1738  -22.7584  -42.2404 C.3       12 UNK        -0.1800 
     72 C          -3.8724  -24.4894  -43.9507 C.2       12 UNK         0.5000 
     73 O          -4.4369  -25.4194  -43.3745 O.2       12 UNK        -0.5000 
     74 N          -3.0949  -24.6472  -45.0290 N.am      13 UNK        -0.5000 
     75 CA         -2.8418  -25.9026  -45.7336 C.3       13 UNK         0.1400 
     76 CB         -1.3457  -25.9673  -46.0897 C.3       13 UNK        -0.1800 
     77 C          -3.7385  -26.0575  -46.9820 C.2       13 UNK         0.5000 
     78 O          -3.3875  -26.8204  -47.8827 O.2       13 UNK        -0.5000 
     79 N          -4.8663  -25.3299  -47.0321 N.am      14 UNK        -0.5000 
     80 CA         -5.8658  -25.3108  -48.1071 C.3       14 UNK         0.1400 
     81 CB         -6.5725  -26.6776  -48.2277 C.3       14 UNK        -0.1800 
     82 C          -5.2714  -24.8173  -49.4403 C.2       14 UNK         0.5000 
     83 O          -5.3582  -25.5063  -50.4586 O.2       14 UNK        -0.5000 
     84 N          -4.6283  -23.6426  -49.3821 N.am      15 UNK        -0.5000 
     85 CA         -3.8601  -23.0015  -50.4557 C.3       15 UNK         0.1400 
     86 CB         -4.7842  -22.5648  -51.6114 C.3       15 UNK        -0.1800 
     87 C          -2.6785  -23.8816  -50.9117 C.2       15 UNK         0.5000 
     88 O          -2.4432  -24.0314  -52.1101 O.2       15 UNK        -0.5000 
     89 N          -1.9844  -24.4815  -49.9327 N.am      16 UNK        -0.5000 
     90 CA         -0.9079  -25.4670  -50.0830 C.3       16 UNK         0.1400 
     91 CB          0.3680  -24.7865  -50.6213 C.3       16 UNK        -0.1800 
     92 C          -1.3498  -26.6826  -50.9263 C.2       16 UNK         0.5000 
     93 O          -0.6780  -27.0430  -51.8922 O.2       16 UNK        -0.5000 
     94 N          -2.5106  -27.2526  -50.5713 N.am      17 UNK        -0.5000 
     95 CA         -3.2453  -28.2926  -51.3009 C.3       17 UNK         0.1400 
     96 CB         -2.4922  -29.6378  -51.2418 C.3       17 UNK        -0.1800 
     97 C          -3.6057  -27.8555  -52.7391 C.2       17 UNK         0.5000 
     98 O          -3.4036  -28.6104  -53.6922 O.2       17 UNK        -0.5000 
     99 N          -4.1164  -26.6214  -52.8541 N.am      18 UNK        -0.5000 
    100 CA        -4.5060  -25.9115  -54.0775 C.3       18 UNK         0.1400 
    101 CB        -5.7107  -26.6052  -54.7465 C.3       18 UNK        -0.1800 
    102 C         -3.3507  -25.6344  -55.0680 C.2       18 UNK         0.5000 
    103 O         -3.6117  -25.4033  -56.2504 O.2       18 UNK        -0.5000 
    104 N         -2.1004  -25.6441  -54.5865 N.am      19 UNK        -0.5000 
    105 CA        -0.9129  -25.3151  -55.3756 C.3       19 UNK         0.1400 
    106 CB         0.3081  -26.0427  -54.7948 C.3       19 UNK        -0.1800 
    107 C         -0.6477  -23.7999  -55.4363 C.2       19 UNK         0.5000 
    108 O         -0.0938  -23.3285  -56.4310 O.2       19 UNK        -0.5000 
    109 N         -1.0249  -23.0639  -54.3819 N.am      20 UNK        -0.5000 
    110 CA        -0.8816  -21.6118  -54.2981 C.3       20 UNK         0.1400 
    111 CB        -0.8897  -21.1848  -52.8215 C.3       20 UNK        -0.1800 
    112 C         -2.0020  -20.8999  -55.0751 C.2       20 UNK         0.5000 
    113 O         -3.1077  -21.4341  -55.2057 O.2       20 UNK        -0.5000 
    114 N         -1.7120  -19.6784  -55.5405 N.am      21 UNK        -0.5000 
    115 CA        -2.6119  -18.8109  -56.3089 C.3       21 UNK         0.1400 
    116 CB        -1.7623  -17.7884  -57.0856 C.3       21 UNK        -0.1800 
    117 C         -3.6990  -18.1416  -55.4362 C.2       21 UNK         0.5000 
    118 O         -3.8815  -16.9236  -55.4873 O.2       21 UNK        -0.5000 
    119 N         -4.3951  -18.9556  -54.6418 N.am      22 UNK        -0.5000 
    120 CA        -5.4522  -18.5614  -53.7024 C.3       22 UNK         0.1400 
    121 C         -6.5246  -19.6666  -53.4737 C.2       22 UNK         0.5000 
    122 N         -6.4858  -20.7956  -54.1742 N.am      22 UNK        -0.7600 
    123 O         -7.4332  -19.4878  -52.6674 O.2       22 UNK        -0.5000 
    124 C124       -4.8822  -17.9736  -52.3827 C.3       23 UNK        -0.0398 
    125 S125       -3.7390  -19.1011  -51.5099 S.3       23 UNK        -0.2404 
    126 C126       -2.6261  -17.9101  -50.6900 C.3       23 UNK        -0.0205 
    127 H127        0.3231   -9.6926  -43.0900 H         1 UNK         0.0600 
    128 H128       -0.7457   -8.3252  -42.8105 H         1 UNK         0.0600 
    129 H129       -0.0969   -8.6014  -44.4230 H         1 UNK         0.0600 
    130 H130       -2.3834  -11.5545  -44.9127 H         1 UNK         0.3000 
    131 H131        0.2663  -10.5998  -45.6159 H         1 UNK         0.0600 
    132 H132        0.3045  -12.4892  -47.1745 H         1 UNK         0.0800 
    133 H133       -1.1235  -11.5216  -47.3560 H         1 UNK         0.0800 
    134 H134       -2.0247  -13.2976  -48.8458 H         1 UNK         0.0800 
    135 H135       -3.4291  -12.8742  -47.8919 H         1 UNK         0.0800 
    136 H136       -1.8949  -15.4237  -49.9162 H         1 UNK         0.1150 
    137 H137       -4.8079  -18.4477  -49.0776 H         1 UNK         0.1150 
    138 H138       -4.7653  -14.8187  -46.8008 H         1 UNK         0.1150 
    139 H139       -6.0401  -16.7030  -46.0057 H         1 UNK         0.0800 
    140 H140       -7.0215  -16.8257  -47.4466 H         1 UNK         0.0800 
    141 H141       -4.5393  -19.2797  -45.0205 H         1 UNK         0.0800 
    142 H142       -3.8243  -18.6331  -46.4584 H         1 UNK         0.0800 
    143 H143       -4.5153  -20.9961  -47.5443 H         1 UNK         0.0600 
    144 H144       -2.0886  -20.0035  -46.6302 H         1 UNK         0.3000 
    145 H145       -0.0212  -22.8699  -47.2087 H         1 UNK         0.0600 
    146 H146       -0.2941  -20.1901  -48.6723 H         1 UNK         0.0600 
    147 H147        1.1752  -21.1572  -48.5652 H         1 UNK         0.0600 
    148 H148       -0.2366  -21.7782  -49.4064 H         1 UNK         0.0600 
    149 H149        0.3230  -20.1595  -46.1934 H         1 UNK         0.3000 
    150 H150       -0.1153  -21.0248  -42.7770 H         1 UNK         0.0600 
    151 H151        2.2291  -21.7265  -43.0700 H         1 UNK         0.0600 
    152 H152        2.1826  -20.0473  -42.5534 H         1 UNK         0.0600 
    153 H153        2.5150  -20.4460  -44.2390 H         1 UNK         0.0600 
    154 H154        0.7411  -18.6573  -44.2002 H         1 UNK         0.3000 
    155 H155       -2.5226  -17.4071  -44.8945 H         1 UNK         0.0600 
    156 H156       -2.3407  -16.8189  -42.4778 H         1 UNK         0.0600 
    157 H157       -1.8315  -15.4789  -43.4936 H         1 UNK         0.0600 
    158 H158       -0.6263  -16.4741  -42.6745 H         1 UNK         0.0600 
    159 H159        0.0266  -16.1747  -45.0547 H         1 UNK         0.3000 
    160 H160        1.4937  -17.8860  -47.6347 H         1 UNK         0.0600 
    161 H161        1.5279  -15.8807  -49.0876 H         1 UNK         0.0600 
    162 H162        0.0985  -15.2416  -48.2805 H         1 UNK         0.0600 
    163 H163       -0.0018  -16.7282  -49.2216 H         1 UNK         0.0600 
    164 H164        2.0252  -15.2577  -46.6711 H         1 UNK         0.3000 
    165 H165        2.8921  -15.5243  -43.7236 H         1 UNK         0.0600 
    166 H166        5.3885  -16.8046  -44.9355 H         1 UNK         0.0600 
    167 H167        5.3828  -15.7282  -43.5382 H         1 UNK         0.0600 
    168 H168        4.5660  -17.2806  -43.4598 H         1 UNK         0.0600 
    169 H169        3.1904  -13.7168  -44.9219 H         1 UNK         0.3000 
    170 H170        5.5832  -12.6607  -47.2435 H         1 UNK         0.0600 
    171 H171        2.5505  -12.7582  -47.6942 H         1 UNK         0.0600 
    172 H172        3.6463  -11.5704  -48.3973 H         1 UNK         0.0600 
    173 H173        3.7812  -13.2647  -48.8441 H         1 UNK         0.0600 
    174 H174        3.4058  -12.0106  -45.2864 H         1 UNK         0.3000 
    175 H175        5.4883   -9.5314  -43.7595 H         1 UNK         0.0600 
    176 H176        2.5834   -9.7390  -44.7271 H         1 UNK         0.0600 
    177 H177        3.2034   -8.5993  -43.5358 H         1 UNK         0.0600 
    178 H178        3.7290   -8.4936  -45.2091 H         1 UNK         0.0600 
    179 H179        3.2993  -11.0101  -42.7080 H         1 UNK         0.3000 
    180 H180        5.1016  -13.6758  -41.2324 H         1 UNK         0.0600 
    181 H181        3.9432  -11.1856  -39.8776 H         1 UNK         0.0600 
    182 H182        5.5502  -11.8512  -39.6401 H         1 UNK         0.0600 
    183 H183        4.1431  -12.7669  -39.1234 H         1 UNK         0.0600 
    184 H184        3.0830  -14.2883  -41.7561 H         1 UNK         0.3000 
    185 H185        1.0634  -14.3723  -42.5537 H         1 UNK         0.0600 
    186 H186       -0.5861  -12.7045  -40.5761 H         1 UNK         0.0600 
    187 H187       -1.0890  -14.2280  -41.3053 H         1 UNK         0.0600 
    188 H188        0.2681  -14.1938  -40.1909 H         1 UNK         0.0600 
    189 H189       -0.9223  -12.4384  -43.0437 H         1 UNK         0.3000 
    190 H190       -3.1143  -21.3490  -44.2713 H         1 UNK         0.3000 
    191 H191       -5.1212  -22.9635  -43.1179 H         1 UNK         0.0600 
    192 H192       -2.1192  -22.8185  -42.5107 H         1 UNK         0.0600 
    193 H193       -3.3587  -21.7637  -41.8340 H         1 UNK         0.0600 
    194 H194       -3.3487  -23.4758  -41.4376 H         1 UNK         0.0600 
    195 H195       -2.6939  -23.8221  -45.4558 H         1 UNK         0.3000 
    196 H196       -3.0650  -26.7474  -45.0793 H         1 UNK         0.0600 
    197 H197       -0.7269  -25.8792  -45.1965 H         1 UNK         0.0600 
    198 H198       -1.0583  -25.1663  -46.7699 H         1 UNK         0.0600 
    199 H199       -1.0910  -26.9147  -46.5662 H         1 UNK         0.0600 
    200 H200       -5.0357  -24.6720  -46.2807 H         1 UNK         0.3000 
    201 H201       -6.6186  -24.5771  -47.8153 H         1 UNK         0.0600 
    202 H202       -7.3874  -26.6305  -48.9510 H         1 UNK         0.0600 
    203 H203       -7.0023  -26.9841  -47.2742 H         1 UNK         0.0600 
    204 H204       -5.8920  -27.4634  -48.5569 H         1 UNK         0.0600 
    205 H205       -4.5267  -23.2172  -48.4701 H         1 UNK         0.3000 
    206 H206       -3.4187  -22.0980  -50.0331 H         1 UNK         0.0600 
    207 H207       -5.5400  -21.8620  -51.2610 H         1 UNK         0.0600 
    208 H208       -5.3019  -23.4072  -52.0665 H         1 UNK         0.0600 
    209 H209       -4.2227  -22.0642  -52.4009 H         1 UNK         0.0600 
    210 H210       -2.2570  -24.2622  -48.9795 H         1 UNK         0.3000 
    211 H211       -0.6863  -25.8497  -49.0866 H         1 UNK         0.0600 
    212 H212        0.6896  -23.9791  -49.9644 H         1 UNK         0.0600 
    213 H213        1.1927  -25.4971  -50.6858 H         1 UNK         0.0600 
    214 H214        0.2175  -24.3688  -51.6172 H         1 UNK         0.0600 
    215 H215       -2.9646  -26.9159  -49.7249 H         1 UNK         0.3000 
    216 H216       -4.1921  -28.4209  -50.7742 H         1 UNK         0.0600 
    217 H217       -3.0897  -30.4382  -51.6795 H         1 UNK         0.0600 
    218 H218       -1.5482  -29.5997  -51.7861 H         1 UNK         0.0600 
    219 H219       -2.2747  -29.9214  -50.2121 H         1 UNK         0.0600 
    220 H220       -4.2790  -26.1051  -51.9937 H         1 UNK         0.3000 
    221 H221       -4.8422  -24.9282  -53.7501 H         1 UNK         0.0600 
    222 H222       -5.4379  -27.5735  -55.1668 H         1 UNK         0.0600 
    223 H223       -6.5195  -26.7638  -54.0331 H         1 UNK         0.0600 
    224 H224       -6.1129  -25.9984  -55.5585 H         1 UNK         0.0600 
    225 H225       -1.9646  -25.8045  -53.5959 H         1 UNK         0.3000 
    226 H226       -1.0545  -25.6717  -56.3980 H         1 UNK         0.0600 
    227 H227        0.1322  -27.1161  -54.7211 H         1 UNK         0.0600 
    228 H228        1.1844  -25.8976  -55.4276 H         1 UNK         0.0600 
    229 H229        0.5603  -25.6737  -53.8003 H         1 UNK         0.0600 
    230 H230       -1.5341  -23.5101  -53.6216 H         1 UNK         0.3000 
    231 H231        0.0809  -21.3294  -54.7301 H         1 UNK         0.0600 
    232 H232       -0.6872  -20.1180  -52.7207 H         1 UNK         0.0600 
    233 H233       -0.1298  -21.7169  -52.2490 H         1 UNK         0.0600 
    234 H234       -1.8551  -21.3746  -52.3542 H         1 UNK         0.0600 
    235 H235       -0.7975  -19.2957  -55.3488 H         1 UNK         0.3000 
    236 H236       -3.1354  -19.4266  -57.0432 H         1 UNK         0.0600 
    237 H237       -1.0415  -18.2861  -57.7346 H         1 UNK         0.0600 
    238 H238       -2.3874  -17.1609  -57.7222 H         1 UNK         0.0600 
    239 H239       -1.2109  -17.1301  -56.4131 H         1 UNK         0.0600 
    240 H240       -4.1412  -19.9386  -54.6420 H         1 UNK         0.3000 
    241 H241       -6.0170  -17.7611  -54.1838 H         1 UNK         0.0600 
    242 H242       -5.7759  -20.9666  -54.8680 H         1 UNK         0.3800 
    243 H243       -7.2002  -21.4881  -54.0165 H         1 UNK         0.3800 
    244 H244       -5.6859  -17.6919  -51.7006 H         1 UNK         0.0800 
    245 H245       -4.3533  -17.0466  -52.6071 H         1 UNK         0.0800 
    246 H246       -2.1580  -17.2891  -51.4552 H         1 UNK         0.0800 
    247 H247       -1.8214  -18.4695  -50.2111 H         1 UNK         0.0800 
@<TRIPOS>BOND
     1    1    2 1    
     2    1  127 1    
     3    1  128 1    
     4    1  129 1    
     5    2    3 2    
     6    2    4 am   BACKBONE|DICT|INTERRES
     7    4    5 1    
     8    4  130 1    
     9    5    6 1    
    10    5   65 1    
    11    5  131 1    
    12    6    7 1    
    13    6  132 1    
    14    6  133 1    
    15    7    8 1    
    16    8    9 1    
    17    8  134 1    
    18    8  135 1    
    19    9   10 ar   
    20    9   14 ar   
    21   10   11 ar   
    22   10  136 1    
    23   11   12 ar   
    24   11  126 1    
    25   12   13 ar   
    26   12  137 1    
    27   13   14 ar   
    28   13   15 1    
    29   14  138 1    
    30   15   16 1    
    31   15  139 1    
    32   15  140 1    
    33   16   17 1    
    34   17   18 1    
    35   17  141 1    
    36   17  142 1    
    37   18   19 1    
    38   18   67 1    
    39   18  143 1    
    40   19   20 am   BACKBONE|DICT|INTERRES
    41   19  144 1    
    42   20   21 2    
    43   20   22 1    
    44   22   23 1    
    45   22   24 1    
    46   22  145 1    
    47   23  146 1    
    48   23  147 1    
    49   23  148 1    
    50   24   25 am   BACKBONE|DICT|INTERRES
    51   24  149 1    
    52   25   26 2    
    53   25   27 1    
    54   27   28 1    
    55   27   29 1    
    56   27  150 1    
    57   28  151 1    
    58   28  152 1    
    59   28  153 1    
    60   29   30 am   BACKBONE|DICT|INTERRES
    61   29  154 1    
    62   30   31 2    
    63   30   32 1    
    64   32   33 1    
    65   32   34 1    
    66   32  155 1    
    67   33  156 1    
    68   33  157 1    
    69   33  158 1    
    70   34   35 am   BACKBONE|DICT|INTERRES
    71   34  159 1    
    72   35   36 2    
    73   35   37 1    
    74   37   38 1    
    75   37   39 1    
    76   37  160 1    
    77   38  161 1    
    78   38  162 1    
    79   38  163 1    
    80   39   40 am   BACKBONE|DICT|INTERRES
    81   39  164 1    
    82   40   41 2    
    83   40   42 1    
    84   42   43 1    
    85   42   44 1    
    86   42  165 1    
    87   43  166 1    
    88   43  167 1    
    89   43  168 1    
    90   44   45 am   BACKBONE|DICT|INTERRES
    91   44  169 1    
    92   45   46 2    
    93   45   47 1    
    94   47   48 1    
    95   47   49 1    
    96   47  170 1    
    97   48  171 1    
    98   48  172 1    
    99   48  173 1    
   100   49   50 am   BACKBONE|DICT|INTERRES
   101   49  174 1    
   102   50   51 2    
   103   50   52 1    
   104   52   53 1    
   105   52   54 1    
   106   52  175 1    
   107   53  176 1    
   108   53  177 1    
   109   53  178 1    
   110   54   55 am   BACKBONE|DICT|INTERRES
   111   54  179 1    
   112   55   56 2    
   113   55   57 1    
   114   57   58 1    
   115   57   59 1    
   116   57  180 1    
   117   58  181 1    
   118   58  182 1    
   119   58  183 1    
   120   59   60 am   BACKBONE|DICT|INTERRES
   121   59  184 1    
   122   60   61 2    
   123   60   62 1    
   124   62   63 1    
   125   62   64 1    
   126   62  185 1    
   127   63  186 1    
   128   63  187 1    
   129   63  188 1    
   130   64   65 am   BACKBONE|DICT|INTERRES
   131   64  189 1    
   132   65   66 2    
   133   67   68 2    
   134   67   69 am   BACKBONE|DICT|INTERRES
   135   69   70 1    
   136   69  190 1    
   137   70   71 1    
   138   70   72 1    
   139   70  191 1    
   140   71  192 1    
   141   71  193 1    
   142   71  194 1    
   143   72   73 2    
   144   72   74 am   BACKBONE|DICT|INTERRES
   145   74   75 1    
   146   74  195 1    
   147   75   76 1    
   148   75   77 1    
   149   75  196 1    
   150   76  197 1    
   151   76  198 1    
   152   76  199 1    
   153   77   78 2    
   154   77   79 am   BACKBONE|DICT|INTERRES
   155   79   80 1    
   156   79  200 1    
   157   80   81 1    
   158   80   82 1    
   159   80  201 1    
   160   81  202 1    
   161   81  203 1    
   162   81  204 1    
   163   82   83 2    
   164   82   84 am   BACKBONE|DICT|INTERRES
   165   84   85 1    
   166   84  205 1    
   167   85   86 1    
   168   85   87 1    
   169   85  206 1    
   170   86  207 1    
   171   86  208 1    
   172   86  209 1    
   173   87   88 2    
   174   87   89 am   BACKBONE|DICT|INTERRES
   175   89   90 1    
   176   89  210 1    
   177   90   91 1    
   178   90   92 1    
   179   90  211 1    
   180   91  212 1    
   181   91  213 1    
   182   91  214 1    
   183   92   93 2    
   184   92   94 am   BACKBONE|DICT|INTERRES
   185   94   95 1    
   186   94  215 1    
   187   95   96 1    
   188   95   97 1    
   189   95  216 1    
   190   96  217 1    
   191   96  218 1    
   192   96  219 1    
   193   97   98 2    
   194   97   99 am   BACKBONE|DICT|INTERRES
   195   99  100 1    
   196   99  220 1    
   197  100  101 1    
   198  100  102 1    
   199  100  221 1    
   200  101  222 1    
   201  101  223 1    
   202  101  224 1    
   203  102  103 2    
   204  102  104 am   BACKBONE|DICT|INTERRES
   205  104  105 1    
   206  104  225 1    
   207  105  106 1    
   208  105  107 1    
   209  105  226 1    
   210  106  227 1    
   211  106  228 1    
   212  106  229 1    
   213  107  108 2    
   214  107  109 am   BACKBONE|DICT|INTERRES
   215  109  110 1    
   216  109  230 1    
   217  110  111 1    
   218  110  112 1    
   219  110  231 1    
   220  111  232 1    
   221  111  233 1    
   222  111  234 1    
   223  112  113 2    
   224  112  114 am   BACKBONE|DICT|INTERRES
   225  114  115 1    
   226  114  235 1    
   227  115  116 1    
   228  115  117 1    
   229  115  236 1    
   230  116  237 1    
   231  116  238 1    
   232  116  239 1    
   233  117  118 2    
   234  117  119 am   BACKBONE|DICT|INTERRES
   235  119  120 1    
   236  119  240 1    
   237  120  121 1    
   238  120  124 1    
   239  120  241 1    
   240  121  122 am   BACKBONE|DICT|INTERRES
   241  121  123 2    
   242  122  242 1    
   243  122  243 1    
   244  124  125 1    
   245  124  244 1    
   246  124  245 1    
   247  125  126 1    
   248  126  246 1    
   249  126  247 1    
@<TRIPOS>SUBSTRUCTURE
     1 UNK         1 GROUP             0       ****    0 ROOT    
