@<TRIPOS>MOLECULE
3R540
247   249    1
SMALL
USER_CHARGES


@<TRIPOS>ATOM
      1 CA         -1.1705   -9.2222  -49.9137 C.3       0 UNK        -0.1800 
      2 C           0.2100   -9.7966  -49.6285 C.2       0 UNK         0.5000 
      3 O           1.2093   -9.2540  -50.1002 O.2       0 UNK        -0.5000 
      4 N           0.2685  -10.8902  -48.8577 N.am      1 UNK        -0.5000 
      5 CA          1.5076  -11.5861  -48.4850 C.3       1 UNK         0.1400 
      6 C6          1.2314  -13.0224  -47.9823 C.3       23 UNK        -0.0398 
      7 S7          0.5873  -14.1362  -49.2759 S.3       23 UNK        -0.2404 
      8 C8         -1.1595  -14.3619  -48.7872 C.3       23 UNK        -0.0205 
      9 C9         -1.8143  -15.5594  -49.4746 C.ar      23 UNK        -0.0193 
     10 C10        -1.6662  -15.7580  -50.8520 C.ar      23 UNK        -0.1150 
     11 C11        -2.2581  -16.8537  -51.4827 C.ar      23 UNK        -0.0193 
     12 C12        -3.0306  -17.7430  -50.7336 C.ar      23 UNK        -0.1150 
     13 C13        -3.2212  -17.5454  -49.3631 C.ar      23 UNK        -0.0193 
     14 C14        -2.5981  -16.4577  -48.7375 C.ar      23 UNK        -0.1150 
     15 C15        -4.1541  -18.4661  -48.5801 C.3       23 UNK        -0.0205 
     16 S16        -3.6875  -20.2277  -48.6692 S.3       23 UNK        -0.2404 
     17 C17        -2.3687  -20.2843  -47.4129 C.3       23 UNK        -0.0398 
     18 CA         -1.5072  -21.5679  -47.4818 C.3       11 UNK         0.1400 
     19 N          -0.2156  -21.3848  -46.8216 N.am      11 UNK        -0.5000 
     20 C           0.8263  -22.2193  -46.9256 C.2       10 UNK         0.5000 
     21 O           0.8292  -23.2222  -47.6388 O.2       10 UNK        -0.5000 
     22 CA          2.0577  -21.8978  -46.0578 C.3       10 UNK         0.1400 
     23 CB          2.9282  -20.8204  -46.7215 C.3       10 UNK        -0.1800 
     24 N           1.7020  -21.4726  -44.7022 N.am      10 UNK        -0.5000 
     25 C           1.0796  -22.2475  -43.8025 C.2       9 UNK         0.5000 
     26 O           0.7639  -23.4188  -44.0123 O.2       9 UNK        -0.5000 
     27 CA          0.7036  -21.5915  -42.4610 C.3       9 UNK         0.1400 
     28 CB          1.9201  -21.4960  -41.5280 C.3       9 UNK        -0.1800 
     29 N           0.1081  -20.2663  -42.6334 N.am      9 UNK        -0.5000 
     30 C          -1.0640  -20.0405  -43.2443 C.2       8 UNK         0.5000 
     31 O          -1.7821  -20.9273  -43.7019 O.2       8 UNK        -0.5000 
     32 CA         -1.4810  -18.5732  -43.4286 C.3       8 UNK         0.1400 
     33 CB         -2.0892  -18.0162  -42.1332 C.3       8 UNK        -0.1800 
     34 N          -0.3706  -17.7280  -43.8655 N.am      8 UNK        -0.5000 
     35 C           0.3031  -17.8970  -45.0122 C.2       7 UNK         0.5000 
     36 O           0.0301  -18.7596  -45.8433 O.2       7 UNK        -0.5000 
     37 CA          1.5147  -16.9869  -45.2547 C.3       7 UNK         0.1400 
     38 CB          1.0628  -15.6142  -45.7552 C.3       7 UNK        -0.1800 
     39 N           2.3445  -16.8204  -44.0664 N.am      7 UNK        -0.5000 
     40 C           3.0066  -17.8081  -43.4505 C.2       6 UNK         0.5000 
     41 O           2.9958  -18.9812  -43.8243 O.2       6 UNK        -0.5000 
     42 CA          3.7797  -17.4169  -42.1817 C.3       6 UNK         0.1400 
     43 CB          5.1354  -16.7890  -42.5396 C.3       6 UNK        -0.1800 
     44 N           3.0142  -16.4855  -41.3541 N.am      6 UNK        -0.5000 
     45 C           1.9384  -16.8283  -40.6330 C.2       5 UNK         0.5000 
     46 O           1.4997  -17.9771  -40.5583 O.2       5 UNK        -0.5000 
     47 CA          1.2158  -15.6831  -39.8991 C.3       5 UNK         0.1400 
     48 CB          1.9410  -15.3302  -38.5917 C.3       5 UNK        -0.1800 
     49 N           1.0761  -14.4771  -40.7202 N.am      5 UNK        -0.5000 
     50 C           0.3193  -14.4075  -41.8236 C.2       4 UNK         0.5000 
     51 O          -0.3209  -15.3563  -42.2715 O.2       4 UNK        -0.5000 
     52 CA          0.2863  -13.0661  -42.5758 C.3       4 UNK         0.1400 
     53 CB         -0.7410  -12.1173  -41.9412 C.3       4 UNK        -0.1800 
     54 N           1.5732  -12.3764  -42.6855 N.am      4 UNK        -0.5000 
     55 C           2.7147  -12.8868  -43.1652 C.2       3 UNK         0.5000 
     56 O           2.8756  -14.0793  -43.4293 O.2       3 UNK        -0.5000 
     57 CA          3.8390  -11.8690  -43.4438 C.3       3 UNK         0.1400 
     58 CB          5.1505  -12.5454  -43.8810 C.3       3 UNK        -0.1800 
     59 N           3.4291  -10.9230  -44.4839 N.am      3 UNK        -0.5000 
     60 C           2.6248   -9.8661  -44.3192 C.2       2 UNK         0.5000 
     61 O           2.1702   -9.5301  -43.2245 O.2       2 UNK        -0.5000 
     62 CA          2.2184   -9.0788  -45.5819 C.3       2 UNK         0.1400 
     63 CB          3.3555   -8.1562  -46.0611 C.3       2 UNK        -0.1800 
     64 N           1.6960   -9.9152  -46.6742 N.am      2 UNK        -0.5000 
     65 C           2.3394  -10.8176  -47.4321 C.2       1 UNK         0.5000 
     66 O           3.5370  -11.0805  -47.3113 O.2       1 UNK        -0.5000 
     67 C          -2.2433  -22.8092  -46.9343 C.2       11 UNK         0.5000 
     68 O          -2.7289  -23.6152  -47.7260 O.2       11 UNK        -0.5000 
     69 N          -2.2667  -22.9871  -45.6041 N.am      12 UNK        -0.5000 
     70 CA         -2.8529  -24.1496  -44.9284 C.3       12 UNK         0.1400 
     71 CB         -2.8563  -23.9276  -43.4095 C.3       12 UNK        -0.1800 
     72 C          -2.1555  -25.4766  -45.2801 C.2       12 UNK         0.5000 
     73 O          -2.8353  -26.4903  -45.4414 O.2       12 UNK        -0.5000 
     74 N          -0.8264  -25.4430  -45.4555 N.am      13 UNK        -0.5000 
     75 CA         -0.0231  -26.5671  -45.9487 C.3       13 UNK         0.1400 
     76 CB          1.4688  -26.2388  -45.7886 C.3       13 UNK        -0.1800 
     77 C          -0.3478  -26.9558  -47.4076 C.2       13 UNK         0.5000 
     78 O          -0.1490  -28.1104  -47.7856 O.2       13 UNK        -0.5000 
     79 N          -0.8860  -26.0037  -48.1803 N.am      14 UNK        -0.5000 
     80 CA         -1.4294  -26.1827  -49.5267 C.3       14 UNK         0.1400 
     81 CB         -0.9963  -24.9859  -50.3890 C.3       14 UNK        -0.1800 
     82 C          -2.9655  -26.3612  -49.5030 C.2       14 UNK         0.5000 
     83 O          -3.6331  -26.0627  -50.4943 O.2       14 UNK        -0.5000 
     84 N          -3.5011  -26.8358  -48.3672 N.am      15 UNK        -0.5000 
     85 CA         -4.9030  -27.1712  -48.0923 C.3       15 UNK         0.1400 
     86 CB         -5.3896  -28.2987  -49.0273 C.3       15 UNK        -0.1800 
     87 C          -5.8647  -25.9641  -48.0720 C.2       15 UNK         0.5000 
     88 O          -7.0763  -26.1602  -48.1808 O.2       15 UNK        -0.5000 
     89 N          -5.3226  -24.7453  -47.9194 N.am      16 UNK        -0.5000 
     90 CA         -6.0248  -23.4563  -47.9049 C.3       16 UNK         0.1400 
     91 CB         -6.9082  -23.3235  -46.6477 C.3       16 UNK        -0.1800 
     92 C          -6.7827  -23.1767  -49.2196 C.2       16 UNK         0.5000 
     93 O          -7.8692  -22.5965  -49.2028 O.2       16 UNK        -0.5000 
     94 N          -6.1901  -23.6076  -50.3422 N.am      17 UNK        -0.5000 
     95 CA         -6.7815  -23.5645  -51.6812 C.3       17 UNK         0.1400 
     96 CB         -6.0719  -24.6079  -52.5587 C.3       17 UNK        -0.1800 
     97 C          -6.7945  -22.1652  -52.3374 C.2       17 UNK         0.5000 
     98 O          -7.3038  -22.0332  -53.4515 O.2       17 UNK        -0.5000 
     99 N          -6.2556  -21.1475  -51.6475 N.am      18 UNK        -0.5000 
    100 CA        -6.2534  -19.7282  -52.0149 C.3       18 UNK         0.1400 
    101 CB        -7.6833  -19.1486  -51.9390 C.3       18 UNK        -0.1800 
    102 C         -5.5467  -19.4920  -53.3637 C.2       18 UNK         0.5000 
    103 O         -4.3477  -19.7510  -53.4646 O.2       18 UNK        -0.5000 
    104 N         -6.2840  -19.0525  -54.3916 N.am      19 UNK        -0.5000 
    105 CA        -5.7756  -18.8550  -55.7517 C.3       19 UNK         0.1400 
    106 CB        -6.8975  -18.2909  -56.6354 C.3       19 UNK        -0.1800 
    107 C         -5.1835  -20.1341  -56.3768 C.2       19 UNK         0.5000 
    108 O         -4.2018  -20.0480  -57.1141 O.2       19 UNK        -0.5000 
    109 N         -5.7489  -21.2988  -56.0308 N.am      20 UNK        -0.5000 
    110 CA        -5.2580  -22.6070  -56.4611 C.3       20 UNK         0.1400 
    111 CB        -6.4229  -23.6089  -56.4657 C.3       20 UNK        -0.1800 
    112 C         -4.0645  -23.1179  -55.6269 C.2       20 UNK         0.5000 
    113 O         -3.4113  -24.0686  -56.0586 O.2       20 UNK        -0.5000 
    114 N         -3.7742  -22.4892  -54.4755 N.am      21 UNK        -0.5000 
    115 CA        -2.5564  -22.7457  -53.7027 C.3       21 UNK         0.1400 
    116 CB        -2.7330  -22.3290  -52.2305 C.3       21 UNK        -0.1800 
    117 C         -1.3557  -22.0229  -54.3343 C.2       21 UNK         0.5000 
    118 O         -0.3009  -22.6359  -54.5039 O.2       21 UNK        -0.5000 
    119 N         -1.5434  -20.7422  -54.6816 N.am      22 UNK        -0.5000 
    120 CA        -0.5157  -19.9147  -55.3354 C.3       22 UNK         0.1400 
    121 C         -0.3651  -20.1836  -56.8585 C.2       22 UNK         0.5000 
    122 N         -1.4198  -20.5377  -57.5813 N.am      22 UNK        -0.7600 
    123 O          0.7346  -20.0770  -57.3945 O.2       22 UNK        -0.5000 
    124 C124       -0.7112  -18.4045  -55.0596 C.3       23 UNK        -0.0398 
    125 S125       -0.5421  -18.0187  -53.2846 S.3       23 UNK        -0.2404 
    126 C126       -2.0634  -17.0777  -52.9723 C.3       23 UNK        -0.0205 
    127 H127       -1.2348   -8.1988  -49.5441 H         1 UNK         0.0600 
    128 H128       -1.9593   -9.8059  -49.4384 H         1 UNK         0.0600 
    129 H129       -1.3571   -9.2104  -50.9876 H         1 UNK         0.0600 
    130 H130       -0.5882  -11.2976  -48.5124 H         1 UNK         0.3000 
    131 H131        2.1328  -11.6596  -49.3778 H         1 UNK         0.0600 
    132 H132        0.5596  -13.0105  -47.1225 H         1 UNK         0.0800 
    133 H133        2.1616  -13.4757  -47.6356 H         1 UNK         0.0800 
    134 H134       -1.2214  -14.4754  -47.7044 H         1 UNK         0.0800 
    135 H135       -1.7203  -13.4609  -49.0387 H         1 UNK         0.0800 
    136 H136       -1.0738  -15.0670  -51.4350 H         1 UNK         0.1150 
    137 H137       -3.4845  -18.5916  -51.2219 H         1 UNK         0.1150 
    138 H138       -2.7404  -16.2985  -47.6778 H         1 UNK         0.1150 
    139 H139       -4.2136  -18.1630  -47.5336 H         1 UNK         0.0800 
    140 H140       -5.1617  -18.3546  -48.9819 H         1 UNK         0.0800 
    141 H141       -2.7975  -20.1443  -46.4190 H         1 UNK         0.0800 
    142 H142       -1.7354  -19.4155  -47.5952 H         1 UNK         0.0800 
    143 H143       -1.2893  -21.7625  -48.5346 H         1 UNK         0.0600 
    144 H144       -0.1119  -20.5413  -46.2614 H         1 UNK         0.3000 
    145 H145        2.6513  -22.8105  -45.9749 H         1 UNK         0.0600 
    146 H146        3.2323  -21.1264  -47.7232 H         1 UNK         0.0600 
    147 H147        2.3964  -19.8731  -46.8140 H         1 UNK         0.0600 
    148 H148        3.8361  -20.6381  -46.1462 H         1 UNK         0.0600 
    149 H149        1.9622  -20.5268  -44.4367 H         1 UNK         0.3000 
    150 H150       -0.0399  -22.2293  -41.9786 H         1 UNK         0.0600 
    151 H151        2.3575  -22.4803  -41.3568 H         1 UNK         0.0600 
    152 H152        1.6393  -21.0904  -40.5558 H         1 UNK         0.0600 
    153 H153        2.7009  -20.8577  -41.9415 H         1 UNK         0.0600 
    154 H154        0.6412  -19.4768  -42.2931 H         1 UNK         0.3000 
    155 H155       -2.2479  -18.5419  -44.2053 H         1 UNK         0.0600 
    156 H156       -1.3478  -17.9507  -41.3358 H         1 UNK         0.0600 
    157 H157       -2.5012  -17.0193  -42.2899 H         1 UNK         0.0600 
    158 H158       -2.9024  -18.6500  -41.7772 H         1 UNK         0.0600 
    159 H159       -0.1229  -16.9552  -43.2526 H         1 UNK         0.3000 
    160 H160        2.1331  -17.4460  -46.0286 H         1 UNK         0.0600 
    161 H161        0.3887  -15.1256  -45.0522 H         1 UNK         0.0600 
    162 H162        0.5393  -15.7131  -46.7051 H         1 UNK         0.0600 
    163 H163        1.9192  -14.9601  -45.9101 H         1 UNK         0.0600 
    164 H164        2.4437  -15.8723  -43.7113 H         1 UNK         0.3000 
    165 H165        3.9647  -18.3260  -41.6054 H         1 UNK         0.0600 
    166 H166        5.7103  -16.5552  -41.6435 H         1 UNK         0.0600 
    167 H167        5.7345  -17.4740  -43.1410 H         1 UNK         0.0600 
    168 H168        5.0169  -15.8681  -43.1119 H         1 UNK         0.0600 
    169 H169        3.2650  -15.5093  -41.4170 H         1 UNK         0.3000 
    170 H170        0.2135  -16.0357  -39.6457 H         1 UNK         0.0600 
    171 H171        2.0460  -16.2093  -37.9545 H         1 UNK         0.0600 
    172 H172        2.9415  -14.9376  -38.7773 H         1 UNK         0.0600 
    173 H173        1.3871  -14.5828  -38.0233 H         1 UNK         0.0600 
    174 H174        1.5818  -13.6544  -40.4262 H         1 UNK         0.3000 
    175 H175       -0.0435  -13.2777  -43.5942 H         1 UNK         0.0600 
    176 H176       -0.4439  -11.8176  -40.9354 H         1 UNK         0.0600 
    177 H177       -0.8642  -11.2131  -42.5378 H         1 UNK         0.0600 
    178 H178       -1.7203  -12.5924  -41.8674 H         1 UNK         0.0600 
    179 H179        1.5543  -11.3738  -42.5335 H         1 UNK         0.3000 
    180 H180        4.0327  -11.3250  -42.5171 H         1 UNK         0.0600 
    181 H181        5.0275  -13.0992  -44.8128 H         1 UNK         0.0600 
    182 H182        5.5002  -13.2478  -43.1233 H         1 UNK         0.0600 
    183 H183        5.9412  -11.8101  -44.0312 H         1 UNK         0.0600 
    184 H184        3.7132  -11.1394  -45.4357 H         1 UNK         0.3000 
    185 H185        1.3875   -8.4349  -45.2890 H         1 UNK         0.0600 
    186 H186        3.6494   -7.4627  -45.2723 H         1 UNK         0.0600 
    187 H187        4.2465   -8.7149  -46.3484 H         1 UNK         0.0600 
    188 H188        3.0430   -7.5599  -46.9184 H         1 UNK         0.0600 
    189 H189        0.7087   -9.8004  -46.8556 H         1 UNK         0.3000 
    190 H190       -1.8798  -22.2672  -44.9980 H         1 UNK         0.3000 
    191 H191       -3.8906  -24.2312  -45.2576 H         1 UNK         0.0600 
    192 H192       -1.8473  -23.7840  -43.0220 H         1 UNK         0.0600 
    193 H193       -3.2906  -24.7822  -42.8892 H         1 UNK         0.0600 
    194 H194       -3.4467  -23.0515  -43.1414 H         1 UNK         0.0600 
    195 H195       -0.3258  -24.5876  -45.2339 H         1 UNK         0.3000 
    196 H196       -0.2464  -27.4343  -45.3239 H         1 UNK         0.0600 
    197 H197        2.0897  -27.0763  -46.1088 H         1 UNK         0.0600 
    198 H198        1.7169  -26.0295  -44.7479 H         1 UNK         0.0600 
    199 H199        1.7573  -25.3715  -46.3819 H         1 UNK         0.0600 
    200 H200       -1.0245  -25.0846  -47.7784 H         1 UNK         0.3000 
    201 H201       -1.0141  -27.0860  -49.9771 H         1 UNK         0.0600 
    202 H202        0.0897  -24.8965  -50.4202 H         1 UNK         0.0600 
    203 H203       -1.3939  -24.0512  -49.9951 H         1 UNK         0.0600 
    204 H204       -1.3428  -25.0897  -51.4179 H         1 UNK         0.0600 
    205 H205       -2.8787  -26.9741  -47.5809 H         1 UNK         0.3000 
    206 H206       -4.9135  -27.5676  -47.0762 H         1 UNK         0.0600 
    207 H207       -6.3642  -28.6751  -48.7144 H         1 UNK         0.0600 
    208 H208       -5.4893  -27.9560  -50.0576 H         1 UNK         0.0600 
    209 H209       -4.7011  -29.1437  -49.0188 H         1 UNK         0.0600 
    210 H210       -4.3097  -24.6713  -47.8686 H         1 UNK         0.3000 
    211 H211       -5.2543  -22.6889  -47.8379 H         1 UNK         0.0600 
    212 H212       -7.7458  -24.0212  -46.6638 H         1 UNK         0.0600 
    213 H213       -7.3224  -22.3179  -46.5665 H         1 UNK         0.0600 
    214 H214       -6.3331  -23.5095  -45.7408 H         1 UNK         0.0600 
    215 H215       -5.3082  -24.0962  -50.2590 H         1 UNK         0.3000 
    216 H216       -7.8259  -23.8705  -51.5922 H         1 UNK         0.0600 
    217 H217       -5.0273  -24.3552  -52.7333 H         1 UNK         0.0600 
    218 H218       -6.5570  -24.7032  -53.5285 H         1 UNK         0.0600 
    219 H219       -6.0985  -25.5939  -52.0939 H         1 UNK         0.0600 
    220 H220       -5.8275  -21.3685  -50.7606 H         1 UNK         0.3000 
    221 H221       -5.6579  -19.2160  -51.2609 H         1 UNK         0.0600 
    222 H222       -8.3653  -19.6288  -52.6415 H         1 UNK         0.0600 
    223 H223       -8.0993  -19.2798  -50.9399 H         1 UNK         0.0600 
    224 H224       -7.6862  -18.0779  -52.1473 H         1 UNK         0.0600 
    225 H225       -7.2692  -18.8884  -54.2450 H         1 UNK         0.3000 
    226 H226       -4.9742  -18.1150  -55.7005 H         1 UNK         0.0600 
    227 H227       -7.2637  -17.3394  -56.2495 H         1 UNK         0.0600 
    228 H228       -6.5421  -18.1131  -57.6514 H         1 UNK         0.0600 
    229 H229       -7.7433  -18.9768  -56.6986 H         1 UNK         0.0600 
    230 H230       -6.5130  -21.2999  -55.3644 H         1 UNK         0.3000 
    231 H231       -4.9017  -22.5246  -57.4903 H         1 UNK         0.0600 
    232 H232       -6.0824  -24.6122  -56.7251 H         1 UNK         0.0600 
    233 H233       -7.1772  -23.3242  -57.1992 H         1 UNK         0.0600 
    234 H234       -6.9135  -23.6666  -55.4965 H         1 UNK         0.0600 
    235 H235       -4.3155  -21.6772  -54.2050 H         1 UNK         0.3000 
    236 H236       -2.3482  -23.8180  -53.7137 H         1 UNK         0.0600 
    237 H237       -3.5272  -22.8909  -51.7419 H         1 UNK         0.0600 
    238 H238       -1.8160  -22.5134  -51.6724 H         1 UNK         0.0600 
    239 H239       -2.9502  -21.2694  -52.1151 H         1 UNK         0.0600 
    240 H240       -2.4311  -20.3011  -54.4770 H         1 UNK         0.3000 
    241 H241        0.4470  -20.1852  -54.8957 H         1 UNK         0.0600 
    242 H242       -2.3602  -20.5229  -57.1978 H         1 UNK         0.3800 
    243 H243       -1.2976  -20.7145  -58.5654 H         1 UNK         0.3800 
    244 H244        0.0373  -17.8150  -55.5923 H         1 UNK         0.0800 
    245 H245       -1.6825  -18.0733  -55.4310 H         1 UNK         0.0800 
    246 H246       -2.9204  -17.6082  -53.3862 H         1 UNK         0.0800 
    247 H247       -2.0119  -16.1208  -53.4938 H         1 UNK         0.0800 
@<TRIPOS>BOND
     1    1    2 1    
     2    1  127 1    
     3    1  128 1    
     4    1  129 1    
     5    2    3 2    
     6    2    4 am   BACKBONE|DICT|INTERRES
     7    4    5 1    
     8    4  130 1    
     9    5    6 1    
    10    5   65 1    
    11    5  131 1    
    12    6    7 1    
    13    6  132 1    
    14    6  133 1    
    15    7    8 1    
    16    8    9 1    
    17    8  134 1    
    18    8  135 1    
    19    9   10 ar   
    20    9   14 ar   
    21   10   11 ar   
    22   10  136 1    
    23   11   12 ar   
    24   11  126 1    
    25   12   13 ar   
    26   12  137 1    
    27   13   14 ar   
    28   13   15 1    
    29   14  138 1    
    30   15   16 1    
    31   15  139 1    
    32   15  140 1    
    33   16   17 1    
    34   17   18 1    
    35   17  141 1    
    36   17  142 1    
    37   18   19 1    
    38   18   67 1    
    39   18  143 1    
    40   19   20 am   BACKBONE|DICT|INTERRES
    41   19  144 1    
    42   20   21 2    
    43   20   22 1    
    44   22   23 1    
    45   22   24 1    
    46   22  145 1    
    47   23  146 1    
    48   23  147 1    
    49   23  148 1    
    50   24   25 am   BACKBONE|DICT|INTERRES
    51   24  149 1    
    52   25   26 2    
    53   25   27 1    
    54   27   28 1    
    55   27   29 1    
    56   27  150 1    
    57   28  151 1    
    58   28  152 1    
    59   28  153 1    
    60   29   30 am   BACKBONE|DICT|INTERRES
    61   29  154 1    
    62   30   31 2    
    63   30   32 1    
    64   32   33 1    
    65   32   34 1    
    66   32  155 1    
    67   33  156 1    
    68   33  157 1    
    69   33  158 1    
    70   34   35 am   BACKBONE|DICT|INTERRES
    71   34  159 1    
    72   35   36 2    
    73   35   37 1    
    74   37   38 1    
    75   37   39 1    
    76   37  160 1    
    77   38  161 1    
    78   38  162 1    
    79   38  163 1    
    80   39   40 am   BACKBONE|DICT|INTERRES
    81   39  164 1    
    82   40   41 2    
    83   40   42 1    
    84   42   43 1    
    85   42   44 1    
    86   42  165 1    
    87   43  166 1    
    88   43  167 1    
    89   43  168 1    
    90   44   45 am   BACKBONE|DICT|INTERRES
    91   44  169 1    
    92   45   46 2    
    93   45   47 1    
    94   47   48 1    
    95   47   49 1    
    96   47  170 1    
    97   48  171 1    
    98   48  172 1    
    99   48  173 1    
   100   49   50 am   BACKBONE|DICT|INTERRES
   101   49  174 1    
   102   50   51 2    
   103   50   52 1    
   104   52   53 1    
   105   52   54 1    
   106   52  175 1    
   107   53  176 1    
   108   53  177 1    
   109   53  178 1    
   110   54   55 am   BACKBONE|DICT|INTERRES
   111   54  179 1    
   112   55   56 2    
   113   55   57 1    
   114   57   58 1    
   115   57   59 1    
   116   57  180 1    
   117   58  181 1    
   118   58  182 1    
   119   58  183 1    
   120   59   60 am   BACKBONE|DICT|INTERRES
   121   59  184 1    
   122   60   61 2    
   123   60   62 1    
   124   62   63 1    
   125   62   64 1    
   126   62  185 1    
   127   63  186 1    
   128   63  187 1    
   129   63  188 1    
   130   64   65 am   BACKBONE|DICT|INTERRES
   131   64  189 1    
   132   65   66 2    
   133   67   68 2    
   134   67   69 am   BACKBONE|DICT|INTERRES
   135   69   70 1    
   136   69  190 1    
   137   70   71 1    
   138   70   72 1    
   139   70  191 1    
   140   71  192 1    
   141   71  193 1    
   142   71  194 1    
   143   72   73 2    
   144   72   74 am   BACKBONE|DICT|INTERRES
   145   74   75 1    
   146   74  195 1    
   147   75   76 1    
   148   75   77 1    
   149   75  196 1    
   150   76  197 1    
   151   76  198 1    
   152   76  199 1    
   153   77   78 2    
   154   77   79 am   BACKBONE|DICT|INTERRES
   155   79   80 1    
   156   79  200 1    
   157   80   81 1    
   158   80   82 1    
   159   80  201 1    
   160   81  202 1    
   161   81  203 1    
   162   81  204 1    
   163   82   83 2    
   164   82   84 am   BACKBONE|DICT|INTERRES
   165   84   85 1    
   166   84  205 1    
   167   85   86 1    
   168   85   87 1    
   169   85  206 1    
   170   86  207 1    
   171   86  208 1    
   172   86  209 1    
   173   87   88 2    
   174   87   89 am   BACKBONE|DICT|INTERRES
   175   89   90 1    
   176   89  210 1    
   177   90   91 1    
   178   90   92 1    
   179   90  211 1    
   180   91  212 1    
   181   91  213 1    
   182   91  214 1    
   183   92   93 2    
   184   92   94 am   BACKBONE|DICT|INTERRES
   185   94   95 1    
   186   94  215 1    
   187   95   96 1    
   188   95   97 1    
   189   95  216 1    
   190   96  217 1    
   191   96  218 1    
   192   96  219 1    
   193   97   98 2    
   194   97   99 am   BACKBONE|DICT|INTERRES
   195   99  100 1    
   196   99  220 1    
   197  100  101 1    
   198  100  102 1    
   199  100  221 1    
   200  101  222 1    
   201  101  223 1    
   202  101  224 1    
   203  102  103 2    
   204  102  104 am   BACKBONE|DICT|INTERRES
   205  104  105 1    
   206  104  225 1    
   207  105  106 1    
   208  105  107 1    
   209  105  226 1    
   210  106  227 1    
   211  106  228 1    
   212  106  229 1    
   213  107  108 2    
   214  107  109 am   BACKBONE|DICT|INTERRES
   215  109  110 1    
   216  109  230 1    
   217  110  111 1    
   218  110  112 1    
   219  110  231 1    
   220  111  232 1    
   221  111  233 1    
   222  111  234 1    
   223  112  113 2    
   224  112  114 am   BACKBONE|DICT|INTERRES
   225  114  115 1    
   226  114  235 1    
   227  115  116 1    
   228  115  117 1    
   229  115  236 1    
   230  116  237 1    
   231  116  238 1    
   232  116  239 1    
   233  117  118 2    
   234  117  119 am   BACKBONE|DICT|INTERRES
   235  119  120 1    
   236  119  240 1    
   237  120  121 1    
   238  120  124 1    
   239  120  241 1    
   240  121  122 am   BACKBONE|DICT|INTERRES
   241  121  123 2    
   242  122  242 1    
   243  122  243 1    
   244  124  125 1    
   245  124  244 1    
   246  124  245 1    
   247  125  126 1    
   248  126  246 1    
   249  126  247 1    
@<TRIPOS>SUBSTRUCTURE
     1 UNK         1 GROUP             0       ****    0 ROOT    
