@<TRIPOS>MOLECULE
3R540
247   249    1
SMALL
USER_CHARGES


@<TRIPOS>ATOM
      1 CA         -1.8188  -16.9288  -48.7538 C.3       0 UNK        -0.1800 
      2 C          -1.5016  -15.4804  -49.0995 C.2       0 UNK         0.5000 
      3 O          -2.3849  -14.7442  -49.5388 O.2       0 UNK        -0.5000 
      4 N          -0.2410  -15.0737  -48.9139 N.am      1 UNK        -0.5000 
      5 CA          0.2576  -13.7121  -49.1236 C.3       1 UNK         0.1400 
      6 C6          1.8110  -13.6399  -49.1995 C.3       23 UNK        -0.0398 
      7 S7          2.7114  -14.7487  -48.0537 S.3       23 UNK        -0.2404 
      8 C8          3.4660  -15.9583  -49.1967 C.3       23 UNK        -0.0205 
      9 C9          2.4396  -16.9079  -49.8021 C.ar      23 UNK        -0.0193 
     10 C10         1.7852  -16.5704  -50.9918 C.ar      23 UNK        -0.1150 
     11 C11         0.7988  -17.4024  -51.5232 C.ar      23 UNK        -0.0193 
     12 C12         0.5063  -18.6024  -50.8741 C.ar      23 UNK        -0.1150 
     13 C13         1.1859  -18.9919  -49.7192 C.ar      23 UNK        -0.0193 
     14 C14         2.1450  -18.1250  -49.1760 C.ar      23 UNK        -0.1150 
     15 C15         0.8225  -20.3535  -49.1277 C.3       23 UNK        -0.0205 
     16 S16         1.8330  -20.9354  -47.7297 S.3       23 UNK        -0.2404 
     17 C17         1.5212  -22.7332  -47.7657 C.3       23 UNK        -0.0398 
     18 CA          0.2694  -23.2478  -47.0085 C.3       11 UNK         0.1400 
     19 N           0.1954  -22.8368  -45.5983 N.am      11 UNK        -0.5000 
     20 C          -0.5726  -23.4735  -44.6985 C.2       10 UNK         0.5000 
     21 O          -1.2758  -24.4438  -44.9778 O.2       10 UNK        -0.5000 
     22 CA         -0.6055  -22.9331  -43.2594 C.3       10 UNK         0.1400 
     23 CB          0.6743  -23.3076  -42.4973 C.3       10 UNK        -0.1800 
     24 N          -0.8417  -21.4923  -43.1889 N.am      10 UNK        -0.5000 
     25 C          -1.9566  -20.8839  -43.6199 C.2       9 UNK         0.5000 
     26 O          -2.9053  -21.4778  -44.1299 O.2       9 UNK        -0.5000 
     27 CA         -2.0102  -19.3505  -43.5002 C.3       9 UNK         0.1400 
     28 CB         -2.3884  -18.9205  -42.0753 C.3       9 UNK        -0.1800 
     29 N          -0.7495  -18.7215  -43.8811 N.am      9 UNK        -0.5000 
     30 C          -0.2083  -18.7860  -45.1049 C.2       8 UNK         0.5000 
     31 O          -0.7545  -19.3185  -46.0710 O.2       8 UNK        -0.5000 
     32 CA          1.2046  -18.1978  -45.2471 C.3       8 UNK         0.1400 
     33 CB          1.1518  -16.6695  -45.3953 C.3       8 UNK        -0.1800 
     34 N           2.0687  -18.5624  -44.1213 N.am      8 UNK        -0.5000 
     35 C           2.4693  -19.8115  -43.8353 C.2       7 UNK         0.5000 
     36 O           2.1642  -20.8031  -44.4962 O.2       7 UNK        -0.5000 
     37 CA          3.3238  -19.9885  -42.5669 C.3       7 UNK         0.1400 
     38 CB          4.7898  -19.6230  -42.8436 C.3       7 UNK        -0.1800 
     39 N           2.8284  -19.1938  -41.4433 N.am      7 UNK        -0.5000 
     40 C           1.6563  -19.4002  -40.8257 C.2       6 UNK         0.5000 
     41 O           0.8892  -20.3208  -41.1025 O.2       6 UNK        -0.5000 
     42 CA          1.2474  -18.3641  -39.7610 C.3       6 UNK         0.1400 
     43 CB          1.8404  -18.7296  -38.3922 C.3       6 UNK        -0.1800 
     44 N           1.6393  -16.9957  -40.1149 N.am      6 UNK        -0.5000 
     45 C           1.2137  -16.3508  -41.2089 C.2       5 UNK         0.5000 
     46 O           0.4363  -16.8451  -42.0289 O.2       5 UNK        -0.5000 
     47 CA          1.8153  -14.9565  -41.4607 C.3       5 UNK         0.1400 
     48 CB          3.2237  -15.0857  -42.0637 C.3       5 UNK        -0.1800 
     49 N           0.9963  -14.1642  -42.3751 N.am      5 UNK        -0.5000 
     50 C          -0.2193  -13.6758  -42.0979 C.2       4 UNK         0.5000 
     51 O          -0.7653  -13.7871  -40.9979 O.2       4 UNK        -0.5000 
     52 CA         -0.9290  -12.9340  -43.2514 C.3       4 UNK         0.1400 
     53 CB         -2.0713  -12.0179  -42.7655 C.3       4 UNK        -0.1800 
     54 N          -0.0143  -12.1891  -44.1257 N.am      4 UNK        -0.5000 
     55 C           0.8231  -11.1978  -43.7719 C.2       3 UNK         0.5000 
     56 O           0.9873  -10.8102  -42.6146 O.2       3 UNK        -0.5000 
     57 CA          1.6037  -10.5062  -44.9095 C.3       3 UNK         0.1400 
     58 CB          2.9813  -11.1640  -45.0867 C.3       3 UNK        -0.1800 
     59 N           0.8982  -10.5352  -46.1913 N.am      3 UNK        -0.5000 
     60 C          -0.2927   -9.9690  -46.4330 C.2       2 UNK         0.5000 
     61 O          -0.8605   -9.2158  -45.6411 O.2       2 UNK        -0.5000 
     62 CA         -0.9855  -10.3177  -47.7670 C.3       2 UNK         0.1400 
     63 CB         -1.0154   -9.0914  -48.6932 C.3       2 UNK        -0.1800 
     64 N          -0.4062  -11.4469  -48.5062 N.am      2 UNK        -0.5000 
     65 C          -0.3141  -12.7188  -48.0891 C.2       1 UNK         0.5000 
     66 O          -0.6189  -13.0956  -46.9534 O.2       1 UNK        -0.5000 
     67 C          -1.0461  -23.0056  -47.7809 C.2       11 UNK         0.5000 
     68 O          -1.3474  -23.7631  -48.7066 O.2       11 UNK        -0.5000 
     69 N          -1.8276  -21.9957  -47.3712 N.am      12 UNK        -0.5000 
     70 CA         -3.1762  -21.7524  -47.8792 C.3       12 UNK         0.1400 
     71 CB         -3.6419  -20.3444  -47.4828 C.3       12 UNK        -0.1800 
     72 C          -4.1673  -22.8305  -47.4054 C.2       12 UNK         0.5000 
     73 O          -4.8814  -23.3972  -48.2324 O.2       12 UNK        -0.5000 
     74 N          -4.1647  -23.1273  -46.0972 N.am      13 UNK        -0.5000 
     75 CA         -5.0163  -24.1372  -45.4604 C.3       13 UNK         0.1400 
     76 CB         -4.8717  -24.0428  -43.9341 C.3       13 UNK        -0.1800 
     77 C          -4.7305  -25.5721  -45.9400 C.2       13 UNK         0.5000 
     78 O          -5.6665  -26.3543  -46.1084 O.2       13 UNK        -0.5000 
     79 N          -3.4501  -25.8817  -46.1845 N.am      14 UNK        -0.5000 
     80 CA         -2.9848  -27.1503  -46.7507 C.3       14 UNK         0.1400 
     81 CB         -1.4714  -27.2728  -46.5105 C.3       14 UNK        -0.1800 
     82 C          -3.2956  -27.3086  -48.2536 C.2       14 UNK         0.5000 
     83 O          -3.1171  -28.4038  -48.7872 O.2       14 UNK        -0.5000 
     84 N          -3.7189  -26.2173  -48.9105 N.am      15 UNK        -0.5000 
     85 CA         -4.0054  -26.0829  -50.3423 C.3       15 UNK         0.1400 
     86 CB         -5.1507  -27.0179  -50.7816 C.3       15 UNK        -0.1800 
     87 C          -2.7563  -26.2064  -51.2392 C.2       15 UNK         0.5000 
     88 O          -2.8907  -26.3772  -52.4514 O.2       15 UNK        -0.5000 
     89 N          -1.5614  -26.0456  -50.6515 N.am      16 UNK        -0.5000 
     90 CA         -0.2765  -25.9750  -51.3542 C.3       16 UNK         0.1400 
     91 CB          0.8622  -26.0678  -50.3277 C.3       16 UNK        -0.1800 
     92 C          -0.1506  -24.6962  -52.2064 C.2       16 UNK         0.5000 
     93 O           0.5685  -24.6886  -53.2051 O.2       16 UNK        -0.5000 
     94 N          -0.9026  -23.6590  -51.8160 N.am      17 UNK        -0.5000 
     95 CA         -1.1280  -22.4208  -52.5582 C.3       17 UNK         0.1400 
     96 CB         -1.8627  -21.4549  -51.6195 C.3       17 UNK        -0.1800 
     97 C          -1.9516  -22.5997  -53.8538 C.2       17 UNK         0.5000 
     98 O          -2.0065  -21.6684  -54.6557 O.2       17 UNK        -0.5000 
     99 N          -2.6238  -23.7521  -54.0142 N.am      18 UNK        -0.5000 
    100 CA        -3.5718  -24.1400  -55.0719 C.3       18 UNK         0.1400 
    101 CB        -2.9529  -24.0238  -56.4781 C.3       18 UNK        -0.1800 
    102 C         -4.9341  -23.4195  -54.9904 C.2       18 UNK         0.5000 
    103 O         -5.9649  -24.0466  -55.2367 O.2       18 UNK        -0.5000 
    104 N         -4.9235  -22.1418  -54.6063 N.am      19 UNK        -0.5000 
    105 CA        -6.0746  -21.3298  -54.2336 C.3       19 UNK         0.1400 
    106 CB        -6.4680  -20.4250  -55.4102 C.3       19 UNK        -0.1800 
    107 C         -5.6688  -20.5050  -53.0046 C.2       19 UNK         0.5000 
    108 O         -4.4783  -20.2492  -52.8178 O.2       19 UNK        -0.5000 
    109 N         -6.6509  -20.0930  -52.1933 N.am      20 UNK        -0.5000 
    110 CA        -6.4688  -19.4923  -50.8627 C.3       20 UNK         0.1400 
    111 CB        -7.8518  -19.2078  -50.2567 C.3       20 UNK        -0.1800 
    112 C         -5.5822  -18.2296  -50.7880 C.2       20 UNK         0.5000 
    113 O         -5.0558  -17.9365  -49.7149 O.2       20 UNK        -0.5000 
    114 N         -5.4260  -17.5182  -51.9099 N.am      21 UNK        -0.5000 
    115 CA        -4.5400  -16.3635  -52.0564 C.3       21 UNK         0.1400 
    116 CB        -5.3742  -15.0716  -51.9773 C.3       21 UNK        -0.1800 
    117 C         -3.7112  -16.4633  -53.3524 C.2       21 UNK         0.5000 
    118 O         -3.3392  -15.4321  -53.9151 O.2       21 UNK        -0.5000 
    119 N         -3.4395  -17.6973  -53.8050 N.am      22 UNK        -0.5000 
    120 CA        -2.7896  -18.0448  -55.0828 C.3       22 UNK         0.1400 
    121 C         -3.6381  -17.6717  -56.3395 C.2       22 UNK         0.5000 
    122 N         -3.1593  -17.9773  -57.5388 N.am      22 UNK        -0.7600 
    123 O         -4.7468  -17.1476  -56.2542 O.2       22 UNK        -0.5000 
    124 C124       -1.3169  -17.5440  -55.1838 C.3       23 UNK        -0.0398 
    125 S125       -0.2181  -18.3297  -53.9591 S.3       23 UNK        -0.2404 
    126 C126        0.0168  -16.9757  -52.7606 C.3       23 UNK        -0.0205 
    127 H127       -2.6585  -16.9756  -48.0605 H         1 UNK         0.0600 
    128 H128       -2.0901  -17.4808  -49.6537 H         1 UNK         0.0600 
    129 H129       -0.9696  -17.4313  -48.2896 H         1 UNK         0.0600 
    130 H130        0.4466  -15.7224  -48.5578 H         1 UNK         0.3000 
    131 H131       -0.1223  -13.3936  -50.0971 H         1 UNK         0.0600 
    132 H132        2.1690  -12.6234  -49.0269 H         1 UNK         0.0800 
    133 H133        2.1280  -13.8550  -50.2179 H         1 UNK         0.0800 
    134 H134        4.2158  -16.5314  -48.6492 H         1 UNK         0.0800 
    135 H135        4.0079  -15.4325  -49.9843 H         1 UNK         0.0800 
    136 H136        2.0202  -15.6438  -51.4935 H         1 UNK         0.1150 
    137 H137       -0.2577  -19.2454  -51.2797 H         1 UNK         0.1150 
    138 H138        2.6720  -18.3875  -48.2712 H         1 UNK         0.1150 
    139 H139       -0.2168  -20.3092  -48.8030 H         1 UNK         0.0800 
    140 H140        0.8813  -21.0944  -49.9260 H         1 UNK         0.0800 
    141 H141        1.5127  -23.0740  -48.8021 H         1 UNK         0.0800 
    142 H142        2.4015  -23.2027  -47.3250 H         1 UNK         0.0800 
    143 H143        0.3800  -24.3345  -46.9952 H         1 UNK         0.0600 
    144 H144        0.7622  -22.0423  -45.3135 H         1 UNK         0.3000 
    145 H145       -1.4412  -23.4195  -42.7519 H         1 UNK         0.0600 
    146 H146        0.6038  -23.0251  -41.4470 H         1 UNK         0.0600 
    147 H147        0.8468  -24.3840  -42.5315 H         1 UNK         0.0600 
    148 H148        1.5548  -22.8226  -42.9165 H         1 UNK         0.0600 
    149 H149       -0.1225  -20.9374  -42.7373 H         1 UNK         0.3000 
    150 H150       -2.7825  -18.9891  -44.1823 H         1 UNK         0.0600 
    151 H151       -3.3473  -19.3483  -41.7805 H         1 UNK         0.0600 
    152 H152       -2.4774  -17.8364  -42.0016 H         1 UNK         0.0600 
    153 H153       -1.6457  -19.2438  -41.3457 H         1 UNK         0.0600 
    154 H154       -0.2503  -18.2132  -43.1556 H         1 UNK         0.3000 
    155 H155        1.6515  -18.6026  -46.1534 H         1 UNK         0.0600 
    156 H156        2.1524  -16.2476  -45.4861 H         1 UNK         0.0600 
    157 H157        0.6617  -16.1910  -44.5483 H         1 UNK         0.0600 
    158 H158        0.5961  -16.3877  -46.2901 H         1 UNK         0.0600 
    159 H159        2.3152  -17.8208  -43.4849 H         1 UNK         0.3000 
    160 H160        3.2836  -21.0417  -42.2809 H         1 UNK         0.0600 
    161 H161        4.9024  -18.5703  -43.1059 H         1 UNK         0.0600 
    162 H162        5.1882  -20.2119  -43.6710 H         1 UNK         0.0600 
    163 H163        5.4164  -19.8215  -41.9739 H         1 UNK         0.0600 
    164 H164        3.3973  -18.4150  -41.1471 H         1 UNK         0.3000 
    165 H165        0.1587  -18.3881  -39.6792 H         1 UNK         0.0600 
    166 H166        2.9304  -18.6930  -38.4012 H         1 UNK         0.0600 
    167 H167        1.4873  -18.0511  -37.6155 H         1 UNK         0.0600 
    168 H168        1.5481  -19.7385  -38.0978 H         1 UNK         0.0600 
    169 H169        2.2830  -16.5339  -39.4885 H         1 UNK         0.3000 
    170 H170        1.8813  -14.4269  -40.5081 H         1 UNK         0.0600 
    171 H171        3.8891  -15.6404  -41.4010 H         1 UNK         0.0600 
    172 H172        3.2069  -15.6049  -43.0229 H         1 UNK         0.0600 
    173 H173        3.6741  -14.1056  -42.2233 H         1 UNK         0.0600 
    174 H174        1.3575  -14.0316  -43.3072 H         1 UNK         0.3000 
    175 H175       -1.3747  -13.7102  -43.8753 H         1 UNK         0.0600 
    176 H176       -2.5636  -11.5251  -43.6041 H         1 UNK         0.0600 
    177 H177       -2.8330  -12.5886  -42.2332 H         1 UNK         0.0600 
    178 H178       -1.7083  -11.2440  -42.0886 H         1 UNK         0.0600 
    179 H179       -0.0768  -12.4302  -45.1107 H         1 UNK         0.3000 
    180 H180        1.7501   -9.4617  -44.6269 H         1 UNK         0.0600 
    181 H181        3.5768  -10.6384  -45.8333 H         1 UNK         0.0600 
    182 H182        3.5451  -11.1481  -44.1530 H         1 UNK         0.0600 
    183 H183        2.8935  -12.2056  -45.3996 H         1 UNK         0.0600 
    184 H184        1.2880  -11.1302  -46.9060 H         1 UNK         0.3000 
    185 H185       -2.0155  -10.5855  -47.5235 H         1 UNK         0.0600 
    186 H186       -1.5935   -9.2909  -49.5957 H         1 UNK         0.0600 
    187 H187       -1.4775   -8.2358  -48.1987 H         1 UNK         0.0600 
    188 H188       -0.0110   -8.7921  -48.9952 H         1 UNK         0.0600 
    189 H189       -0.1119  -11.2321  -49.4482 H         1 UNK         0.3000 
    190 H190       -1.4982  -21.3853  -46.6326 H         1 UNK         0.3000 
    191 H191       -3.1435  -21.7928  -48.9689 H         1 UNK         0.0600 
    192 H192       -4.6482  -20.1458  -47.8535 H         1 UNK         0.0600 
    193 H193       -2.9857  -19.5834  -47.9050 H         1 UNK         0.0600 
    194 H194       -3.6561  -20.2085  -46.4016 H         1 UNK         0.0600 
    195 H195       -3.5632  -22.5938  -45.4730 H         1 UNK         0.3000 
    196 H196       -6.0517  -23.9053  -45.7178 H         1 UNK         0.0600 
    197 H197       -5.5019  -24.7789  -43.4336 H         1 UNK         0.0600 
    198 H198       -5.1698  -23.0593  -43.5706 H         1 UNK         0.0600 
    199 H199       -3.8430  -24.2189  -43.6172 H         1 UNK         0.0600 
    200 H200       -2.7304  -25.2068  -45.9365 H         1 UNK         0.3000 
    201 H201       -3.4833  -27.9670  -46.2249 H         1 UNK         0.0600 
    202 H202       -1.2352  -27.2212  -45.4476 H         1 UNK         0.0600 
    203 H203       -0.9203  -26.4788  -47.0157 H         1 UNK         0.0600 
    204 H204       -1.0890  -28.2249  -46.8806 H         1 UNK         0.0600 
    205 H205       -3.8420  -25.3672  -48.3741 H         1 UNK         0.3000 
    206 H206       -4.3577  -25.0589  -50.4734 H         1 UNK         0.0600 
    207 H207       -6.0188  -26.9095  -50.1314 H         1 UNK         0.0600 
    208 H208       -5.4764  -26.7860  -51.7963 H         1 UNK         0.0600 
    209 H209       -4.8493  -28.0654  -50.7697 H         1 UNK         0.0600 
    210 H210       -1.5472  -25.8221  -49.6652 H         1 UNK         0.3000 
    211 H211       -0.2061  -26.8316  -52.0276 H         1 UNK         0.0600 
    212 H212        0.8238  -25.2502  -49.6086 H         1 UNK         0.0600 
    213 H213        1.8355  -26.0298  -50.8185 H         1 UNK         0.0600 
    214 H214        0.8146  -27.0042  -49.7714 H         1 UNK         0.0600 
    215 H215       -1.3998  -23.7530  -50.9389 H         1 UNK         0.3000 
    216 H216       -0.1601  -21.9922  -52.8255 H         1 UNK         0.0600 
    217 H217       -1.9774  -20.4742  -52.0818 H         1 UNK         0.0600 
    218 H218       -1.3293  -21.3186  -50.6821 H         1 UNK         0.0600 
    219 H219       -2.8611  -21.8205  -51.3767 H         1 UNK         0.0600 
    220 H220       -2.5142  -24.4551  -53.2934 H         1 UNK         0.3000 
    221 H221       -3.7743  -25.1979  -54.8974 H         1 UNK         0.0600 
    222 H222       -2.7811  -22.9870  -56.7674 H         1 UNK         0.0600 
    223 H223       -2.0012  -24.5522  -56.5352 H         1 UNK         0.0600 
    224 H224       -3.6139  -24.4613  -57.2271 H         1 UNK         0.0600 
    225 H225       -4.0246  -21.7120  -54.4058 H         1 UNK         0.3000 
    226 H226       -6.9162  -21.9697  -53.9606 H         1 UNK         0.0600 
    227 H227       -7.3123  -19.7851  -55.1511 H         1 UNK         0.0600 
    228 H228       -5.6437  -19.7789  -55.7106 H         1 UNK         0.0600 
    229 H229       -6.7609  -21.0157  -56.2783 H         1 UNK         0.0600 
    230 H230       -7.6038  -20.3139  -52.4445 H         1 UNK         0.3000 
    231 H231       -5.9803  -20.2472  -50.2428 H         1 UNK         0.0600 
    232 H232       -7.7626  -18.7910  -49.2524 H         1 UNK         0.0600 
    233 H233       -8.4436  -20.1196  -50.1748 H         1 UNK         0.0600 
    234 H234       -8.4136  -18.4934  -50.8597 H         1 UNK         0.0600 
    235 H235       -5.8887  -17.8353  -52.7499 H         1 UNK         0.3000 
    236 H236       -3.8123  -16.3482  -51.2435 H         1 UNK         0.0600 
    237 H237       -6.0859  -15.0036  -52.8007 H         1 UNK         0.0600 
    238 H238       -5.9339  -15.0225  -51.0432 H         1 UNK         0.0600 
    239 H239       -4.7356  -14.1883  -52.0152 H         1 UNK         0.0600 
    240 H240       -3.7768  -18.4949  -53.2738 H         1 UNK         0.3000 
    241 H241       -2.7686  -19.1346  -55.0877 H         1 UNK         0.0600 
    242 H242       -3.7107  -17.7520  -58.3523 H         1 UNK         0.3800 
    243 H243       -2.2757  -18.4472  -57.6586 H         1 UNK         0.3800 
    244 H244       -1.2608  -16.4584  -55.1001 H         1 UNK         0.0800 
    245 H245       -0.8918  -17.7825  -56.1589 H         1 UNK         0.0800 
    246 H246        0.5173  -16.1471  -53.2637 H         1 UNK         0.0800 
    247 H247       -0.9546  -16.6045  -52.4351 H         1 UNK         0.0800 
@<TRIPOS>BOND
     1    1    2 1    
     2    1  127 1    
     3    1  128 1    
     4    1  129 1    
     5    2    3 2    
     6    2    4 am   BACKBONE|DICT|INTERRES
     7    4    5 1    
     8    4  130 1    
     9    5    6 1    
    10    5   65 1    
    11    5  131 1    
    12    6    7 1    
    13    6  132 1    
    14    6  133 1    
    15    7    8 1    
    16    8    9 1    
    17    8  134 1    
    18    8  135 1    
    19    9   10 ar   
    20    9   14 ar   
    21   10   11 ar   
    22   10  136 1    
    23   11   12 ar   
    24   11  126 1    
    25   12   13 ar   
    26   12  137 1    
    27   13   14 ar   
    28   13   15 1    
    29   14  138 1    
    30   15   16 1    
    31   15  139 1    
    32   15  140 1    
    33   16   17 1    
    34   17   18 1    
    35   17  141 1    
    36   17  142 1    
    37   18   19 1    
    38   18   67 1    
    39   18  143 1    
    40   19   20 am   BACKBONE|DICT|INTERRES
    41   19  144 1    
    42   20   21 2    
    43   20   22 1    
    44   22   23 1    
    45   22   24 1    
    46   22  145 1    
    47   23  146 1    
    48   23  147 1    
    49   23  148 1    
    50   24   25 am   BACKBONE|DICT|INTERRES
    51   24  149 1    
    52   25   26 2    
    53   25   27 1    
    54   27   28 1    
    55   27   29 1    
    56   27  150 1    
    57   28  151 1    
    58   28  152 1    
    59   28  153 1    
    60   29   30 am   BACKBONE|DICT|INTERRES
    61   29  154 1    
    62   30   31 2    
    63   30   32 1    
    64   32   33 1    
    65   32   34 1    
    66   32  155 1    
    67   33  156 1    
    68   33  157 1    
    69   33  158 1    
    70   34   35 am   BACKBONE|DICT|INTERRES
    71   34  159 1    
    72   35   36 2    
    73   35   37 1    
    74   37   38 1    
    75   37   39 1    
    76   37  160 1    
    77   38  161 1    
    78   38  162 1    
    79   38  163 1    
    80   39   40 am   BACKBONE|DICT|INTERRES
    81   39  164 1    
    82   40   41 2    
    83   40   42 1    
    84   42   43 1    
    85   42   44 1    
    86   42  165 1    
    87   43  166 1    
    88   43  167 1    
    89   43  168 1    
    90   44   45 am   BACKBONE|DICT|INTERRES
    91   44  169 1    
    92   45   46 2    
    93   45   47 1    
    94   47   48 1    
    95   47   49 1    
    96   47  170 1    
    97   48  171 1    
    98   48  172 1    
    99   48  173 1    
   100   49   50 am   BACKBONE|DICT|INTERRES
   101   49  174 1    
   102   50   51 2    
   103   50   52 1    
   104   52   53 1    
   105   52   54 1    
   106   52  175 1    
   107   53  176 1    
   108   53  177 1    
   109   53  178 1    
   110   54   55 am   BACKBONE|DICT|INTERRES
   111   54  179 1    
   112   55   56 2    
   113   55   57 1    
   114   57   58 1    
   115   57   59 1    
   116   57  180 1    
   117   58  181 1    
   118   58  182 1    
   119   58  183 1    
   120   59   60 am   BACKBONE|DICT|INTERRES
   121   59  184 1    
   122   60   61 2    
   123   60   62 1    
   124   62   63 1    
   125   62   64 1    
   126   62  185 1    
   127   63  186 1    
   128   63  187 1    
   129   63  188 1    
   130   64   65 am   BACKBONE|DICT|INTERRES
   131   64  189 1    
   132   65   66 2    
   133   67   68 2    
   134   67   69 am   BACKBONE|DICT|INTERRES
   135   69   70 1    
   136   69  190 1    
   137   70   71 1    
   138   70   72 1    
   139   70  191 1    
   140   71  192 1    
   141   71  193 1    
   142   71  194 1    
   143   72   73 2    
   144   72   74 am   BACKBONE|DICT|INTERRES
   145   74   75 1    
   146   74  195 1    
   147   75   76 1    
   148   75   77 1    
   149   75  196 1    
   150   76  197 1    
   151   76  198 1    
   152   76  199 1    
   153   77   78 2    
   154   77   79 am   BACKBONE|DICT|INTERRES
   155   79   80 1    
   156   79  200 1    
   157   80   81 1    
   158   80   82 1    
   159   80  201 1    
   160   81  202 1    
   161   81  203 1    
   162   81  204 1    
   163   82   83 2    
   164   82   84 am   BACKBONE|DICT|INTERRES
   165   84   85 1    
   166   84  205 1    
   167   85   86 1    
   168   85   87 1    
   169   85  206 1    
   170   86  207 1    
   171   86  208 1    
   172   86  209 1    
   173   87   88 2    
   174   87   89 am   BACKBONE|DICT|INTERRES
   175   89   90 1    
   176   89  210 1    
   177   90   91 1    
   178   90   92 1    
   179   90  211 1    
   180   91  212 1    
   181   91  213 1    
   182   91  214 1    
   183   92   93 2    
   184   92   94 am   BACKBONE|DICT|INTERRES
   185   94   95 1    
   186   94  215 1    
   187   95   96 1    
   188   95   97 1    
   189   95  216 1    
   190   96  217 1    
   191   96  218 1    
   192   96  219 1    
   193   97   98 2    
   194   97   99 am   BACKBONE|DICT|INTERRES
   195   99  100 1    
   196   99  220 1    
   197  100  101 1    
   198  100  102 1    
   199  100  221 1    
   200  101  222 1    
   201  101  223 1    
   202  101  224 1    
   203  102  103 2    
   204  102  104 am   BACKBONE|DICT|INTERRES
   205  104  105 1    
   206  104  225 1    
   207  105  106 1    
   208  105  107 1    
   209  105  226 1    
   210  106  227 1    
   211  106  228 1    
   212  106  229 1    
   213  107  108 2    
   214  107  109 am   BACKBONE|DICT|INTERRES
   215  109  110 1    
   216  109  230 1    
   217  110  111 1    
   218  110  112 1    
   219  110  231 1    
   220  111  232 1    
   221  111  233 1    
   222  111  234 1    
   223  112  113 2    
   224  112  114 am   BACKBONE|DICT|INTERRES
   225  114  115 1    
   226  114  235 1    
   227  115  116 1    
   228  115  117 1    
   229  115  236 1    
   230  116  237 1    
   231  116  238 1    
   232  116  239 1    
   233  117  118 2    
   234  117  119 am   BACKBONE|DICT|INTERRES
   235  119  120 1    
   236  119  240 1    
   237  120  121 1    
   238  120  124 1    
   239  120  241 1    
   240  121  122 am   BACKBONE|DICT|INTERRES
   241  121  123 2    
   242  122  242 1    
   243  122  243 1    
   244  124  125 1    
   245  124  244 1    
   246  124  245 1    
   247  125  126 1    
   248  126  246 1    
   249  126  247 1    
@<TRIPOS>SUBSTRUCTURE
     1 UNK         1 GROUP             0       ****    0 ROOT    
