@<TRIPOS>MOLECULE
3R540
247   249    1
SMALL
USER_CHARGES


@<TRIPOS>ATOM
      1 CA         -3.6267  -12.3355  -48.8981 C.3       0 UNK        -0.1800 
      2 C          -3.3519  -12.6707  -47.4393 C.2       0 UNK         0.5000 
      3 O          -3.8571  -11.9880  -46.5488 O.2       0 UNK        -0.5000 
      4 N          -2.5426  -13.7120  -47.1965 N.am      1 UNK        -0.5000 
      5 CA         -2.1117  -14.1816  -45.8695 C.3       1 UNK         0.1400 
      6 C6         -3.2965  -14.6092  -44.9598 C.3       23 UNK        -0.0398 
      7 S7         -2.8694  -15.9661  -43.8170 S.3       23 UNK        -0.2404 
      8 C8         -4.4831  -16.2789  -43.0352 C.3       23 UNK        -0.0205 
      9 C9         -5.1335  -17.5540  -43.5524 C.ar      23 UNK        -0.0193 
     10 C10        -5.6007  -17.6305  -44.8680 C.ar      23 UNK        -0.1150 
     11 C11        -6.2108  -18.7958  -45.3388 C.ar      23 UNK        -0.0193 
     12 C12        -6.3772  -19.8824  -44.4776 C.ar      23 UNK        -0.1150 
     13 C13        -5.9141  -19.8203  -43.1602 C.ar      23 UNK        -0.0193 
     14 C14        -5.2893  -18.6558  -42.7053 C.ar      23 UNK        -0.1150 
     15 C15        -6.0968  -21.0065  -42.2248 C.3       23 UNK        -0.0205 
     16 S16        -4.5947  -22.0305  -42.1168 S.3       23 UNK        -0.2404 
     17 C17        -4.4589  -22.6736  -43.8213 C.3       23 UNK        -0.0398 
     18 CA         -3.3357  -21.9623  -44.6374 C.3       11 UNK         0.1400 
     19 N          -2.0200  -22.0920  -43.9964 N.am      11 UNK        -0.5000 
     20 C          -1.3715  -23.2405  -43.7678 C.2       10 UNK         0.5000 
     21 O          -1.6959  -24.3181  -44.2733 O.2       10 UNK        -0.5000 
     22 CA         -0.1848  -23.1683  -42.7901 C.3       10 UNK         0.1400 
     23 CB          0.4808  -24.5439  -42.5493 C.3       10 UNK        -0.1800 
     24 N           0.7945  -22.1608  -43.2061 N.am      10 UNK        -0.5000 
     25 C           1.7674  -21.6807  -42.4178 C.2       9 UNK         0.5000 
     26 O           1.9166  -22.0036  -41.2384 O.2       9 UNK        -0.5000 
     27 CA          2.7364  -20.6610  -43.0407 C.3       9 UNK         0.1400 
     28 CB          3.6751  -21.3284  -44.0575 C.3       9 UNK        -0.1800 
     29 N           2.0314  -19.5425  -43.6642 N.am      9 UNK        -0.5000 
     30 C           1.4767  -18.5351  -42.9711 C.2       8 UNK         0.5000 
     31 O           1.5250  -18.4518  -41.7430 O.2       8 UNK        -0.5000 
     32 CA          0.7577  -17.4211  -43.7590 C.3       8 UNK         0.1400 
     33 CB          1.6276  -16.1574  -43.8311 C.3       8 UNK        -0.1800 
     34 N           0.3721  -17.8068  -45.1147 N.am      8 UNK        -0.5000 
     35 C          -0.5774  -18.7074  -45.4041 C.2       7 UNK         0.5000 
     36 O          -1.2368  -19.2996  -44.5500 O.2       7 UNK        -0.5000 
     37 CA         -0.8022  -19.0245  -46.8958 C.3       7 UNK         0.1400 
     38 CB         -1.8961  -18.1042  -47.4545 C.3       7 UNK        -0.1800 
     39 N           0.3974  -18.9013  -47.7312 N.am      7 UNK        -0.5000 
     40 C           1.5706  -19.5169  -47.5134 C.2       6 UNK         0.5000 
     41 O           1.7580  -20.3157  -46.5966 O.2       6 UNK        -0.5000 
     42 CA          2.7550  -19.1220  -48.4181 C.3       6 UNK         0.1400 
     43 CB          3.0182  -20.1790  -49.4959 C.3       6 UNK        -0.1800 
     44 N           2.5839  -17.8122  -49.0516 N.am      6 UNK        -0.5000 
     45 C           2.6597  -16.6532  -48.3867 C.2       5 UNK         0.5000 
     46 O           2.8724  -16.5785  -47.1746 O.2       5 UNK        -0.5000 
     47 CA          2.4003  -15.3800  -49.2038 C.3       5 UNK         0.1400 
     48 CB          0.9146  -14.9932  -49.1201 C.3       5 UNK        -0.1800 
     49 N           3.2154  -14.2821  -48.6899 N.am      5 UNK        -0.5000 
     50 C           4.4262  -13.9500  -49.1599 C.2       4 UNK         0.5000 
     51 O           4.9574  -14.5128  -50.1185 O.2       4 UNK        -0.5000 
     52 CA          5.1764  -12.7892  -48.4719 C.3       4 UNK         0.1400 
     53 CB          5.0493  -11.5040  -49.3049 C.3       4 UNK        -0.1800 
     54 N           4.7073  -12.5128  -47.1150 N.am      4 UNK        -0.5000 
     55 C           4.9932  -13.2542  -46.0363 C.2       3 UNK         0.5000 
     56 O           5.7756  -14.2050  -46.0510 O.2       3 UNK        -0.5000 
     57 CA          4.2783  -12.8778  -44.7186 C.3       3 UNK         0.1400 
     58 CB          5.2263  -12.0918  -43.7997 C.3       3 UNK        -0.1800 
     59 N           3.0334  -12.1123  -44.8829 N.am      3 UNK        -0.5000 
     60 C           1.9588  -12.5394  -45.5579 C.2       2 UNK         0.5000 
     61 O           1.9331  -13.6001  -46.1831 O.2       2 UNK        -0.5000 
     62 CA          0.7335  -11.6088  -45.5949 C.3       2 UNK         0.1400 
     63 CB          0.9491  -10.4794  -46.6147 C.3       2 UNK        -0.1800 
     64 N          -0.4530  -12.3676  -45.9852 N.am      2 UNK        -0.5000 
     65 C          -1.1154  -13.2124  -45.1829 C.2       1 UNK         0.5000 
     66 O          -0.9325  -13.2618  -43.9656 O.2       1 UNK        -0.5000 
     67 C          -3.3165  -22.3566  -46.1354 C.2       11 UNK         0.5000 
     68 O          -2.2596  -22.3258  -46.7705 O.2       11 UNK        -0.5000 
     69 N          -4.4871  -22.7112  -46.6891 N.am      12 UNK        -0.5000 
     70 CA         -4.7002  -23.0473  -48.0998 C.3       12 UNK         0.1400 
     71 CB         -6.1962  -23.2940  -48.3390 C.3       12 UNK        -0.1800 
     72 C          -3.8685  -24.2423  -48.6081 C.2       12 UNK         0.5000 
     73 O          -3.5696  -24.3040  -49.8022 O.2       12 UNK        -0.5000 
     74 N          -3.4951  -25.1502  -47.6950 N.am      13 UNK        -0.5000 
     75 CA         -2.6008  -26.2773  -47.9502 C.3       13 UNK         0.1400 
     76 CB         -2.6142  -27.2266  -46.7423 C.3       13 UNK        -0.1800 
     77 C          -1.1707  -25.8104  -48.2707 C.2       13 UNK         0.5000 
     78 O          -0.6173  -26.2128  -49.2950 O.2       13 UNK        -0.5000 
     79 N          -0.6199  -24.9255  -47.4250 N.am      14 UNK        -0.5000 
     80 CA          0.6851  -24.2911  -47.6375 C.3       14 UNK         0.1400 
     81 CB          1.1187  -23.5442  -46.3748 C.3       14 UNK        -0.1800 
     82 C           0.6877  -23.3382  -48.8428 C.2       14 UNK         0.5000 
     83 O           1.7005  -23.2367  -49.5330 O.2       14 UNK        -0.5000 
     84 N          -0.4696  -22.7216  -49.1176 N.am      15 UNK        -0.5000 
     85 CA         -0.7427  -21.9192  -50.3094 C.3       15 UNK         0.1400 
     86 CB         -2.0444  -21.1352  -50.1023 C.3       15 UNK        -0.1800 
     87 C          -0.8092  -22.7300  -51.6242 C.2       15 UNK         0.5000 
     88 O          -1.0962  -22.1348  -52.6619 O.2       15 UNK        -0.5000 
     89 N          -0.5679  -24.0494  -51.5731 N.am      16 UNK        -0.5000 
     90 CA         -0.5366  -24.9971  -52.6896 C.3       16 UNK         0.1400 
     91 CB          0.5849  -24.6417  -53.6890 C.3       16 UNK        -0.1800 
     92 C          -1.9195  -25.1533  -53.3462 C.2       16 UNK         0.5000 
     93 O          -2.0574  -24.9875  -54.5591 O.2       16 UNK        -0.5000 
     94 N          -2.9180  -25.4552  -52.5037 N.am      17 UNK        -0.5000 
     95 CA         -4.3439  -25.5691  -52.8235 C.3       17 UNK         0.1400 
     96 CB         -4.6136  -26.7060  -53.8323 C.3       17 UNK        -0.1800 
     97 C          -4.9340  -24.2100  -53.2456 C.2       17 UNK         0.5000 
     98 O          -5.6303  -24.1165  -54.2580 O.2       17 UNK        -0.5000 
     99 N          -4.6304  -23.1862  -52.4347 N.am      18 UNK        -0.5000 
    100 CA        -5.0652  -21.7929  -52.5656 C.3       18 UNK         0.1400 
    101 CB        -6.5833  -21.6768  -52.3118 C.3       18 UNK        -0.1800 
    102 C         -4.6156  -21.1233  -53.8834 C.2       18 UNK         0.5000 
    103 O         -5.4244  -20.4875  -54.5633 O.2       18 UNK        -0.5000 
    104 N         -3.3307  -21.2835  -54.2236 N.am      19 UNK        -0.5000 
    105 CA        -2.6840  -20.6174  -55.3516 C.3       19 UNK         0.1400 
    106 CB        -1.7556  -21.6120  -56.0675 C.3       19 UNK        -0.1800 
    107 C         -1.9065  -19.3827  -54.8653 C.2       19 UNK         0.5000 
    108 O         -2.1194  -18.2822  -55.3769 O.2       19 UNK        -0.5000 
    109 N         -1.0309  -19.5781  -53.8712 N.am      20 UNK        -0.5000 
    110 CA        -0.2077  -18.5434  -53.2462 C.3       20 UNK         0.1400 
    111 CB         1.1233  -19.1713  -52.7999 C.3       20 UNK        -0.1800 
    112 C         -0.9799  -17.8760  -52.0930 C.2       20 UNK         0.5000 
    113 O         -0.6513  -18.0842  -50.9222 O.2       20 UNK        -0.5000 
    114 N         -2.0078  -17.1091  -52.4808 N.am      21 UNK        -0.5000 
    115 CA        -3.0768  -16.5236  -51.6648 C.3       21 UNK         0.1400 
    116 CB        -2.5354  -15.7023  -50.4754 C.3       21 UNK        -0.1800 
    117 C         -4.1417  -17.5684  -51.2695 C.2       21 UNK         0.5000 
    118 O         -4.1152  -18.6917  -51.7735 O.2       21 UNK        -0.5000 
    119 N         -5.1002  -17.1492  -50.4324 N.am      22 UNK        -0.5000 
    120 CA        -6.3734  -17.8381  -50.1432 C.3       22 UNK         0.1400 
    121 C         -7.3579  -17.8376  -51.3557 C.2       22 UNK         0.5000 
    122 N         -8.5259  -18.4551  -51.2290 N.am      22 UNK        -0.7600 
    123 O         -7.1066  -17.2422  -52.4015 O.2       22 UNK        -0.5000 
    124 C124       -6.2056  -19.2478  -49.4989 C.3       23 UNK        -0.0398 
    125 S125       -5.3154  -19.2085  -47.9124 S.3       23 UNK        -0.2404 
    126 C126       -6.6949  -18.8761  -46.7755 C.3       23 UNK        -0.0205 
    127 H127       -2.8602  -12.7445  -49.5565 H         1 UNK         0.0600 
    128 H128       -3.6451  -11.2548  -49.0400 H         1 UNK         0.0600 
    129 H129       -4.5941  -12.7363  -49.2005 H         1 UNK         0.0600 
    130 H130       -2.1652  -14.2280  -47.9779 H         1 UNK         0.3000 
    131 H131       -1.5235  -15.0756  -46.0818 H         1 UNK         0.0600 
    132 H132       -4.1242  -14.9568  -45.5774 H         1 UNK         0.0800 
    133 H133       -3.6833  -13.7611  -44.3922 H         1 UNK         0.0800 
    134 H134       -5.1571  -15.4362  -43.1954 H         1 UNK         0.0800 
    135 H135       -4.3320  -16.3406  -41.9565 H         1 UNK         0.0800 
    136 H136       -5.4832  -16.7878  -45.5328 H         1 UNK         0.1150 
    137 H137       -6.8664  -20.7767  -44.8360 H         1 UNK         0.1150 
    138 H138       -4.9300  -18.6081  -41.6868 H         1 UNK         0.1150 
    139 H139       -6.3488  -20.6464  -41.2263 H         1 UNK         0.0800 
    140 H140       -6.9385  -21.6233  -42.5439 H         1 UNK         0.0800 
    141 H141       -5.4348  -22.5735  -44.2933 H         1 UNK         0.0800 
    142 H142       -4.2725  -23.7470  -43.7645 H         1 UNK         0.0800 
    143 H143       -3.5544  -20.8935  -44.6365 H         1 UNK         0.0600 
    144 H144       -1.6365  -21.2222  -43.6465 H         1 UNK         0.3000 
    145 H145       -0.6118  -22.8424  -41.8393 H         1 UNK         0.0600 
    146 H146        1.2088  -24.5048  -41.7397 H         1 UNK         0.0600 
    147 H147       -0.2603  -25.2918  -42.2644 H         1 UNK         0.0600 
    148 H148        0.9928  -24.9146  -43.4350 H         1 UNK         0.0600 
    149 H149        0.7174  -21.8223  -44.1556 H         1 UNK         0.3000 
    150 H150        3.3625  -20.2657  -42.2375 H         1 UNK         0.0600 
    151 H151        4.2541  -22.1240  -43.5870 H         1 UNK         0.0600 
    152 H152        4.3835  -20.6104  -44.4709 H         1 UNK         0.0600 
    153 H153        3.1279  -21.7724  -44.8871 H         1 UNK         0.0600 
    154 H154        1.9280  -19.5718  -44.6726 H         1 UNK         0.3000 
    155 H155       -0.1509  -17.1743  -43.2067 H         1 UNK         0.0600 
    156 H156        2.5369  -16.3241  -44.4098 H         1 UNK         0.0600 
    157 H157        1.9254  -15.8257  -42.8358 H         1 UNK         0.0600 
    158 H158        1.0815  -15.3361  -44.2936 H         1 UNK         0.0600 
    159 H159        0.9017  -17.3922  -45.8698 H         1 UNK         0.3000 
    160 H160       -1.1421  -20.0569  -46.9620 H         1 UNK         0.0600 
    161 H161       -2.1943  -18.4030  -48.4592 H         1 UNK         0.0600 
    162 H162       -1.5617  -17.0679  -47.4952 H         1 UNK         0.0600 
    163 H163       -2.7881  -18.1327  -46.8273 H         1 UNK         0.0600 
    164 H164        0.3214  -18.2940  -48.5356 H         1 UNK         0.3000 
    165 H165        3.6410  -19.0748  -47.7809 H         1 UNK         0.0600 
    166 H166        3.8735  -19.9101  -50.1157 H         1 UNK         0.0600 
    167 H167        3.2417  -21.1438  -49.0402 H         1 UNK         0.0600 
    168 H168        2.1583  -20.3122  -50.1487 H         1 UNK         0.0600 
    169 H169        2.3775  -17.8081  -50.0397 H         1 UNK         0.3000 
    170 H170        2.6451  -15.5691  -50.2512 H         1 UNK         0.0600 
    171 H171        0.2909  -15.7761  -49.5513 H         1 UNK         0.0600 
    172 H172        0.5887  -14.8471  -48.0900 H         1 UNK         0.0600 
    173 H173        0.7128  -14.0745  -49.6709 H         1 UNK         0.0600 
    174 H174        2.8847  -13.8686  -47.8224 H         1 UNK         0.3000 
    175 H175        6.2329  -13.0619  -48.4263 H         1 UNK         0.0600 
    176 H176        4.0122  -11.1742  -49.3800 H         1 UNK         0.0600 
    177 H177        5.6303  -10.6913  -48.8684 H         1 UNK         0.0600 
    178 H178        5.4192  -11.6572  -50.3196 H         1 UNK         0.0600 
    179 H179        4.0601  -11.7467  -47.0062 H         1 UNK         0.3000 
    180 H180        4.0197  -13.8147  -44.2206 H         1 UNK         0.0600 
    181 H181        5.4947  -11.1267  -44.2312 H         1 UNK         0.0600 
    182 H182        6.1517  -12.6431  -43.6273 H         1 UNK         0.0600 
    183 H183        4.7726  -11.9111  -42.8250 H         1 UNK         0.0600 
    184 H184        2.9935  -11.2192  -44.4130 H         1 UNK         0.3000 
    185 H185        0.5814  -11.1769  -44.6036 H         1 UNK         0.0600 
    186 H186        0.0792   -9.8241  -46.6653 H         1 UNK         0.0600 
    187 H187        1.8039   -9.8597  -46.3414 H         1 UNK         0.0600 
    188 H188        1.1331  -10.8695  -47.6168 H         1 UNK         0.0600 
    189 H189       -0.6489  -12.4090  -46.9735 H         1 UNK         0.3000 
    190 H190       -5.3166  -22.7070  -46.1162 H         1 UNK         0.3000 
    191 H191       -4.4170  -22.1706  -48.6801 H         1 UNK         0.0600 
    192 H192       -6.3897  -23.5417  -49.3835 H         1 UNK         0.0600 
    193 H193       -6.7843  -22.4067  -48.1032 H         1 UNK         0.0600 
    194 H194       -6.5704  -24.1193  -47.7321 H         1 UNK         0.0600 
    195 H195       -3.7799  -25.0067  -46.7377 H         1 UNK         0.3000 
    196 H196       -2.9792  -26.8226  -48.8175 H         1 UNK         0.0600 
    197 H197       -1.9546  -28.0792  -46.9089 H         1 UNK         0.0600 
    198 H198       -3.6146  -27.6208  -46.5630 H         1 UNK         0.0600 
    199 H199       -2.2827  -26.7279  -45.8303 H         1 UNK         0.0600 
    200 H200       -1.1529  -24.6107  -46.6237 H         1 UNK         0.3000 
    201 H201        1.4158  -25.0784  -47.8343 H         1 UNK         0.0600 
    202 H202        0.4219  -22.7443  -46.1238 H         1 UNK         0.0600 
    203 H203        2.1014  -23.0938  -46.5155 H         1 UNK         0.0600 
    204 H204        1.1909  -24.2218  -45.5280 H         1 UNK         0.0600 
    205 H205       -1.2264  -22.8150  -48.4476 H         1 UNK         0.3000 
    206 H206        0.0659  -21.1969  -50.4061 H         1 UNK         0.0600 
    207 H207       -2.0864  -20.6652  -49.1213 H         1 UNK         0.0600 
    208 H208       -2.1463  -20.3467  -50.8470 H         1 UNK         0.0600 
    209 H209       -2.9107  -21.7807  -50.2077 H         1 UNK         0.0600 
    210 H210       -0.3876  -24.4578  -50.6649 H         1 UNK         0.3000 
    211 H211       -0.2905  -25.9683  -52.2579 H         1 UNK         0.0600 
    212 H212        1.5484  -24.5613  -53.1859 H         1 UNK         0.0600 
    213 H213        0.3953  -23.6984  -54.2011 H         1 UNK         0.0600 
    214 H214        0.6811  -25.4126  -54.4543 H         1 UNK         0.0600 
    215 H215       -2.7034  -25.4874  -51.5144 H         1 UNK         0.3000 
    216 H216       -4.8425  -25.8398  -51.8915 H         1 UNK         0.0600 
    217 H217       -5.6850  -26.8707  -53.9518 H         1 UNK         0.0600 
    218 H218       -4.1768  -27.6454  -53.4936 H         1 UNK         0.0600 
    219 H219       -4.2088  -26.4838  -54.8199 H         1 UNK         0.0600 
    220 H220       -4.0597  -23.4001  -51.6243 H         1 UNK         0.3000 
    221 H221       -4.5611  -21.2489  -51.7692 H         1 UNK         0.0600 
    222 H222       -7.1640  -22.2056  -53.0677 H         1 UNK         0.0600 
    223 H223       -6.8539  -22.0798  -51.3364 H         1 UNK         0.0600 
    224 H224       -6.9015  -20.6349  -52.3309 H         1 UNK         0.0600 
    225 H225       -2.7129  -21.8013  -53.6056 H         1 UNK         0.3000 
    226 H226       -3.4292  -20.2818  -56.0757 H         1 UNK         0.0600 
    227 H227       -1.2602  -21.1415  -56.9175 H         1 UNK         0.0600 
    228 H228       -0.9793  -21.9965  -55.4055 H         1 UNK         0.0600 
    229 H229       -2.3164  -22.4662  -56.4475 H         1 UNK         0.0600 
    230 H230       -0.9659  -20.5092  -53.4655 H         1 UNK         0.3000 
    231 H231        0.0279  -17.7674  -53.9777 H         1 UNK         0.0600 
    232 H232        1.6938  -19.5266  -53.6580 H         1 UNK         0.0600 
    233 H233        0.9640  -20.0197  -52.1380 H         1 UNK         0.0600 
    234 H234        1.7454  -18.4469  -52.2735 H         1 UNK         0.0600 
    235 H235       -2.1898  -17.0911  -53.4770 H         1 UNK         0.3000 
    236 H236       -3.5877  -15.8247  -52.3286 H         1 UNK         0.0600 
    237 H237       -1.7665  -15.0017  -50.8005 H         1 UNK         0.0600 
    238 H238       -3.3270  -15.1165  -50.0098 H         1 UNK         0.0600 
    239 H239       -2.1084  -16.3388  -49.7039 H         1 UNK         0.0600 
    240 H240       -5.0440  -16.2041  -50.0851 H         1 UNK         0.3000 
    241 H241       -6.8637  -17.2018  -49.4062 H         1 UNK         0.0600 
    242 H242       -8.8047  -18.9138  -50.3767 H         1 UNK         0.3800 
    243 H243       -9.1673  -18.4353  -52.0067 H         1 UNK         0.3800 
    244 H244       -7.1699  -19.7256  -49.3250 H         1 UNK         0.0800 
    245 H245       -5.6677  -19.9177  -50.1664 H         1 UNK         0.0800 
    246 H246       -7.1791  -17.9379  -47.0496 H         1 UNK         0.0800 
    247 H247       -7.4492  -19.6577  -46.8789 H         1 UNK         0.0800 
@<TRIPOS>BOND
     1    1    2 1    
     2    1  127 1    
     3    1  128 1    
     4    1  129 1    
     5    2    3 2    
     6    2    4 am   BACKBONE|DICT|INTERRES
     7    4    5 1    
     8    4  130 1    
     9    5    6 1    
    10    5   65 1    
    11    5  131 1    
    12    6    7 1    
    13    6  132 1    
    14    6  133 1    
    15    7    8 1    
    16    8    9 1    
    17    8  134 1    
    18    8  135 1    
    19    9   10 ar   
    20    9   14 ar   
    21   10   11 ar   
    22   10  136 1    
    23   11   12 ar   
    24   11  126 1    
    25   12   13 ar   
    26   12  137 1    
    27   13   14 ar   
    28   13   15 1    
    29   14  138 1    
    30   15   16 1    
    31   15  139 1    
    32   15  140 1    
    33   16   17 1    
    34   17   18 1    
    35   17  141 1    
    36   17  142 1    
    37   18   19 1    
    38   18   67 1    
    39   18  143 1    
    40   19   20 am   BACKBONE|DICT|INTERRES
    41   19  144 1    
    42   20   21 2    
    43   20   22 1    
    44   22   23 1    
    45   22   24 1    
    46   22  145 1    
    47   23  146 1    
    48   23  147 1    
    49   23  148 1    
    50   24   25 am   BACKBONE|DICT|INTERRES
    51   24  149 1    
    52   25   26 2    
    53   25   27 1    
    54   27   28 1    
    55   27   29 1    
    56   27  150 1    
    57   28  151 1    
    58   28  152 1    
    59   28  153 1    
    60   29   30 am   BACKBONE|DICT|INTERRES
    61   29  154 1    
    62   30   31 2    
    63   30   32 1    
    64   32   33 1    
    65   32   34 1    
    66   32  155 1    
    67   33  156 1    
    68   33  157 1    
    69   33  158 1    
    70   34   35 am   BACKBONE|DICT|INTERRES
    71   34  159 1    
    72   35   36 2    
    73   35   37 1    
    74   37   38 1    
    75   37   39 1    
    76   37  160 1    
    77   38  161 1    
    78   38  162 1    
    79   38  163 1    
    80   39   40 am   BACKBONE|DICT|INTERRES
    81   39  164 1    
    82   40   41 2    
    83   40   42 1    
    84   42   43 1    
    85   42   44 1    
    86   42  165 1    
    87   43  166 1    
    88   43  167 1    
    89   43  168 1    
    90   44   45 am   BACKBONE|DICT|INTERRES
    91   44  169 1    
    92   45   46 2    
    93   45   47 1    
    94   47   48 1    
    95   47   49 1    
    96   47  170 1    
    97   48  171 1    
    98   48  172 1    
    99   48  173 1    
   100   49   50 am   BACKBONE|DICT|INTERRES
   101   49  174 1    
   102   50   51 2    
   103   50   52 1    
   104   52   53 1    
   105   52   54 1    
   106   52  175 1    
   107   53  176 1    
   108   53  177 1    
   109   53  178 1    
   110   54   55 am   BACKBONE|DICT|INTERRES
   111   54  179 1    
   112   55   56 2    
   113   55   57 1    
   114   57   58 1    
   115   57   59 1    
   116   57  180 1    
   117   58  181 1    
   118   58  182 1    
   119   58  183 1    
   120   59   60 am   BACKBONE|DICT|INTERRES
   121   59  184 1    
   122   60   61 2    
   123   60   62 1    
   124   62   63 1    
   125   62   64 1    
   126   62  185 1    
   127   63  186 1    
   128   63  187 1    
   129   63  188 1    
   130   64   65 am   BACKBONE|DICT|INTERRES
   131   64  189 1    
   132   65   66 2    
   133   67   68 2    
   134   67   69 am   BACKBONE|DICT|INTERRES
   135   69   70 1    
   136   69  190 1    
   137   70   71 1    
   138   70   72 1    
   139   70  191 1    
   140   71  192 1    
   141   71  193 1    
   142   71  194 1    
   143   72   73 2    
   144   72   74 am   BACKBONE|DICT|INTERRES
   145   74   75 1    
   146   74  195 1    
   147   75   76 1    
   148   75   77 1    
   149   75  196 1    
   150   76  197 1    
   151   76  198 1    
   152   76  199 1    
   153   77   78 2    
   154   77   79 am   BACKBONE|DICT|INTERRES
   155   79   80 1    
   156   79  200 1    
   157   80   81 1    
   158   80   82 1    
   159   80  201 1    
   160   81  202 1    
   161   81  203 1    
   162   81  204 1    
   163   82   83 2    
   164   82   84 am   BACKBONE|DICT|INTERRES
   165   84   85 1    
   166   84  205 1    
   167   85   86 1    
   168   85   87 1    
   169   85  206 1    
   170   86  207 1    
   171   86  208 1    
   172   86  209 1    
   173   87   88 2    
   174   87   89 am   BACKBONE|DICT|INTERRES
   175   89   90 1    
   176   89  210 1    
   177   90   91 1    
   178   90   92 1    
   179   90  211 1    
   180   91  212 1    
   181   91  213 1    
   182   91  214 1    
   183   92   93 2    
   184   92   94 am   BACKBONE|DICT|INTERRES
   185   94   95 1    
   186   94  215 1    
   187   95   96 1    
   188   95   97 1    
   189   95  216 1    
   190   96  217 1    
   191   96  218 1    
   192   96  219 1    
   193   97   98 2    
   194   97   99 am   BACKBONE|DICT|INTERRES
   195   99  100 1    
   196   99  220 1    
   197  100  101 1    
   198  100  102 1    
   199  100  221 1    
   200  101  222 1    
   201  101  223 1    
   202  101  224 1    
   203  102  103 2    
   204  102  104 am   BACKBONE|DICT|INTERRES
   205  104  105 1    
   206  104  225 1    
   207  105  106 1    
   208  105  107 1    
   209  105  226 1    
   210  106  227 1    
   211  106  228 1    
   212  106  229 1    
   213  107  108 2    
   214  107  109 am   BACKBONE|DICT|INTERRES
   215  109  110 1    
   216  109  230 1    
   217  110  111 1    
   218  110  112 1    
   219  110  231 1    
   220  111  232 1    
   221  111  233 1    
   222  111  234 1    
   223  112  113 2    
   224  112  114 am   BACKBONE|DICT|INTERRES
   225  114  115 1    
   226  114  235 1    
   227  115  116 1    
   228  115  117 1    
   229  115  236 1    
   230  116  237 1    
   231  116  238 1    
   232  116  239 1    
   233  117  118 2    
   234  117  119 am   BACKBONE|DICT|INTERRES
   235  119  120 1    
   236  119  240 1    
   237  120  121 1    
   238  120  124 1    
   239  120  241 1    
   240  121  122 am   BACKBONE|DICT|INTERRES
   241  121  123 2    
   242  122  242 1    
   243  122  243 1    
   244  124  125 1    
   245  124  244 1    
   246  124  245 1    
   247  125  126 1    
   248  126  246 1    
   249  126  247 1    
@<TRIPOS>SUBSTRUCTURE
     1 UNK         1 GROUP             0       ****    0 ROOT    
