@<TRIPOS>MOLECULE
3R540
247   249    1
SMALL
USER_CHARGES


@<TRIPOS>ATOM
      1 CA         -4.9581  -16.7565  -48.1414 C.3       0 UNK        -0.1800 
      2 C          -5.1015  -15.2447  -48.2014 C.2       0 UNK         0.5000 
      3 O          -6.0358  -14.6909  -47.6200 O.2       0 UNK        -0.5000 
      4 N          -4.1769  -14.5695  -48.8943 N.am      1 UNK        -0.5000 
      5 CA         -4.1510  -13.1145  -49.0916 C.3       1 UNK         0.1400 
      6 C6         -3.3574  -12.7103  -50.3590 C.3       23 UNK        -0.0398 
      7 S7         -4.0559  -13.4344  -51.8798 S.3       23 UNK        -0.2404 
      8 C8         -2.6696  -14.4526  -52.4714 C.3       23 UNK        -0.0205 
      9 C9         -2.4368  -15.6841  -51.6067 C.ar      23 UNK        -0.0193 
     10 C10        -3.2882  -16.7843  -51.7197 C.ar      23 UNK        -0.1150 
     11 C11        -3.0648  -17.9415  -50.9702 C.ar      23 UNK        -0.0193 
     12 C12        -1.9758  -17.9811  -50.0914 C.ar      23 UNK        -0.1150 
     13 C13        -1.1148  -16.8844  -49.9519 C.ar      23 UNK        -0.0193 
     14 C14        -1.3590  -15.7395  -50.7181 C.ar      23 UNK        -0.1150 
     15 C15         0.0981  -16.8778  -49.0141 C.3       23 UNK        -0.0205 
     16 S16         0.4468  -18.4210  -48.0928 S.3       23 UNK        -0.2404 
     17 C17        -0.8146  -18.3715  -46.7764 C.3       23 UNK        -0.0398 
     18 CA         -1.6062  -19.6985  -46.6633 C.3       11 UNK         0.1400 
     19 N          -0.7591  -20.8557  -46.3497 N.am      11 UNK        -0.5000 
     20 C          -1.1042  -22.1281  -46.6042 C.2       10 UNK         0.5000 
     21 O          -2.1496  -22.4459  -47.1645 O.2       10 UNK        -0.5000 
     22 CA         -0.1656  -23.2464  -46.1116 C.3       10 UNK         0.1400 
     23 CB          0.8303  -23.6448  -47.2093 C.3       10 UNK        -0.1800 
     24 N           0.5687  -22.8894  -44.9011 N.am      10 UNK        -0.5000 
     25 C           0.0085  -22.5907  -43.7203 C.2       9 UNK         0.5000 
     26 O          -1.1996  -22.6757  -43.5010 O.2       9 UNK        -0.5000 
     27 CA          0.9497  -22.0148  -42.6430 C.3       9 UNK         0.1400 
     28 CB          1.4560  -23.1257  -41.7130 C.3       9 UNK        -0.1800 
     29 N           2.0946  -21.3081  -43.2316 N.am      9 UNK        -0.5000 
     30 C           1.9905  -20.1855  -43.9545 C.2       8 UNK         0.5000 
     31 O           0.9342  -19.5588  -44.0912 O.2       8 UNK        -0.5000 
     32 CA          3.2456  -19.7419  -44.7115 C.3       8 UNK         0.1400 
     33 CB          3.3562  -20.5233  -46.0368 C.3       8 UNK        -0.1800 
     34 N           3.1503  -18.3113  -44.9677 N.am      8 UNK        -0.5000 
     35 C           4.1376  -17.5270  -45.4147 C.2       7 UNK         0.5000 
     36 O           5.2707  -17.9263  -45.6860 O.2       7 UNK        -0.5000 
     37 CA          3.8057  -16.0331  -45.5420 C.3       7 UNK         0.1400 
     38 CB          2.8658  -15.7755  -46.7300 C.3       7 UNK        -0.1800 
     39 N           3.2063  -15.5373  -44.3030 N.am      7 UNK        -0.5000 
     40 C           3.9193  -15.1986  -43.2189 C.2       6 UNK         0.5000 
     41 O           5.1501  -15.1561  -43.1938 O.2       6 UNK        -0.5000 
     42 CA          3.1305  -14.8746  -41.9380 C.3       6 UNK         0.1400 
     43 CB          2.4925  -13.4797  -42.0225 C.3       6 UNK        -0.1800 
     44 N           2.0967  -15.8661  -41.6456 N.am      6 UNK        -0.5000 
     45 C           2.3112  -17.1441  -41.3066 C.2       5 UNK         0.5000 
     46 O           3.4330  -17.6354  -41.1822 O.2       5 UNK        -0.5000 
     47 CA          1.0755  -18.0430  -41.0898 C.3       5 UNK         0.1400 
     48 CB          0.6876  -18.1299  -39.6013 C.3       5 UNK        -0.1800 
     49 N          -0.0717  -17.7010  -41.9439 N.am      5 UNK        -0.5000 
     50 C          -0.8777  -16.6338  -41.8610 C.2       4 UNK         0.5000 
     51 O          -0.7857  -15.7646  -40.9924 O.2       4 UNK        -0.5000 
     52 CA         -1.9146  -16.4601  -42.9838 C.3       4 UNK         0.1400 
     53 CB         -3.3448  -16.5087  -42.4242 C.3       4 UNK        -0.1800 
     54 N          -1.7273  -15.1795  -43.6592 N.am      4 UNK        -0.5000 
     55 C          -0.6261  -14.7848  -44.3069 C.2       3 UNK         0.5000 
     56 O           0.3401  -15.5255  -44.5022 O.2       3 UNK        -0.5000 
     57 CA         -0.5891  -13.3156  -44.7879 C.3       3 UNK         0.1400 
     58 CB          0.5018  -13.0749  -45.8449 C.3       3 UNK        -0.1800 
     59 N          -1.8643  -12.8228  -45.3151 N.am      3 UNK        -0.5000 
     60 C          -2.9509  -12.4806  -44.6136 C.2       2 UNK         0.5000 
     61 O          -3.0278  -12.6073  -43.3913 O.2       2 UNK        -0.5000 
     62 CA         -4.1699  -11.9379  -45.3880 C.3       2 UNK         0.1400 
     63 CB         -4.1454  -10.3986  -45.4401 C.3       2 UNK        -0.1800 
     64 N          -4.3737  -12.5113  -46.7265 N.am      2 UNK        -0.5000 
     65 C          -3.6241  -12.3950  -47.8309 C.2       1 UNK         0.5000 
     66 O          -2.5496  -11.7931  -47.8648 O.2       1 UNK        -0.5000 
     67 C          -2.7609  -19.5486  -45.6546 C.2       11 UNK         0.5000 
     68 O          -3.8187  -19.0501  -46.0328 O.2       11 UNK        -0.5000 
     69 N          -2.5640  -19.9993  -44.4054 N.am      12 UNK        -0.5000 
     70 CA         -3.6189  -20.0505  -43.3890 C.3       12 UNK         0.1400 
     71 CB         -3.0005  -20.2370  -41.9934 C.3       12 UNK        -0.1800 
     72 C          -4.6416  -21.1592  -43.6917 C.2       12 UNK         0.5000 
     73 O          -5.8431  -20.9448  -43.5309 O.2       12 UNK        -0.5000 
     74 N          -4.1417  -22.3124  -44.1539 N.am      13 UNK        -0.5000 
     75 CA         -4.9487  -23.4470  -44.6016 C.3       13 UNK         0.1400 
     76 CB         -4.0504  -24.6930  -44.6422 C.3       13 UNK        -0.1800 
     77 C          -5.6102  -23.2251  -45.9778 C.2       13 UNK         0.5000 
     78 O          -6.6166  -23.8724  -46.2685 O.2       13 UNK        -0.5000 
     79 N          -5.0097  -22.3524  -46.8026 N.am      14 UNK        -0.5000 
     80 CA         -5.2559  -22.1573  -48.2377 C.3       14 UNK         0.1400 
     81 CB         -6.6486  -21.5484  -48.4945 C.3       14 UNK        -0.1800 
     82 C          -4.9872  -23.4551  -49.0314 C.2       14 UNK         0.5000 
     83 O          -5.7836  -23.8545  -49.8833 O.2       14 UNK        -0.5000 
     84 N          -3.8754  -24.1115  -48.6826 N.am      15 UNK        -0.5000 
     85 CA         -3.4436  -25.4017  -49.2046 C.3       15 UNK         0.1400 
     86 CB         -2.5446  -26.0692  -48.1509 C.3       15 UNK        -0.1800 
     87 C          -2.6853  -25.2555  -50.5319 C.2       15 UNK         0.5000 
     88 O          -2.1750  -24.1782  -50.8478 O.2       15 UNK        -0.5000 
     89 N          -2.5651  -26.3742  -51.2587 N.am      16 UNK        -0.5000 
     90 CA         -1.8318  -26.4952  -52.5245 C.3       16 UNK         0.1400 
     91 CB         -2.0698  -27.8994  -53.1008 C.3       16 UNK        -0.1800 
     92 C          -0.3177  -26.2131  -52.4098 C.2       16 UNK         0.5000 
     93 O           0.3139  -25.8843  -53.4135 O.2       16 UNK        -0.5000 
     94 N           0.2292  -26.3344  -51.1922 N.am      17 UNK        -0.5000 
     95 CA          1.6303  -26.0823  -50.8524 C.3       17 UNK         0.1400 
     96 CB          1.9075  -26.6822  -49.4644 C.3       17 UNK        -0.1800 
     97 C           2.0441  -24.5950  -50.8962 C.2       17 UNK         0.5000 
     98 O           3.2445  -24.3164  -50.8984 O.2       17 UNK        -0.5000 
     99 N           1.0692  -23.6743  -50.9150 N.am      18 UNK        -0.5000 
    100 CA         1.2804  -22.2336  -51.0671 C.3       18 UNK         0.1400 
    101 CB         0.2022  -21.4843  -50.2661 C.3       18 UNK        -0.1800 
    102 C          1.3866  -21.8353  -52.5588 C.2       18 UNK         0.5000 
    103 O          2.0678  -22.5258  -53.3203 O.2       18 UNK        -0.5000 
    104 N          0.7632  -20.7223  -52.9641 N.am      19 UNK        -0.5000 
    105 CA         0.8813  -20.1386  -54.2995 C.3       19 UNK         0.1400 
    106 CB         2.2306  -19.3957  -54.4170 C.3       19 UNK        -0.1800 
    107 C         -0.3068  -19.2047  -54.5860 C.2       19 UNK         0.5000 
    108 O         -1.2220  -19.0981  -53.7668 O.2       19 UNK        -0.5000 
    109 N         -0.2579  -18.5348  -55.7470 N.am      20 UNK        -0.5000 
    110 CA        -1.2264  -17.5578  -56.2502 C.3       20 UNK         0.1400 
    111 CB        -1.2348  -16.2920  -55.3647 C.3       20 UNK        -0.1800 
    112 C         -2.6139  -18.1933  -56.4640 C.2       20 UNK         0.5000 
    113 O         -2.7736  -18.9724  -57.4049 O.2       20 UNK        -0.5000 
    114 N         -3.5854  -17.8610  -55.6034 N.am      21 UNK        -0.5000 
    115 CA        -4.9428  -18.4123  -55.6329 C.3       21 UNK         0.1400 
    116 CB        -5.8866  -17.4721  -54.8661 C.3       21 UNK        -0.1800 
    117 C         -5.0326  -19.8489  -55.0767 C.2       21 UNK         0.5000 
    118 O         -6.0666  -20.4946  -55.2547 O.2       21 UNK        -0.5000 
    119 N         -3.9705  -20.3221  -54.4173 N.am      22 UNK        -0.5000 
    120 CA        -3.8392  -21.6701  -53.8587 C.3       22 UNK         0.1400 
    121 C         -2.4662  -22.2891  -54.2578 C.2       22 UNK         0.5000 
    122 N         -1.8170  -23.0808  -53.4177 N.am      22 UNK        -0.7600 
    123 O         -1.9935  -22.1001  -55.3766 O.2       22 UNK        -0.5000 
    124 C124       -4.2169  -21.7030  -52.3510 C.3       23 UNK        -0.0398 
    125 S125       -3.1178  -20.7087  -51.2885 S.3       23 UNK        -0.2404 
    126 C126       -4.0105  -19.1324  -51.1119 C.3       23 UNK        -0.0205 
    127 H127       -5.4971  -17.2178  -48.9681 H         1 UNK         0.0600 
    128 H128       -5.3710  -17.1399  -47.2084 H         1 UNK         0.0600 
    129 H129       -3.9125  -17.0584  -48.1934 H         1 UNK         0.0600 
    130 H130       -3.4431  -15.0821  -49.3640 H         1 UNK         0.3000 
    131 H131       -5.1783  -12.7725  -49.2370 H         1 UNK         0.0600 
    132 H132       -3.3710  -11.6260  -50.4827 H         1 UNK         0.0800 
    133 H133       -2.3067  -12.9872  -50.2620 H         1 UNK         0.0800 
    134 H134       -2.8957  -14.7661  -53.4904 H         1 UNK         0.0800 
    135 H135       -1.7660  -13.8444  -52.5363 H         1 UNK         0.0800 
    136 H136       -4.1246  -16.7337  -52.3988 H         1 UNK         0.1150 
    137 H137       -1.8006  -18.8852  -49.5341 H         1 UNK         0.1150 
    138 H138       -0.6939  -14.8914  -50.6329 H         1 UNK         0.1150 
    139 H139        0.9831  -16.6500  -49.6096 H         1 UNK         0.0800 
    140 H140       -0.0065  -16.0584  -48.3013 H         1 UNK         0.0800 
    141 H141       -1.4971  -17.5439  -46.9790 H         1 UNK         0.0800 
    142 H142       -0.3199  -18.1250  -45.8366 H         1 UNK         0.0800 
    143 H143       -2.0765  -19.8904  -47.6285 H         1 UNK         0.0600 
    144 H144        0.1028  -20.6563  -45.8620 H         1 UNK         0.3000 
    145 H145       -0.7849  -24.1154  -45.8809 H         1 UNK         0.0600 
    146 H146        1.4303  -24.5020  -46.9040 H         1 UNK         0.0600 
    147 H147        0.3085  -23.9234  -48.1255 H         1 UNK         0.0600 
    148 H148        1.5124  -22.8297  -47.4536 H         1 UNK         0.0600 
    149 H149        1.5700  -22.8083  -44.9879 H         1 UNK         0.3000 
    150 H150        0.3732  -21.3036  -42.0476 H         1 UNK         0.0600 
    151 H151        2.0524  -23.8632  -42.2516 H         1 UNK         0.0600 
    152 H152        0.6228  -23.6535  -41.2469 H         1 UNK         0.0600 
    153 H153        2.0703  -22.7174  -40.9102 H         1 UNK         0.0600 
    154 H154        2.9934  -21.7625  -43.1510 H         1 UNK         0.3000 
    155 H155        4.1214  -19.9328  -44.0882 H         1 UNK         0.0600 
    156 H156        2.5010  -20.3346  -46.6871 H         1 UNK         0.0600 
    157 H157        3.4051  -21.5981  -45.8600 H         1 UNK         0.0600 
    158 H158        4.2562  -20.2544  -46.5892 H         1 UNK         0.0600 
    159 H159        2.2452  -17.9095  -44.7590 H         1 UNK         0.3000 
    160 H160        4.7371  -15.4963  -45.7352 H         1 UNK         0.0600 
    161 H161        1.8748  -16.1956  -46.5612 H         1 UNK         0.0600 
    162 H162        3.2581  -16.2220  -47.6446 H         1 UNK         0.0600 
    163 H163        2.7526  -14.7085  -46.9168 H         1 UNK         0.0600 
    164 H164        2.1903  -15.5498  -44.2515 H         1 UNK         0.3000 
    165 H165        3.8353  -14.8735  -41.1039 H         1 UNK         0.0600 
    166 H166        1.9876  -13.2196  -41.0920 H         1 UNK         0.0600 
    167 H167        3.2489  -12.7158  -42.2069 H         1 UNK         0.0600 
    168 H168        1.7623  -13.4184  -42.8284 H         1 UNK         0.0600 
    169 H169        1.1342  -15.5521  -41.6790 H         1 UNK         0.3000 
    170 H170        1.3731  -19.0474  -41.3880 H         1 UNK         0.0600 
    171 H171        1.5082  -18.5426  -39.0133 H         1 UNK         0.0600 
    172 H172        0.4504  -17.1534  -39.1790 H         1 UNK         0.0600 
    173 H173       -0.1754  -18.7797  -39.4558 H         1 UNK         0.0600 
    174 H174       -0.1590  -18.3012  -42.7562 H         1 UNK         0.3000 
    175 H175       -1.7925  -17.2592  -43.7168 H         1 UNK         0.0600 
    176 H176       -3.5059  -17.3988  -41.8168 H         1 UNK         0.0600 
    177 H177       -3.5559  -15.6467  -41.7898 H         1 UNK         0.0600 
    178 H178       -4.0810  -16.5200  -43.2282 H         1 UNK         0.0600 
    179 H179       -2.4268  -14.4676  -43.4786 H         1 UNK         0.3000 
    180 H180       -0.3384  -12.7112  -43.9143 H         1 UNK         0.0600 
    181 H181        0.3488  -13.6974  -46.7275 H         1 UNK         0.0600 
    182 H182        1.4906  -13.2995  -45.4443 H         1 UNK         0.0600 
    183 H183        0.5175  -12.0337  -46.1676 H         1 UNK         0.0600 
    184 H184       -1.8997  -12.6453  -46.3146 H         1 UNK         0.3000 
    185 H185       -5.0501  -12.2293  -44.8128 H         1 UNK         0.0600 
    186 H186       -4.1079   -9.9767  -44.4349 H         1 UNK         0.0600 
    187 H187       -3.2776  -10.0218  -45.9820 H         1 UNK         0.0600 
    188 H188       -5.0401  -10.0059  -45.9233 H         1 UNK         0.0600 
    189 H189       -5.1878  -13.1143  -46.8127 H         1 UNK         0.3000 
    190 H190       -1.6840  -20.4388  -44.1757 H         1 UNK         0.3000 
    191 H191       -4.1526  -19.0987  -43.4014 H         1 UNK         0.0600 
    192 H192       -2.2283  -19.4966  -41.7927 H         1 UNK         0.0600 
    193 H193       -3.7615  -20.1300  -41.2196 H         1 UNK         0.0600 
    194 H194       -2.5541  -21.2229  -41.8690 H         1 UNK         0.0600 
    195 H195       -3.1342  -22.4270  -44.1781 H         1 UNK         0.3000 
    196 H196       -5.7439  -23.6200  -43.8733 H         1 UNK         0.0600 
    197 H197       -4.6127  -25.5732  -44.9567 H         1 UNK         0.0600 
    198 H198       -3.6298  -24.9085  -43.6598 H         1 UNK         0.0600 
    199 H199       -3.2217  -24.5651  -45.3392 H         1 UNK         0.0600 
    200 H200       -4.1540  -21.9313  -46.4670 H         1 UNK         0.3000 
    201 H201       -4.5138  -21.4331  -48.5770 H         1 UNK         0.0600 
    202 H202       -6.7720  -21.2968  -49.5485 H         1 UNK         0.0600 
    203 H203       -6.7864  -20.6304  -47.9231 H         1 UNK         0.0600 
    204 H204       -7.4506  -22.2363  -48.2262 H         1 UNK         0.0600 
    205 H205       -3.2329  -23.6391  -48.0513 H         1 UNK         0.3000 
    206 H206       -4.3208  -26.0304  -49.3707 H         1 UNK         0.0600 
    207 H207       -3.0791  -26.2086  -47.2114 H         1 UNK         0.0600 
    208 H208       -2.2115  -27.0547  -48.4781 H         1 UNK         0.0600 
    209 H209       -1.6554  -25.4729  -47.9448 H         1 UNK         0.0600 
    210 H210       -3.0040  -27.2193  -50.9223 H         1 UNK         0.3000 
    211 H211       -2.2509  -25.7702  -53.2237 H         1 UNK         0.0600 
    212 H212       -1.6944  -28.6769  -52.4342 H         1 UNK         0.0600 
    213 H213       -1.5659  -28.0189  -54.0609 H         1 UNK         0.0600 
    214 H214       -3.1311  -28.0830  -53.2689 H         1 UNK         0.0600 
    215 H215       -0.3730  -26.6135  -50.4329 H         1 UNK         0.3000 
    216 H216        2.2529  -26.6074  -51.5798 H         1 UNK         0.0600 
    217 H217        2.9423  -26.5157  -49.1618 H         1 UNK         0.0600 
    218 H218        1.7403  -27.7594  -49.4609 H         1 UNK         0.0600 
    219 H219        1.2665  -26.2419  -48.7006 H         1 UNK         0.0600 
    220 H220        0.1071  -23.9876  -50.9296 H         1 UNK         0.3000 
    221 H221        2.2407  -21.9634  -50.6235 H         1 UNK         0.0600 
    222 H222       -0.7879  -21.8648  -50.5001 H         1 UNK         0.0600 
    223 H223        0.3527  -21.6181  -49.1971 H         1 UNK         0.0600 
    224 H224        0.2121  -20.4088  -50.4428 H         1 UNK         0.0600 
    225 H225        0.1244  -20.2350  -52.3475 H         1 UNK         0.3000 
    226 H226        0.8410  -20.9399  -55.0402 H         1 UNK         0.0600 
    227 H227        2.3879  -18.9998  -55.4204 H         1 UNK         0.0600 
    228 H228        2.2851  -18.5588  -53.7196 H         1 UNK         0.0600 
    229 H229        3.0713  -20.0571  -54.2078 H         1 UNK         0.0600 
    230 H230        0.5157  -18.7236  -56.3682 H         1 UNK         0.3000 
    231 H231       -0.8773  -17.2571  -57.2391 H         1 UNK         0.0600 
    232 H232       -1.4932  -16.5145  -54.3299 H         1 UNK         0.0600 
    233 H233       -1.9449  -15.5536  -55.7389 H         1 UNK         0.0600 
    234 H234       -0.2534  -15.8178  -55.3589 H         1 UNK         0.0600 
    235 H235       -3.3578  -17.2458  -54.8367 H         1 UNK         0.3000 
    236 H236       -5.2763  -18.4449  -56.6722 H         1 UNK         0.0600 
    237 H237       -6.9255  -17.7761  -54.9996 H         1 UNK         0.0600 
    238 H238       -5.6858  -17.4800  -53.7961 H         1 UNK         0.0600 
    239 H239       -5.8024  -16.4447  -55.2208 H         1 UNK         0.0600 
    240 H240       -3.1397  -19.7461  -54.3246 H         1 UNK         0.3000 
    241 H241       -4.5550  -22.3194  -54.3654 H         1 UNK         0.0600 
    242 H242       -0.9452  -23.4794  -53.7268 H         1 UNK         0.3800 
    243 H243       -2.1394  -23.2596  -52.4699 H         1 UNK         0.3800 
    244 H244       -5.2446  -21.3630  -52.2181 H         1 UNK         0.0800 
    245 H245       -4.2077  -22.7305  -51.9871 H         1 UNK         0.0800 
    246 H246       -4.6628  -18.9915  -51.9739 H         1 UNK         0.0800 
    247 H247       -4.6567  -19.1876  -50.2358 H         1 UNK         0.0800 
@<TRIPOS>BOND
     1    1    2 1    
     2    1  127 1    
     3    1  128 1    
     4    1  129 1    
     5    2    3 2    
     6    2    4 am   BACKBONE|DICT|INTERRES
     7    4    5 1    
     8    4  130 1    
     9    5    6 1    
    10    5   65 1    
    11    5  131 1    
    12    6    7 1    
    13    6  132 1    
    14    6  133 1    
    15    7    8 1    
    16    8    9 1    
    17    8  134 1    
    18    8  135 1    
    19    9   10 ar   
    20    9   14 ar   
    21   10   11 ar   
    22   10  136 1    
    23   11   12 ar   
    24   11  126 1    
    25   12   13 ar   
    26   12  137 1    
    27   13   14 ar   
    28   13   15 1    
    29   14  138 1    
    30   15   16 1    
    31   15  139 1    
    32   15  140 1    
    33   16   17 1    
    34   17   18 1    
    35   17  141 1    
    36   17  142 1    
    37   18   19 1    
    38   18   67 1    
    39   18  143 1    
    40   19   20 am   BACKBONE|DICT|INTERRES
    41   19  144 1    
    42   20   21 2    
    43   20   22 1    
    44   22   23 1    
    45   22   24 1    
    46   22  145 1    
    47   23  146 1    
    48   23  147 1    
    49   23  148 1    
    50   24   25 am   BACKBONE|DICT|INTERRES
    51   24  149 1    
    52   25   26 2    
    53   25   27 1    
    54   27   28 1    
    55   27   29 1    
    56   27  150 1    
    57   28  151 1    
    58   28  152 1    
    59   28  153 1    
    60   29   30 am   BACKBONE|DICT|INTERRES
    61   29  154 1    
    62   30   31 2    
    63   30   32 1    
    64   32   33 1    
    65   32   34 1    
    66   32  155 1    
    67   33  156 1    
    68   33  157 1    
    69   33  158 1    
    70   34   35 am   BACKBONE|DICT|INTERRES
    71   34  159 1    
    72   35   36 2    
    73   35   37 1    
    74   37   38 1    
    75   37   39 1    
    76   37  160 1    
    77   38  161 1    
    78   38  162 1    
    79   38  163 1    
    80   39   40 am   BACKBONE|DICT|INTERRES
    81   39  164 1    
    82   40   41 2    
    83   40   42 1    
    84   42   43 1    
    85   42   44 1    
    86   42  165 1    
    87   43  166 1    
    88   43  167 1    
    89   43  168 1    
    90   44   45 am   BACKBONE|DICT|INTERRES
    91   44  169 1    
    92   45   46 2    
    93   45   47 1    
    94   47   48 1    
    95   47   49 1    
    96   47  170 1    
    97   48  171 1    
    98   48  172 1    
    99   48  173 1    
   100   49   50 am   BACKBONE|DICT|INTERRES
   101   49  174 1    
   102   50   51 2    
   103   50   52 1    
   104   52   53 1    
   105   52   54 1    
   106   52  175 1    
   107   53  176 1    
   108   53  177 1    
   109   53  178 1    
   110   54   55 am   BACKBONE|DICT|INTERRES
   111   54  179 1    
   112   55   56 2    
   113   55   57 1    
   114   57   58 1    
   115   57   59 1    
   116   57  180 1    
   117   58  181 1    
   118   58  182 1    
   119   58  183 1    
   120   59   60 am   BACKBONE|DICT|INTERRES
   121   59  184 1    
   122   60   61 2    
   123   60   62 1    
   124   62   63 1    
   125   62   64 1    
   126   62  185 1    
   127   63  186 1    
   128   63  187 1    
   129   63  188 1    
   130   64   65 am   BACKBONE|DICT|INTERRES
   131   64  189 1    
   132   65   66 2    
   133   67   68 2    
   134   67   69 am   BACKBONE|DICT|INTERRES
   135   69   70 1    
   136   69  190 1    
   137   70   71 1    
   138   70   72 1    
   139   70  191 1    
   140   71  192 1    
   141   71  193 1    
   142   71  194 1    
   143   72   73 2    
   144   72   74 am   BACKBONE|DICT|INTERRES
   145   74   75 1    
   146   74  195 1    
   147   75   76 1    
   148   75   77 1    
   149   75  196 1    
   150   76  197 1    
   151   76  198 1    
   152   76  199 1    
   153   77   78 2    
   154   77   79 am   BACKBONE|DICT|INTERRES
   155   79   80 1    
   156   79  200 1    
   157   80   81 1    
   158   80   82 1    
   159   80  201 1    
   160   81  202 1    
   161   81  203 1    
   162   81  204 1    
   163   82   83 2    
   164   82   84 am   BACKBONE|DICT|INTERRES
   165   84   85 1    
   166   84  205 1    
   167   85   86 1    
   168   85   87 1    
   169   85  206 1    
   170   86  207 1    
   171   86  208 1    
   172   86  209 1    
   173   87   88 2    
   174   87   89 am   BACKBONE|DICT|INTERRES
   175   89   90 1    
   176   89  210 1    
   177   90   91 1    
   178   90   92 1    
   179   90  211 1    
   180   91  212 1    
   181   91  213 1    
   182   91  214 1    
   183   92   93 2    
   184   92   94 am   BACKBONE|DICT|INTERRES
   185   94   95 1    
   186   94  215 1    
   187   95   96 1    
   188   95   97 1    
   189   95  216 1    
   190   96  217 1    
   191   96  218 1    
   192   96  219 1    
   193   97   98 2    
   194   97   99 am   BACKBONE|DICT|INTERRES
   195   99  100 1    
   196   99  220 1    
   197  100  101 1    
   198  100  102 1    
   199  100  221 1    
   200  101  222 1    
   201  101  223 1    
   202  101  224 1    
   203  102  103 2    
   204  102  104 am   BACKBONE|DICT|INTERRES
   205  104  105 1    
   206  104  225 1    
   207  105  106 1    
   208  105  107 1    
   209  105  226 1    
   210  106  227 1    
   211  106  228 1    
   212  106  229 1    
   213  107  108 2    
   214  107  109 am   BACKBONE|DICT|INTERRES
   215  109  110 1    
   216  109  230 1    
   217  110  111 1    
   218  110  112 1    
   219  110  231 1    
   220  111  232 1    
   221  111  233 1    
   222  111  234 1    
   223  112  113 2    
   224  112  114 am   BACKBONE|DICT|INTERRES
   225  114  115 1    
   226  114  235 1    
   227  115  116 1    
   228  115  117 1    
   229  115  236 1    
   230  116  237 1    
   231  116  238 1    
   232  116  239 1    
   233  117  118 2    
   234  117  119 am   BACKBONE|DICT|INTERRES
   235  119  120 1    
   236  119  240 1    
   237  120  121 1    
   238  120  124 1    
   239  120  241 1    
   240  121  122 am   BACKBONE|DICT|INTERRES
   241  121  123 2    
   242  122  242 1    
   243  122  243 1    
   244  124  125 1    
   245  124  244 1    
   246  124  245 1    
   247  125  126 1    
   248  126  246 1    
   249  126  247 1    
@<TRIPOS>SUBSTRUCTURE
     1 UNK         1 GROUP             0       ****    0 ROOT    
