@<TRIPOS>MOLECULE
3R540
247   249    1
SMALL
USER_CHARGES


@<TRIPOS>ATOM
      1 CA         -1.7680  -17.4164  -48.6936 C.3       0 UNK        -0.1800 
      2 C          -1.6841  -15.9149  -48.9143 C.2       0 UNK         0.5000 
      3 O          -2.5828  -15.1767  -48.5100 O.2       0 UNK        -0.5000 
      4 N          -0.6067  -15.4678  -49.5668 N.am      1 UNK        -0.5000 
      5 CA         -0.3146  -14.0586  -49.8267 C.3       1 UNK         0.1400 
      6 C6          0.6763  -13.8970  -51.0136 C.3       23 UNK        -0.0398 
      7 S7          2.4773  -13.9585  -50.6904 S.3       23 UNK        -0.2404 
      8 C8          2.7307  -15.5022  -49.7493 C.3       23 UNK        -0.0205 
      9 C9          2.2673  -16.7814  -50.4421 C.ar      23 UNK        -0.0193 
     10 C10         2.4108  -16.9755  -51.8217 C.ar      23 UNK        -0.1150 
     11 C11         2.0327  -18.1818  -52.4227 C.ar      23 UNK        -0.0193 
     12 C12         1.5229  -19.2087  -51.6158 C.ar      23 UNK        -0.1150 
     13 C13         1.3716  -19.0295  -50.2398 C.ar      23 UNK        -0.0193 
     14 C14         1.7372  -17.8127  -49.6625 C.ar      23 UNK        -0.1150 
     15 C15         0.8177  -20.1487  -49.3731 C.3       23 UNK        -0.0205 
     16 S16         2.0909  -20.8323  -48.2585 S.3       23 UNK        -0.2404 
     17 C17         1.1973  -20.8555  -46.6637 C.3       23 UNK        -0.0398 
     18 CA          0.4867  -22.1928  -46.3303 C.3       11 UNK         0.1400 
     19 N          -0.1560  -22.1294  -45.0169 N.am      11 UNK        -0.5000 
     20 C          -0.7845  -23.1374  -44.3972 C.2       10 UNK         0.5000 
     21 O          -0.8558  -24.2819  -44.8406 O.2       10 UNK        -0.5000 
     22 CA         -1.5085  -22.7895  -43.0862 C.3       10 UNK         0.1400 
     23 CB         -0.5200  -22.7008  -41.9134 C.3       10 UNK        -0.1800 
     24 N          -2.2622  -21.5404  -43.1941 N.am      10 UNK        -0.5000 
     25 C          -3.3346  -21.3668  -43.9800 C.2       9 UNK         0.5000 
     26 O          -3.8244  -22.2528  -44.6799 O.2       9 UNK        -0.5000 
     27 CA         -3.9332  -19.9495  -44.0201 C.3       9 UNK         0.1400 
     28 CB         -4.8648  -19.7169  -42.8214 C.3       9 UNK        -0.1800 
     29 N          -2.9081  -18.9049  -44.0508 N.am      9 UNK        -0.5000 
     30 C          -2.0539  -18.7248  -45.0671 C.2       8 UNK         0.5000 
     31 O          -2.0301  -19.4292  -46.0763 O.2       8 UNK        -0.5000 
     32 CA         -1.0159  -17.6011  -44.9031 C.3       8 UNK         0.1400 
     33 CB         -1.6626  -16.2298  -45.1416 C.3       8 UNK        -0.1800 
     34 N          -0.3378  -17.5995  -43.6042 N.am      8 UNK        -0.5000 
     35 C           0.3337  -18.6364  -43.0790 C.2       7 UNK         0.5000 
     36 O           0.4227  -19.7308  -43.6343 O.2       7 UNK        -0.5000 
     37 CA          1.0286  -18.4420  -41.7180 C.3       7 UNK         0.1400 
     38 CB          2.5364  -18.7199  -41.8318 C.3       7 UNK        -0.1800 
     39 N           0.8248  -17.1060  -41.1550 N.am      7 UNK        -0.5000 
     40 C          -0.2258  -16.7549  -40.3994 C.2       6 UNK         0.5000 
     41 O          -1.1317  -17.5323  -40.0969 O.2       6 UNK        -0.5000 
     42 CA         -0.2932  -15.2954  -39.9034 C.3       6 UNK         0.1400 
     43 CB          0.1820  -15.2030  -38.4453 C.3       6 UNK        -0.1800 
     44 N           0.4807  -14.3515  -40.7129 N.am      6 UNK        -0.5000 
     45 C           0.2060  -14.0225  -41.9819 C.2       5 UNK         0.5000 
     46 O          -0.7462  -14.4885  -42.6075 O.2       5 UNK        -0.5000 
     47 CA          1.1628  -13.0378  -42.6887 C.3       5 UNK         0.1400 
     48 CB          2.2314  -12.4161  -41.7622 C.3       5 UNK        -0.1800 
     49 N           1.8080  -13.6426  -43.8569 N.am      5 UNK        -0.5000 
     50 C           2.5118  -14.7853  -43.8952 C.2       4 UNK         0.5000 
     51 O           2.6943  -15.5075  -42.9145 O.2       4 UNK        -0.5000 
     52 CA          3.1311  -15.1899  -45.2476 C.3       4 UNK         0.1400 
     53 CB          2.3505  -16.3472  -45.8879 C.3       4 UNK        -0.1800 
     54 N           3.2090  -14.0710  -46.1912 N.am      4 UNK        -0.5000 
     55 C           4.1844  -13.1489  -46.1729 C.2       3 UNK         0.5000 
     56 O           5.1495  -13.1981  -45.4094 O.2       3 UNK        -0.5000 
     57 CA          4.0719  -11.9631  -47.1534 C.3       3 UNK         0.1400 
     58 CB          4.9711  -12.1915  -48.3776 C.3       3 UNK        -0.1800 
     59 N           2.7049  -11.6903  -47.6023 N.am      3 UNK        -0.5000 
     60 C           1.7180  -11.2384  -46.8151 C.2       2 UNK         0.5000 
     61 O           1.8619  -10.9889  -45.6181 O.2       2 UNK        -0.5000 
     62 CA          0.3238  -11.0762  -47.4542 C.3       2 UNK         0.1400 
     63 CB          0.1102   -9.6239  -47.9067 C.3       2 UNK        -0.1800 
     64 N           0.0508  -11.9733  -48.5834 N.am      2 UNK        -0.5000 
     65 C           0.1017  -13.3119  -48.5375 C.2       1 UNK         0.5000 
     66 O           0.4817  -13.9409  -47.5452 O.2       1 UNK        -0.5000 
     67 C          -0.5158  -22.6172  -47.4231 C.2       11 UNK         0.5000 
     68 O          -0.2492  -23.5711  -48.1535 O.2       11 UNK        -0.5000 
     69 N          -1.6602  -21.9234  -47.4981 N.am      12 UNK        -0.5000 
     70 CA         -2.7092  -22.1805  -48.4837 C.3       12 UNK         0.1400 
     71 CB         -3.7585  -21.0660  -48.4072 C.3       12 UNK        -0.1800 
     72 C          -3.3646  -23.5654  -48.3372 C.2       12 UNK         0.5000 
     73 O          -3.7093  -24.1781  -49.3512 O.2       12 UNK        -0.5000 
     74 N          -3.5018  -24.0380  -47.0904 N.am      13 UNK        -0.5000 
     75 CA         -3.9696  -25.3816  -46.7579 C.3       13 UNK         0.1400 
     76 CB         -4.3336  -25.4521  -45.2675 C.3       13 UNK        -0.1800 
     77 C          -2.9381  -26.4637  -47.1220 C.2       13 UNK         0.5000 
     78 O          -3.3129  -27.4684  -47.7251 O.2       13 UNK        -0.5000 
     79 N          -1.6594  -26.2333  -46.7873 N.am      14 UNK        -0.5000 
     80 CA         -0.5384  -27.1279  -47.0965 C.3       14 UNK         0.1400 
     81 CB          0.7276  -26.6417  -46.3752 C.3       14 UNK        -0.1800 
     82 C          -0.2800  -27.2690  -48.6076 C.2       14 UNK         0.5000 
     83 O           0.0282  -28.3663  -49.0740 O.2       14 UNK        -0.5000 
     84 N          -0.4545  -26.1666  -49.3482 N.am      15 UNK        -0.5000 
     85 CA         -0.4201  -26.1199  -50.8108 C.3       15 UNK         0.1400 
     86 CB         -0.3238  -24.6497  -51.2530 C.3       15 UNK        -0.1800 
     87 C          -1.6408  -26.7915  -51.4738 C.2       15 UNK         0.5000 
     88 O          -1.5950  -27.0610  -52.6745 O.2       15 UNK        -0.5000 
     89 N          -2.7118  -27.0160  -50.6946 N.am      16 UNK        -0.5000 
     90 CA         -4.0294  -27.5250  -51.0937 C.3       16 UNK         0.1400 
     91 CB         -3.9311  -28.9826  -51.5886 C.3       16 UNK        -0.1800 
     92 C          -4.7565  -26.5957  -52.0894 C.2       16 UNK         0.5000 
     93 O          -5.5868  -27.0566  -52.8748 O.2       16 UNK        -0.5000 
     94 N          -4.4216  -25.3012  -52.0388 N.am      17 UNK        -0.5000 
     95 CA         -4.9431  -24.2638  -52.9224 C.3       17 UNK         0.1400 
     96 CB         -3.8082  -23.2789  -53.2400 C.3       17 UNK        -0.1800 
     97 C          -6.1345  -23.5299  -52.2878 C.2       17 UNK         0.5000 
     98 O          -7.0602  -23.1577  -53.0101 O.2       17 UNK        -0.5000 
     99 N          -6.0847  -23.3557  -50.9566 N.am      18 UNK        -0.5000 
    100 CA        -7.0273  -22.6222  -50.1033 C.3       18 UNK         0.1400 
    101 CB        -8.4300  -23.2625  -50.1594 C.3       18 UNK        -0.1800 
    102 C         -7.0772  -21.1034  -50.3883 C.2       18 UNK         0.5000 
    103 O         -6.4880  -20.6170  -51.3575 O.2       18 UNK        -0.5000 
    104 N         -7.7649  -20.3717  -49.4994 N.am      19 UNK        -0.5000 
    105 CA        -7.9475  -18.9162  -49.5139 C.3       19 UNK         0.1400 
    106 CB        -8.9138  -18.5125  -50.6515 C.3       19 UNK        -0.1800 
    107 C         -6.5967  -18.1652  -49.5275 C.2       19 UNK         0.5000 
    108 O         -5.7924  -18.3652  -48.6169 O.2       19 UNK        -0.5000 
    109 N         -6.3684  -17.3318  -50.5498 N.am      20 UNK        -0.5000 
    110 CA        -5.1310  -16.5789  -50.7587 C.3       20 UNK         0.1400 
    111 CB        -5.4757  -15.2628  -51.4748 C.3       20 UNK        -0.1800 
    112 C         -4.0650  -17.3624  -51.5524 C.2       20 UNK         0.5000 
    113 O         -2.9698  -16.8354  -51.7524 O.2       20 UNK        -0.5000 
    114 N         -4.3881  -18.5817  -52.0129 N.am      21 UNK        -0.5000 
    115 CA        -3.5494  -19.4525  -52.8418 C.3       21 UNK         0.1400 
    116 CB        -2.4195  -20.0688  -51.9842 C.3       21 UNK        -0.1800 
    117 C         -3.0551  -18.7302  -54.1166 C.2       21 UNK         0.5000 
    118 O         -3.8757  -18.1925  -54.8629 O.2       21 UNK        -0.5000 
    119 N         -1.7355  -18.7092  -54.3261 N.am      22 UNK        -0.5000 
    120 CA        -1.0329  -17.9262  -55.3531 C.3       22 UNK         0.1400 
    121 C         -0.7102  -16.4590  -54.9356 C.2       22 UNK         0.5000 
    122 N         -1.1421  -15.9661  -53.7815 N.am      22 UNK        -0.7600 
    123 O         -0.0701  -15.7330  -55.6914 O.2       22 UNK        -0.5000 
    124 C124        0.2069  -18.6800  -55.9188 C.3       23 UNK        -0.0398 
    125 S125        1.1889  -19.6310  -54.7041 S.3       23 UNK        -0.2404 
    126 C126        2.2471  -18.3585  -53.9282 C.3       23 UNK        -0.0205 
    127 H127       -1.0211  -17.7291  -47.9664 H         1 UNK         0.0600 
    128 H128       -2.7529  -17.6991  -48.3207 H         1 UNK         0.0600 
    129 H129       -1.5898  -17.9544  -49.6237 H         1 UNK         0.0600 
    130 H130        0.0986  -16.1235  -49.8712 H         1 UNK         0.3000 
    131 H131       -1.2568  -13.6088  -50.1484 H         1 UNK         0.0600 
    132 H132        0.4920  -12.9314  -51.4865 H         1 UNK         0.0800 
    133 H133        0.4511  -14.6303  -51.7886 H         1 UNK         0.0800 
    134 H134        2.2486  -15.4019  -48.7783 H         1 UNK         0.0800 
    135 H135        3.7968  -15.6003  -49.5418 H         1 UNK         0.0800 
    136 H136        2.8362  -16.1906  -52.4309 H         1 UNK         0.1150 
    137 H137        1.2536  -20.1612  -52.0474 H         1 UNK         0.1150 
    138 H138        1.6320  -17.6851  -48.5944 H         1 UNK         0.1150 
    139 H139       -0.0325  -19.7679  -48.8086 H         1 UNK         0.0800 
    140 H140        0.4253  -20.9587  -49.9903 H         1 UNK         0.0800 
    141 H141        0.4966  -20.0217  -46.6252 H         1 UNK         0.0800 
    142 H142        1.9323  -20.6430  -45.8860 H         1 UNK         0.0800 
    143 H143        1.2500  -22.9716  -46.2738 H         1 UNK         0.0600 
    144 H144       -0.1176  -21.2275  -44.5464 H         1 UNK         0.3000 
    145 H145       -2.2165  -23.5933  -42.8731 H         1 UNK         0.0600 
    146 H146       -1.0394  -22.5120  -40.9738 H         1 UNK         0.0600 
    147 H147        0.0297  -23.6358  -41.7981 H         1 UNK         0.0600 
    148 H148        0.2131  -21.9067  -42.0566 H         1 UNK         0.0600 
    149 H149       -1.8994  -20.7447  -42.6914 H         1 UNK         0.3000 
    150 H150       -4.5256  -19.8667  -44.9341 H         1 UNK         0.0600 
    151 H151       -5.6468  -20.4765  -42.7824 H         1 UNK         0.0600 
    152 H152       -5.3583  -18.7472  -42.8885 H         1 UNK         0.0600 
    153 H153       -4.3233  -19.7536  -41.8752 H         1 UNK         0.0600 
    154 H154       -2.8469  -18.2941  -43.2493 H         1 UNK         0.3000 
    155 H155       -0.2547  -17.7582  -45.6682 H         1 UNK         0.0600 
    156 H156       -0.9089  -15.4497  -45.2527 H         1 UNK         0.0600 
    157 H157       -2.2673  -16.2288  -46.0472 H         1 UNK         0.0600 
    158 H158       -2.3203  -15.9468  -44.3193 H         1 UNK         0.0600 
    159 H159       -0.3634  -16.7304  -43.0864 H         1 UNK         0.3000 
    160 H160        0.6090  -19.1855  -41.0373 H         1 UNK         0.0600 
    161 H161        3.0396  -18.5716  -40.8763 H         1 UNK         0.0600 
    162 H162        3.0146  -18.0743  -42.5682 H         1 UNK         0.0600 
    163 H163        2.7204  -19.7508  -42.1373 H         1 UNK         0.0600 
    164 H164        1.5064  -16.4021  -41.4191 H         1 UNK         0.3000 
    165 H165       -1.3406  -14.9885  -39.9407 H         1 UNK         0.0600 
    166 H166        0.0604  -14.1931  -38.0532 H         1 UNK         0.0600 
    167 H167       -0.3940  -15.8705  -37.8028 H         1 UNK         0.0600 
    168 H168        1.2328  -15.4786  -38.3468 H         1 UNK         0.0600 
    169 H169        1.2966  -13.9463  -40.2776 H         1 UNK         0.3000 
    170 H170        0.5394  -12.2260  -43.0663 H         1 UNK         0.0600 
    171 H171        1.7725  -11.8950  -40.9210 H         1 UNK         0.0600 
    172 H172        2.9178  -13.1638  -41.3630 H         1 UNK         0.0600 
    173 H173        2.8283  -11.6813  -42.3030 H         1 UNK         0.0600 
    174 H174        1.7220  -13.1149  -44.7149 H         1 UNK         0.3000 
    175 H175        4.1401  -15.5525  -45.0397 H         1 UNK         0.0600 
    176 H176        1.3487  -16.0412  -46.1868 H         1 UNK         0.0600 
    177 H177        2.8675  -16.7232  -46.7701 H         1 UNK         0.0600 
    178 H178        2.2494  -17.1837  -45.1954 H         1 UNK         0.0600 
    179 H179        2.4192  -13.9493  -46.8165 H         1 UNK         0.3000 
    180 H180        4.4322  -11.0743  -46.6311 H         1 UNK         0.0600 
    181 H181        4.6935  -13.0960  -48.9183 H         1 UNK         0.0600 
    182 H182        6.0143  -12.2998  -48.0784 H         1 UNK         0.0600 
    183 H183        4.9187  -11.3528  -49.0720 H         1 UNK         0.0600 
    184 H184        2.4957  -11.8898  -48.5698 H         1 UNK         0.3000 
    185 H185       -0.4105  -11.3020  -46.6783 H         1 UNK         0.0600 
    186 H186        0.2793   -8.9282  -47.0835 H         1 UNK         0.0600 
    187 H187        0.7917   -9.3499  -48.7131 H         1 UNK         0.0600 
    188 H188       -0.9094   -9.4648  -48.2585 H         1 UNK         0.0600 
    189 H189       -0.2522  -11.5258  -49.4363 H         1 UNK         0.3000 
    190 H190       -1.8098  -21.1365  -46.8704 H         1 UNK         0.3000 
    191 H191       -2.2441  -22.1461  -49.4703 H         1 UNK         0.0600 
    192 H192       -4.2702  -21.0546  -47.4439 H         1 UNK         0.0600 
    193 H193       -4.5101  -21.1881  -49.1843 H         1 UNK         0.0600 
    194 H194       -3.3056  -20.0860  -48.5551 H         1 UNK         0.0600 
    195 H195       -3.2496  -23.4405  -46.3106 H         1 UNK         0.3000 
    196 H196       -4.8759  -25.5774  -47.3351 H         1 UNK         0.0600 
    197 H197       -4.6896  -26.4472  -44.9981 H         1 UNK         0.0600 
    198 H198       -5.1273  -24.7458  -45.0237 H         1 UNK         0.0600 
    199 H199       -3.4781  -25.2246  -44.6309 H         1 UNK         0.0600 
    200 H200       -1.4309  -25.3977  -46.2540 H         1 UNK         0.3000 
    201 H201       -0.7884  -28.1186  -46.7114 H         1 UNK         0.0600 
    202 H202        0.5862  -26.6342  -45.2944 H         1 UNK         0.0600 
    203 H203        1.0036  -25.6328  -46.6836 H         1 UNK         0.0600 
    204 H204        1.5750  -27.2948  -46.5872 H         1 UNK         0.0600 
    205 H205       -0.6164  -25.2827  -48.8707 H         1 UNK         0.3000 
    206 H206        0.4742  -26.6444  -51.1530 H         1 UNK         0.0600 
    207 H207        0.5660  -24.1714  -50.8430 H         1 UNK         0.0600 
    208 H208       -0.2650  -24.5679  -52.3391 H         1 UNK         0.0600 
    209 H209       -1.1916  -24.0750  -50.9271 H         1 UNK         0.0600 
    210 H210       -2.6327  -26.7769  -49.7144 H         1 UNK         0.3000 
    211 H211       -4.6382  -27.5260  -50.1887 H         1 UNK         0.0600 
    212 H212       -3.3990  -29.0548  -52.5374 H         1 UNK         0.0600 
    213 H213       -4.9221  -29.4130  -51.7369 H         1 UNK         0.0600 
    214 H214       -3.4120  -29.6093  -50.8633 H         1 UNK         0.0600 
    215 H215       -3.7829  -25.0062  -51.3101 H         1 UNK         0.3000 
    216 H216       -5.2781  -24.7083  -53.8621 H         1 UNK         0.0600 
    217 H217       -4.1444  -22.5117  -53.9377 H         1 UNK         0.0600 
    218 H218       -2.9618  -23.7884  -53.7012 H         1 UNK         0.0600 
    219 H219       -3.4478  -22.7804  -52.3398 H         1 UNK         0.0600 
    220 H220       -5.2655  -23.7107  -50.4745 H         1 UNK         0.3000 
    221 H221       -6.6481  -22.7374  -49.0867 H         1 UNK         0.0600 
    222 H222       -8.9159  -23.0960  -51.1210 H         1 UNK         0.0600 
    223 H223       -8.3786  -24.3385  -49.9920 H         1 UNK         0.0600 
    224 H224       -9.0847  -22.8498  -49.3915 H         1 UNK         0.0600 
    225 H225       -8.1800  -20.8458  -48.7100 H         1 UNK         0.3000 
    226 H226       -8.4263  -18.6549  -48.5692 H         1 UNK         0.0600 
    227 H227       -9.8661  -19.0336  -50.5524 H         1 UNK         0.0600 
    228 H228       -9.1335  -17.4444  -50.6249 H         1 UNK         0.0600 
    229 H229       -8.5137  -18.7499  -51.6380 H         1 UNK         0.0600 
    230 H230       -7.0761  -17.2412  -51.2645 H         1 UNK         0.3000 
    231 H231       -4.6950  -16.3301  -49.7897 H         1 UNK         0.0600 
    232 H232       -6.1985  -14.6802  -50.9035 H         1 UNK         0.0600 
    233 H233       -4.5878  -14.6413  -51.5995 H         1 UNK         0.0600 
    234 H234       -5.8936  -15.4414  -52.4663 H         1 UNK         0.0600 
    235 H235       -5.3041  -18.9574  -51.7929 H         1 UNK         0.3000 
    236 H236       -4.1964  -20.2622  -53.1790 H         1 UNK         0.0600 
    237 H237       -1.8488  -20.8086  -52.5469 H         1 UNK         0.0600 
    238 H238       -1.7213  -19.3161  -51.6170 H         1 UNK         0.0600 
    239 H239       -2.8362  -20.5791  -51.1183 H         1 UNK         0.0600 
    240 H240       -1.1316  -19.1648  -53.6575 H         1 UNK         0.3000 
    241 H241       -1.7170  -17.8058  -56.1950 H         1 UNK         0.0600 
    242 H242       -1.7226  -16.5031  -53.1425 H         1 UNK         0.3800 
    243 H243       -0.9390  -15.0052  -53.5673 H         1 UNK         0.3800 
    244 H244       -0.1477  -19.4086  -56.6488 H         1 UNK         0.0800 
    245 H245        0.8673  -18.0219  -56.4860 H         1 UNK         0.0800 
    246 H246        3.2890  -18.6352  -54.0926 H         1 UNK         0.0800 
    247 H247        2.1029  -17.4034  -54.4349 H         1 UNK         0.0800 
@<TRIPOS>BOND
     1    1    2 1    
     2    1  127 1    
     3    1  128 1    
     4    1  129 1    
     5    2    3 2    
     6    2    4 am   BACKBONE|DICT|INTERRES
     7    4    5 1    
     8    4  130 1    
     9    5    6 1    
    10    5   65 1    
    11    5  131 1    
    12    6    7 1    
    13    6  132 1    
    14    6  133 1    
    15    7    8 1    
    16    8    9 1    
    17    8  134 1    
    18    8  135 1    
    19    9   10 ar   
    20    9   14 ar   
    21   10   11 ar   
    22   10  136 1    
    23   11   12 ar   
    24   11  126 1    
    25   12   13 ar   
    26   12  137 1    
    27   13   14 ar   
    28   13   15 1    
    29   14  138 1    
    30   15   16 1    
    31   15  139 1    
    32   15  140 1    
    33   16   17 1    
    34   17   18 1    
    35   17  141 1    
    36   17  142 1    
    37   18   19 1    
    38   18   67 1    
    39   18  143 1    
    40   19   20 am   BACKBONE|DICT|INTERRES
    41   19  144 1    
    42   20   21 2    
    43   20   22 1    
    44   22   23 1    
    45   22   24 1    
    46   22  145 1    
    47   23  146 1    
    48   23  147 1    
    49   23  148 1    
    50   24   25 am   BACKBONE|DICT|INTERRES
    51   24  149 1    
    52   25   26 2    
    53   25   27 1    
    54   27   28 1    
    55   27   29 1    
    56   27  150 1    
    57   28  151 1    
    58   28  152 1    
    59   28  153 1    
    60   29   30 am   BACKBONE|DICT|INTERRES
    61   29  154 1    
    62   30   31 2    
    63   30   32 1    
    64   32   33 1    
    65   32   34 1    
    66   32  155 1    
    67   33  156 1    
    68   33  157 1    
    69   33  158 1    
    70   34   35 am   BACKBONE|DICT|INTERRES
    71   34  159 1    
    72   35   36 2    
    73   35   37 1    
    74   37   38 1    
    75   37   39 1    
    76   37  160 1    
    77   38  161 1    
    78   38  162 1    
    79   38  163 1    
    80   39   40 am   BACKBONE|DICT|INTERRES
    81   39  164 1    
    82   40   41 2    
    83   40   42 1    
    84   42   43 1    
    85   42   44 1    
    86   42  165 1    
    87   43  166 1    
    88   43  167 1    
    89   43  168 1    
    90   44   45 am   BACKBONE|DICT|INTERRES
    91   44  169 1    
    92   45   46 2    
    93   45   47 1    
    94   47   48 1    
    95   47   49 1    
    96   47  170 1    
    97   48  171 1    
    98   48  172 1    
    99   48  173 1    
   100   49   50 am   BACKBONE|DICT|INTERRES
   101   49  174 1    
   102   50   51 2    
   103   50   52 1    
   104   52   53 1    
   105   52   54 1    
   106   52  175 1    
   107   53  176 1    
   108   53  177 1    
   109   53  178 1    
   110   54   55 am   BACKBONE|DICT|INTERRES
   111   54  179 1    
   112   55   56 2    
   113   55   57 1    
   114   57   58 1    
   115   57   59 1    
   116   57  180 1    
   117   58  181 1    
   118   58  182 1    
   119   58  183 1    
   120   59   60 am   BACKBONE|DICT|INTERRES
   121   59  184 1    
   122   60   61 2    
   123   60   62 1    
   124   62   63 1    
   125   62   64 1    
   126   62  185 1    
   127   63  186 1    
   128   63  187 1    
   129   63  188 1    
   130   64   65 am   BACKBONE|DICT|INTERRES
   131   64  189 1    
   132   65   66 2    
   133   67   68 2    
   134   67   69 am   BACKBONE|DICT|INTERRES
   135   69   70 1    
   136   69  190 1    
   137   70   71 1    
   138   70   72 1    
   139   70  191 1    
   140   71  192 1    
   141   71  193 1    
   142   71  194 1    
   143   72   73 2    
   144   72   74 am   BACKBONE|DICT|INTERRES
   145   74   75 1    
   146   74  195 1    
   147   75   76 1    
   148   75   77 1    
   149   75  196 1    
   150   76  197 1    
   151   76  198 1    
   152   76  199 1    
   153   77   78 2    
   154   77   79 am   BACKBONE|DICT|INTERRES
   155   79   80 1    
   156   79  200 1    
   157   80   81 1    
   158   80   82 1    
   159   80  201 1    
   160   81  202 1    
   161   81  203 1    
   162   81  204 1    
   163   82   83 2    
   164   82   84 am   BACKBONE|DICT|INTERRES
   165   84   85 1    
   166   84  205 1    
   167   85   86 1    
   168   85   87 1    
   169   85  206 1    
   170   86  207 1    
   171   86  208 1    
   172   86  209 1    
   173   87   88 2    
   174   87   89 am   BACKBONE|DICT|INTERRES
   175   89   90 1    
   176   89  210 1    
   177   90   91 1    
   178   90   92 1    
   179   90  211 1    
   180   91  212 1    
   181   91  213 1    
   182   91  214 1    
   183   92   93 2    
   184   92   94 am   BACKBONE|DICT|INTERRES
   185   94   95 1    
   186   94  215 1    
   187   95   96 1    
   188   95   97 1    
   189   95  216 1    
   190   96  217 1    
   191   96  218 1    
   192   96  219 1    
   193   97   98 2    
   194   97   99 am   BACKBONE|DICT|INTERRES
   195   99  100 1    
   196   99  220 1    
   197  100  101 1    
   198  100  102 1    
   199  100  221 1    
   200  101  222 1    
   201  101  223 1    
   202  101  224 1    
   203  102  103 2    
   204  102  104 am   BACKBONE|DICT|INTERRES
   205  104  105 1    
   206  104  225 1    
   207  105  106 1    
   208  105  107 1    
   209  105  226 1    
   210  106  227 1    
   211  106  228 1    
   212  106  229 1    
   213  107  108 2    
   214  107  109 am   BACKBONE|DICT|INTERRES
   215  109  110 1    
   216  109  230 1    
   217  110  111 1    
   218  110  112 1    
   219  110  231 1    
   220  111  232 1    
   221  111  233 1    
   222  111  234 1    
   223  112  113 2    
   224  112  114 am   BACKBONE|DICT|INTERRES
   225  114  115 1    
   226  114  235 1    
   227  115  116 1    
   228  115  117 1    
   229  115  236 1    
   230  116  237 1    
   231  116  238 1    
   232  116  239 1    
   233  117  118 2    
   234  117  119 am   BACKBONE|DICT|INTERRES
   235  119  120 1    
   236  119  240 1    
   237  120  121 1    
   238  120  124 1    
   239  120  241 1    
   240  121  122 am   BACKBONE|DICT|INTERRES
   241  121  123 2    
   242  122  242 1    
   243  122  243 1    
   244  124  125 1    
   245  124  244 1    
   246  124  245 1    
   247  125  126 1    
   248  126  246 1    
   249  126  247 1    
@<TRIPOS>SUBSTRUCTURE
     1 UNK         1 GROUP             0       ****    0 ROOT    
