@<TRIPOS>MOLECULE
3R540
247   249    1
SMALL
USER_CHARGES


@<TRIPOS>ATOM
      1 CA         -0.7519  -11.9761  -53.0952 C.3       0 UNK        -0.1800 
      2 C          -0.7804  -12.9044  -51.8892 C.2       0 UNK         0.5000 
      3 O          -1.6863  -13.7293  -51.7730 O.2       0 UNK        -0.5000 
      4 N           0.2039  -12.7605  -50.9906 N.am      1 UNK        -0.5000 
      5 CA          0.3609  -13.5283  -49.7481 C.3       1 UNK         0.1400 
      6 C6          0.6194  -15.0400  -50.0022 C.3       23 UNK        -0.0398 
      7 S7          1.5586  -15.8197  -48.6436 S.3       23 UNK        -0.2404 
      8 C8          0.4654  -17.2051  -48.2007 C.3       23 UNK        -0.0205 
      9 C9          0.6876  -18.4050  -49.1102 C.ar      23 UNK        -0.0193 
     10 C10        -0.2139  -18.6983  -50.1377 C.ar      23 UNK        -0.1150 
     11 C11        -0.0003  -19.8009  -50.9709 C.ar      23 UNK        -0.0193 
     12 C12         1.1178  -20.6152  -50.7669 C.ar      23 UNK        -0.1150 
     13 C13         2.0310  -20.3268  -49.7505 C.ar      23 UNK        -0.0193 
     14 C14         1.8050  -19.2242  -48.9222 C.ar      23 UNK        -0.1150 
     15 C15         3.2874  -21.1723  -49.5845 C.3       23 UNK        -0.0205 
     16 S16         2.9640  -22.7938  -48.8196 S.3       23 UNK        -0.2404 
     17 C17         2.5087  -22.3166  -47.1180 C.3       23 UNK        -0.0398 
     18 CA          1.2418  -23.0315  -46.5911 C.3       11 UNK         0.1400 
     19 N           1.0482  -22.7890  -45.1591 N.am      11 UNK        -0.5000 
     20 C           0.2217  -23.4865  -44.3673 C.2       10 UNK         0.5000 
     21 O          -0.4281  -24.4601  -44.7477 O.2       10 UNK        -0.5000 
     22 CA          0.0591  -22.9774  -42.9206 C.3       10 UNK         0.1400 
     23 CB          1.1843  -23.5121  -42.0231 C.3       10 UNK        -0.1800 
     24 N           0.0297  -21.5156  -42.8434 N.am      10 UNK        -0.5000 
     25 C          -0.9294  -20.7530  -43.3871 C.2       9 UNK         0.5000 
     26 O          -1.9399  -21.2098  -43.9182 O.2       9 UNK        -0.5000 
     27 CA         -0.6918  -19.2329  -43.4061 C.3       9 UNK         0.1400 
     28 CB         -1.2555  -18.5683  -42.1437 C.3       9 UNK        -0.1800 
     29 N           0.7223  -18.8856  -43.5736 N.am      9 UNK        -0.5000 
     30 C           1.4369  -19.1474  -44.6776 C.2       8 UNK         0.5000 
     31 O           0.9501  -19.6656  -45.6795 O.2       8 UNK        -0.5000 
     32 CA          2.9467  -18.8475  -44.6501 C.3       8 UNK         0.1400 
     33 CB          3.2989  -17.5428  -45.3788 C.3       8 UNK        -0.1800 
     34 N           3.4710  -18.8112  -43.2855 N.am      8 UNK        -0.5000 
     35 C           3.8283  -19.9098  -42.6076 C.2       7 UNK         0.5000 
     36 O           3.7863  -21.0469  -43.0790 O.2       7 UNK        -0.5000 
     37 CA          4.2731  -19.7065  -41.1488 C.3       7 UNK         0.1400 
     38 CB          5.7013  -19.1432  -41.0877 C.3       7 UNK        -0.1800 
     39 N           3.3747  -18.8413  -40.3792 N.am      7 UNK        -0.5000 
     40 C           2.0926  -19.1290  -40.1063 C.2       6 UNK         0.5000 
     41 O           1.5064  -20.1178  -40.5475 O.2       6 UNK        -0.5000 
     42 CA          1.3353  -18.1387  -39.2093 C.3       6 UNK         0.1400 
     43 CB          1.7927  -18.2516  -37.7458 C.3       6 UNK        -0.1800 
     44 N           1.5245  -16.7692  -39.6835 N.am      6 UNK        -0.5000 
     45 C           0.5488  -15.8718  -39.8665 C.2       5 UNK         0.5000 
     46 O          -0.6369  -16.0799  -39.6051 O.2       5 UNK        -0.5000 
     47 CA          0.9559  -14.5031  -40.4538 C.3       5 UNK         0.1400 
     48 CB          2.4502  -14.1579  -40.2596 C.3       5 UNK        -0.1800 
     49 N           0.5832  -14.3770  -41.8665 N.am      5 UNK        -0.5000 
     50 C           0.9604  -15.1767  -42.8758 C.2       4 UNK         0.5000 
     51 O           1.6799  -16.1662  -42.7289 O.2       4 UNK        -0.5000 
     52 CA          0.4585  -14.8104  -44.2888 C.3       4 UNK         0.1400 
     53 CB         -0.7372  -15.6831  -44.6920 C.3       4 UNK        -0.1800 
     54 N           0.0778  -13.4051  -44.4374 N.am      4 UNK        -0.5000 
     55 C           0.9398  -12.3850  -44.5248 C.2       3 UNK         0.5000 
     56 O           2.1604  -12.5140  -44.4177 O.2       3 UNK        -0.5000 
     57 CA          0.3228  -11.0059  -44.8340 C.3       3 UNK         0.1400 
     58 CB          1.3731   -9.8821  -44.8956 C.3       3 UNK        -0.1800 
     59 N          -0.4009  -11.0429  -46.1058 N.am      3 UNK        -0.5000 
     60 C          -1.6713  -11.4371  -46.2677 C.2       2 UNK         0.5000 
     61 O          -2.3966  -11.7938  -45.3385 O.2       2 UNK        -0.5000 
     62 CA         -2.1990  -11.4788  -47.7142 C.3       2 UNK         0.1400 
     63 CB         -2.6871  -10.0908  -48.1562 C.3       2 UNK        -0.1800 
     64 N          -1.1889  -11.9620  -48.6590 N.am      2 UNK        -0.5000 
     65 C          -0.7741  -13.2360  -48.7348 C.2       1 UNK         0.5000 
     66 O          -1.2544  -14.1396  -48.0501 O.2       1 UNK        -0.5000 
     67 C          -0.0321  -22.6835  -47.3927 C.2       11 UNK         0.5000 
     68 O          -0.4489  -23.4766  -48.2367 O.2       11 UNK        -0.5000 
     69 N          -0.6689  -21.5482  -47.0690 N.am      12 UNK        -0.5000 
     70 CA         -1.9536  -21.1323  -47.6329 C.3       12 UNK         0.1400 
     71 CB         -2.3322  -19.7372  -47.1159 C.3       12 UNK        -0.1800 
     72 C          -3.0770  -22.1411  -47.3370 C.2       12 UNK         0.5000 
     73 O          -3.8245  -22.4930  -48.2482 O.2       12 UNK        -0.5000 
     74 N          -3.1522  -22.6216  -46.0878 N.am      13 UNK        -0.5000 
     75 CA         -4.0866  -23.6569  -45.6434 C.3       13 UNK         0.1400 
     76 CB         -3.9783  -23.8397  -44.1227 C.3       13 UNK        -0.1800 
     77 C          -3.8856  -24.9964  -46.3750 C.2       13 UNK         0.5000 
     78 O          -4.8693  -25.5979  -46.8078 O.2       13 UNK        -0.5000 
     79 N          -2.6211  -25.4087  -46.5531 N.am      14 UNK        -0.5000 
     80 CA         -2.2305  -26.5853  -47.3368 C.3       14 UNK         0.1400 
     81 CB         -0.7297  -26.8542  -47.1521 C.3       14 UNK        -0.1800 
     82 C          -2.5878  -26.4612  -48.8323 C.2       14 UNK         0.5000 
     83 O          -2.9326  -27.4625  -49.4596 O.2       14 UNK        -0.5000 
     84 N          -2.5654  -25.2293  -49.3572 N.am      15 UNK        -0.5000 
     85 CA         -3.0208  -24.8490  -50.6956 C.3       15 UNK         0.1400 
     86 CB         -2.2130  -23.6261  -51.1640 C.3       15 UNK        -0.1800 
     87 C          -4.5450  -24.5939  -50.7669 C.2       15 UNK         0.5000 
     88 O          -4.9901  -23.8347  -51.6296 O.2       15 UNK        -0.5000 
     89 N          -5.3163  -25.2198  -49.8643 N.am      16 UNK        -0.5000 
     90 CA         -6.7786  -25.1995  -49.7571 C.3       16 UNK         0.1400 
     91 CB         -7.4211  -25.9173  -50.9618 C.3       16 UNK        -0.1800 
     92 C          -7.3466  -23.7877  -49.5098 C.2       16 UNK         0.5000 
     93 O          -8.3065  -23.3800  -50.1653 O.2       16 UNK        -0.5000 
     94 N          -6.7232  -23.0736  -48.5618 N.am      17 UNK        -0.5000 
     95 CA         -6.9832  -21.6799  -48.1823 C.3       17 UNK         0.1400 
     96 CB         -8.4031  -21.5067  -47.6030 C.3       17 UNK        -0.1800 
     97 C          -6.6604  -20.7090  -49.3363 C.2       17 UNK         0.5000 
     98 O          -7.4584  -19.8252  -49.6534 O.2       17 UNK        -0.5000 
     99 N          -5.4802  -20.9187  -49.9370 N.am      18 UNK        -0.5000 
    100 CA        -4.9148  -20.2110  -51.0864 C.3       18 UNK         0.1400 
    101 CB        -4.5072  -18.7745  -50.6986 C.3       18 UNK        -0.1800 
    102 C         -5.8248  -20.2768  -52.3298 C.2       18 UNK         0.5000 
    103 O         -6.1651  -19.2451  -52.9116 O.2       18 UNK        -0.5000 
    104 N         -6.2036  -21.5037  -52.7134 N.am      19 UNK        -0.5000 
    105 CA        -6.9352  -21.7893  -53.9496 C.3       19 UNK         0.1400 
    106 CB        -7.5628  -23.1875  -53.8572 C.3       19 UNK        -0.1800 
    107 C         -6.0277  -21.6870  -55.1910 C.2       19 UNK         0.5000 
    108 O         -6.5161  -21.3872  -56.2815 O.2       19 UNK        -0.5000 
    109 N         -4.7234  -21.9270  -54.9973 N.am      20 UNK        -0.5000 
    110 CA        -3.6675  -21.7024  -55.9815 C.3       20 UNK         0.1400 
    111 CB        -2.3796  -22.3697  -55.4749 C.3       20 UNK        -0.1800 
    112 C         -3.4403  -20.1989  -56.2346 C.2       20 UNK         0.5000 
    113 O         -3.6942  -19.3764  -55.3502 O.2       20 UNK        -0.5000 
    114 N         -2.9395  -19.8665  -57.4309 N.am      21 UNK        -0.5000 
    115 CA        -2.6737  -18.5028  -57.9000 C.3       21 UNK         0.1400 
    116 CB        -2.6256  -18.5147  -59.4389 C.3       21 UNK        -0.1800 
    117 C         -1.4024  -17.8903  -57.2694 C.2       21 UNK         0.5000 
    118 O         -0.4579  -17.5414  -57.9804 O.2       21 UNK        -0.5000 
    119 N         -1.3998  -17.7874  -55.9375 N.am      22 UNK        -0.5000 
    120 CA        -0.2944  -17.2649  -55.1162 C.3       22 UNK         0.1400 
    121 C         -0.2038  -15.7109  -55.0652 C.2       22 UNK         0.5000 
    122 N         -1.1468  -14.9682  -55.6328 N.am      22 UNK        -0.7600 
    123 O          0.7501  -15.1683  -54.5145 O.2       22 UNK        -0.5000 
    124 C124       -0.3110  -17.8716  -53.6897 C.3       23 UNK        -0.0398 
    125 S125       -0.2425  -19.6957  -53.7212 S.3       23 UNK        -0.2404 
    126 C126       -0.9626  -20.1115  -52.1049 C.3       23 UNK        -0.0205 
    127 H127       -0.4999  -12.5380  -53.9937 H         1 UNK         0.0600 
    128 H128       -0.0176  -11.1793  -52.9755 H         1 UNK         0.0600 
    129 H129       -1.7295  -11.5162  -53.2404 H         1 UNK         0.0600 
    130 H130        0.9175  -12.0647  -51.1594 H         1 UNK         0.3000 
    131 H131        1.2626  -13.1181  -49.2907 H         1 UNK         0.0600 
    132 H132       -0.3147  -15.5713  -50.1901 H         1 UNK         0.0800 
    133 H133        1.2156  -15.1682  -50.9067 H         1 UNK         0.0800 
    134 H134        0.6618  -17.4917  -47.1686 H         1 UNK         0.0800 
    135 H135       -0.5762  -16.8812  -48.2232 H         1 UNK         0.0800 
    136 H136       -1.0759  -18.0652  -50.2928 H         1 UNK         0.1150 
    137 H137        1.2891  -21.4626  -51.4159 H         1 UNK         0.1150 
    138 H138        2.5084  -18.9923  -48.1367 H         1 UNK         0.1150 
    139 H139        3.7369  -21.3341  -50.5652 H         1 UNK         0.0800 
    140 H140        4.0359  -20.6398  -48.9955 H         1 UNK         0.0800 
    141 H141        2.3940  -21.2366  -47.0557 H         1 UNK         0.0800 
    142 H142        3.3578  -22.5599  -46.4780 H         1 UNK         0.0800 
    143 H143        1.4056  -24.1050  -46.7084 H         1 UNK         0.0600 
    144 H144        1.5150  -21.9833  -44.7696 H         1 UNK         0.3000 
    145 H145       -0.8914  -23.3548  -42.5382 H         1 UNK         0.0600 
    146 H146        1.0449  -23.1986  -40.9882 H         1 UNK         0.0600 
    147 H147        1.2070  -24.6025  -42.0338 H         1 UNK         0.0600 
    148 H148        2.1631  -23.1592  -42.3495 H         1 UNK         0.0600 
    149 H149        0.7967  -21.0618  -42.3604 H         1 UNK         0.3000 
    150 H150       -1.2351  -18.8325  -44.2631 H         1 UNK         0.0600 
    151 H151       -2.3343  -18.7146  -42.0798 H         1 UNK         0.0600 
    152 H152       -1.0730  -17.4941  -42.1421 H         1 UNK         0.0600 
    153 H153       -0.8197  -18.9866  -41.2385 H         1 UNK         0.0600 
    154 H154        1.1791  -18.4132  -42.8059 H         1 UNK         0.3000 
    155 H155        3.4366  -19.6554  -45.1979 H         1 UNK         0.0600 
    156 H156        2.9207  -17.5454  -46.3995 H         1 UNK         0.0600 
    157 H157        2.8895  -16.6675  -44.8824 H         1 UNK         0.0600 
    158 H158        4.3792  -17.4110  -45.4390 H         1 UNK         0.0600 
    159 H159        3.4870  -17.9107  -42.8257 H         1 UNK         0.3000 
    160 H160        4.2776  -20.6878  -40.6692 H         1 UNK         0.0600 
    161 H161        5.7593  -18.1393  -41.5102 H         1 UNK         0.0600 
    162 H162        6.3942  -19.7746  -41.6456 H         1 UNK         0.0600 
    163 H163        6.0630  -19.0964  -40.0604 H         1 UNK         0.0600 
    164 H164        3.7974  -18.0292  -39.9571 H         1 UNK         0.3000 
    165 H165        0.2791  -18.4107  -39.2510 H         1 UNK         0.0600 
    166 H166        1.1965  -17.6072  -37.0995 H         1 UNK         0.0600 
    167 H167        1.6805  -19.2727  -37.3790 H         1 UNK         0.0600 
    168 H168        2.8390  -17.9697  -37.6233 H         1 UNK         0.0600 
    169 H169        2.4504  -16.5166  -39.9941 H         1 UNK         0.3000 
    170 H170        0.3760  -13.7549  -39.9114 H         1 UNK         0.0600 
    171 H171        3.1089  -14.8133  -40.8300 H         1 UNK         0.0600 
    172 H172        2.6539  -13.1357  -40.5791 H         1 UNK         0.0600 
    173 H173        2.7367  -14.2277  -39.2094 H         1 UNK         0.0600 
    174 H174       -0.0354  -13.6108  -42.0890 H         1 UNK         0.3000 
    175 H175        1.2690  -15.0092  -44.9922 H         1 UNK         0.0600 
    176 H176       -1.1342  -15.3894  -45.6634 H         1 UNK         0.0600 
    177 H177       -1.5481  -15.6251  -43.9651 H         1 UNK         0.0600 
    178 H178       -0.4375  -16.7241  -44.7800 H         1 UNK         0.0600 
    179 H179       -0.9072  -13.2072  -44.5682 H         1 UNK         0.3000 
    180 H180       -0.3706  -10.7677  -44.0246 H         1 UNK         0.0600 
    181 H181        2.1032  -10.0533  -45.6876 H         1 UNK         0.0600 
    182 H182        1.9192   -9.8053  -43.9545 H         1 UNK         0.0600 
    183 H183        0.9037   -8.9149  -45.0764 H         1 UNK         0.0600 
    184 H184        0.1333  -10.8085  -46.9293 H         1 UNK         0.3000 
    185 H185       -3.0509  -12.1619  -47.7397 H         1 UNK         0.0600 
    186 H186       -3.4552   -9.7143  -47.4793 H         1 UNK         0.0600 
    187 H187       -1.8761   -9.3616  -48.1705 H         1 UNK         0.0600 
    188 H188       -3.1243  -10.1266  -49.1542 H         1 UNK         0.0600 
    189 H189       -0.7741  -11.2793  -49.2763 H         1 UNK         0.3000 
    190 H190       -0.2243  -20.9105  -46.4137 H         1 UNK         0.3000 
    191 H191       -1.8307  -21.0717  -48.7161 H         1 UNK         0.0600 
    192 H192       -1.5375  -19.0169  -47.2999 H         1 UNK         0.0600 
    193 H193       -3.2303  -19.3698  -47.6125 H         1 UNK         0.0600 
    194 H194       -2.5352  -19.7417  -46.0461 H         1 UNK         0.0600 
    195 H195       -2.5375  -22.2311  -45.3776 H         1 UNK         0.3000 
    196 H196       -5.0960  -23.3064  -45.8672 H         1 UNK         0.0600 
    197 H197       -4.6847  -24.5913  -43.7681 H         1 UNK         0.0600 
    198 H198       -4.2014  -22.9106  -43.5979 H         1 UNK         0.0600 
    199 H199       -2.9803  -24.1600  -43.8242 H         1 UNK         0.0600 
    200 H200       -1.8683  -24.8761  -46.1290 H         1 UNK         0.3000 
    201 H201       -2.7781  -27.4423  -46.9395 H         1 UNK         0.0600 
    202 H202       -0.4827  -27.0065  -46.1013 H         1 UNK         0.0600 
    203 H203       -0.1225  -26.0281  -47.5217 H         1 UNK         0.0600 
    204 H204       -0.4249  -27.7517  -47.6916 H         1 UNK         0.0600 
    205 H205       -2.2215  -24.4719  -48.7766 H         1 UNK         0.3000 
    206 H206       -2.8077  -25.6686  -51.3843 H         1 UNK         0.0600 
    207 H207       -1.1409  -23.8180  -51.1138 H         1 UNK         0.0600 
    208 H208       -2.4469  -23.3709  -52.1981 H         1 UNK         0.0600 
    209 H209       -2.4216  -22.7497  -50.5507 H         1 UNK         0.0600 
    210 H210       -4.8464  -25.7713  -49.1588 H         1 UNK         0.3000 
    211 H211       -7.0240  -25.7795  -48.8663 H         1 UNK         0.0600 
    212 H212       -7.2284  -25.3927  -51.8965 H         1 UNK         0.0600 
    213 H213       -8.5028  -25.9901  -50.8439 H         1 UNK         0.0600 
    214 H214       -7.0379  -26.9325  -51.0640 H         1 UNK         0.0600 
    215 H215       -5.8937  -23.4825  -48.1510 H         1 UNK         0.3000 
    216 H216       -6.2795  -21.4444  -47.3828 H         1 UNK         0.0600 
    217 H217       -8.5369  -20.5023  -47.1998 H         1 UNK         0.0600 
    218 H218       -8.5852  -22.2094  -46.7900 H         1 UNK         0.0600 
    219 H219       -9.1752  -21.6581  -48.3575 H         1 UNK         0.0600 
    220 H220       -4.9054  -21.6667  -49.5573 H         1 UNK         0.3000 
    221 H221       -4.0038  -20.7484  -51.3525 H         1 UNK         0.0600 
    222 H222       -5.3665  -18.1775  -50.3922 H         1 UNK         0.0600 
    223 H223       -3.7892  -18.7766  -49.8794 H         1 UNK         0.0600 
    224 H224       -4.0362  -18.2615  -51.5379 H         1 UNK         0.0600 
    225 H225       -5.8790  -22.3118  -52.1850 H         1 UNK         0.3000 
    226 H226       -7.7401  -21.0594  -54.0577 H         1 UNK         0.0600 
    227 H227       -8.2169  -23.2699  -52.9891 H         1 UNK         0.0600 
    228 H228       -8.1643  -23.4043  -54.7406 H         1 UNK         0.0600 
    229 H229       -6.8006  -23.9636  -53.7807 H         1 UNK         0.0600 
    230 H230       -4.4252  -22.1536  -54.0608 H         1 UNK         0.3000 
    231 H231       -3.9638  -22.1743  -56.9206 H         1 UNK         0.0600 
    232 H232       -2.0745  -21.9698  -54.5077 H         1 UNK         0.0600 
    233 H233       -1.5535  -22.2134  -56.1697 H         1 UNK         0.0600 
    234 H234       -2.5111  -23.4462  -55.3636 H         1 UNK         0.0600 
    235 H235       -2.7167  -20.6046  -58.0829 H         1 UNK         0.3000 
    236 H236       -3.5117  -17.8679  -57.6045 H         1 UNK         0.0600 
    237 H237       -3.5609  -18.8845  -59.8597 H         1 UNK         0.0600 
    238 H238       -2.4702  -17.5099  -59.8340 H         1 UNK         0.0600 
    239 H239       -1.8172  -19.1445  -59.8125 H         1 UNK         0.0600 
    240 H240       -2.2047  -18.1534  -55.4369 H         1 UNK         0.3000 
    241 H241        0.6370  -17.5877  -55.5853 H         1 UNK         0.0600 
    242 H242       -1.9327  -15.4027  -56.0883 H         1 UNK         0.3800 
    243 H243       -1.0722  -13.9644  -55.6096 H         1 UNK         0.3800 
    244 H244       -1.2077  -17.5520  -53.1563 H         1 UNK         0.0800 
    245 H245        0.5398  -17.5161  -53.1053 H         1 UNK         0.0800 
    246 H246       -1.1978  -21.1748  -52.0933 H         1 UNK         0.0800 
    247 H247       -1.9077  -19.5840  -51.9768 H         1 UNK         0.0800 
@<TRIPOS>BOND
     1    1    2 1    
     2    1  127 1    
     3    1  128 1    
     4    1  129 1    
     5    2    3 2    
     6    2    4 am   BACKBONE|DICT|INTERRES
     7    4    5 1    
     8    4  130 1    
     9    5    6 1    
    10    5   65 1    
    11    5  131 1    
    12    6    7 1    
    13    6  132 1    
    14    6  133 1    
    15    7    8 1    
    16    8    9 1    
    17    8  134 1    
    18    8  135 1    
    19    9   10 ar   
    20    9   14 ar   
    21   10   11 ar   
    22   10  136 1    
    23   11   12 ar   
    24   11  126 1    
    25   12   13 ar   
    26   12  137 1    
    27   13   14 ar   
    28   13   15 1    
    29   14  138 1    
    30   15   16 1    
    31   15  139 1    
    32   15  140 1    
    33   16   17 1    
    34   17   18 1    
    35   17  141 1    
    36   17  142 1    
    37   18   19 1    
    38   18   67 1    
    39   18  143 1    
    40   19   20 am   BACKBONE|DICT|INTERRES
    41   19  144 1    
    42   20   21 2    
    43   20   22 1    
    44   22   23 1    
    45   22   24 1    
    46   22  145 1    
    47   23  146 1    
    48   23  147 1    
    49   23  148 1    
    50   24   25 am   BACKBONE|DICT|INTERRES
    51   24  149 1    
    52   25   26 2    
    53   25   27 1    
    54   27   28 1    
    55   27   29 1    
    56   27  150 1    
    57   28  151 1    
    58   28  152 1    
    59   28  153 1    
    60   29   30 am   BACKBONE|DICT|INTERRES
    61   29  154 1    
    62   30   31 2    
    63   30   32 1    
    64   32   33 1    
    65   32   34 1    
    66   32  155 1    
    67   33  156 1    
    68   33  157 1    
    69   33  158 1    
    70   34   35 am   BACKBONE|DICT|INTERRES
    71   34  159 1    
    72   35   36 2    
    73   35   37 1    
    74   37   38 1    
    75   37   39 1    
    76   37  160 1    
    77   38  161 1    
    78   38  162 1    
    79   38  163 1    
    80   39   40 am   BACKBONE|DICT|INTERRES
    81   39  164 1    
    82   40   41 2    
    83   40   42 1    
    84   42   43 1    
    85   42   44 1    
    86   42  165 1    
    87   43  166 1    
    88   43  167 1    
    89   43  168 1    
    90   44   45 am   BACKBONE|DICT|INTERRES
    91   44  169 1    
    92   45   46 2    
    93   45   47 1    
    94   47   48 1    
    95   47   49 1    
    96   47  170 1    
    97   48  171 1    
    98   48  172 1    
    99   48  173 1    
   100   49   50 am   BACKBONE|DICT|INTERRES
   101   49  174 1    
   102   50   51 2    
   103   50   52 1    
   104   52   53 1    
   105   52   54 1    
   106   52  175 1    
   107   53  176 1    
   108   53  177 1    
   109   53  178 1    
   110   54   55 am   BACKBONE|DICT|INTERRES
   111   54  179 1    
   112   55   56 2    
   113   55   57 1    
   114   57   58 1    
   115   57   59 1    
   116   57  180 1    
   117   58  181 1    
   118   58  182 1    
   119   58  183 1    
   120   59   60 am   BACKBONE|DICT|INTERRES
   121   59  184 1    
   122   60   61 2    
   123   60   62 1    
   124   62   63 1    
   125   62   64 1    
   126   62  185 1    
   127   63  186 1    
   128   63  187 1    
   129   63  188 1    
   130   64   65 am   BACKBONE|DICT|INTERRES
   131   64  189 1    
   132   65   66 2    
   133   67   68 2    
   134   67   69 am   BACKBONE|DICT|INTERRES
   135   69   70 1    
   136   69  190 1    
   137   70   71 1    
   138   70   72 1    
   139   70  191 1    
   140   71  192 1    
   141   71  193 1    
   142   71  194 1    
   143   72   73 2    
   144   72   74 am   BACKBONE|DICT|INTERRES
   145   74   75 1    
   146   74  195 1    
   147   75   76 1    
   148   75   77 1    
   149   75  196 1    
   150   76  197 1    
   151   76  198 1    
   152   76  199 1    
   153   77   78 2    
   154   77   79 am   BACKBONE|DICT|INTERRES
   155   79   80 1    
   156   79  200 1    
   157   80   81 1    
   158   80   82 1    
   159   80  201 1    
   160   81  202 1    
   161   81  203 1    
   162   81  204 1    
   163   82   83 2    
   164   82   84 am   BACKBONE|DICT|INTERRES
   165   84   85 1    
   166   84  205 1    
   167   85   86 1    
   168   85   87 1    
   169   85  206 1    
   170   86  207 1    
   171   86  208 1    
   172   86  209 1    
   173   87   88 2    
   174   87   89 am   BACKBONE|DICT|INTERRES
   175   89   90 1    
   176   89  210 1    
   177   90   91 1    
   178   90   92 1    
   179   90  211 1    
   180   91  212 1    
   181   91  213 1    
   182   91  214 1    
   183   92   93 2    
   184   92   94 am   BACKBONE|DICT|INTERRES
   185   94   95 1    
   186   94  215 1    
   187   95   96 1    
   188   95   97 1    
   189   95  216 1    
   190   96  217 1    
   191   96  218 1    
   192   96  219 1    
   193   97   98 2    
   194   97   99 am   BACKBONE|DICT|INTERRES
   195   99  100 1    
   196   99  220 1    
   197  100  101 1    
   198  100  102 1    
   199  100  221 1    
   200  101  222 1    
   201  101  223 1    
   202  101  224 1    
   203  102  103 2    
   204  102  104 am   BACKBONE|DICT|INTERRES
   205  104  105 1    
   206  104  225 1    
   207  105  106 1    
   208  105  107 1    
   209  105  226 1    
   210  106  227 1    
   211  106  228 1    
   212  106  229 1    
   213  107  108 2    
   214  107  109 am   BACKBONE|DICT|INTERRES
   215  109  110 1    
   216  109  230 1    
   217  110  111 1    
   218  110  112 1    
   219  110  231 1    
   220  111  232 1    
   221  111  233 1    
   222  111  234 1    
   223  112  113 2    
   224  112  114 am   BACKBONE|DICT|INTERRES
   225  114  115 1    
   226  114  235 1    
   227  115  116 1    
   228  115  117 1    
   229  115  236 1    
   230  116  237 1    
   231  116  238 1    
   232  116  239 1    
   233  117  118 2    
   234  117  119 am   BACKBONE|DICT|INTERRES
   235  119  120 1    
   236  119  240 1    
   237  120  121 1    
   238  120  124 1    
   239  120  241 1    
   240  121  122 am   BACKBONE|DICT|INTERRES
   241  121  123 2    
   242  122  242 1    
   243  122  243 1    
   244  124  125 1    
   245  124  244 1    
   246  124  245 1    
   247  125  126 1    
   248  126  246 1    
   249  126  247 1    
@<TRIPOS>SUBSTRUCTURE
     1 UNK         1 GROUP             0       ****    0 ROOT    
