@<TRIPOS>MOLECULE
3R540
247   249    1
SMALL
USER_CHARGES


@<TRIPOS>ATOM
      1 CA         -3.2563  -13.0811  -51.1155 C.3       0 UNK        -0.1800 
      2 C          -2.8757  -13.6039  -49.7384 C.2       0 UNK         0.5000 
      3 O          -1.7237  -13.9794  -49.5240 O.2       0 UNK        -0.5000 
      4 N          -3.8341  -13.6108  -48.8028 N.am      1 UNK        -0.5000 
      5 CA         -3.7082  -14.1430  -47.4373 C.3       1 UNK         0.1400 
      6 C6         -5.0377  -14.0470  -46.6400 C.3       23 UNK        -0.0398 
      7 S7         -6.5191  -14.5554  -47.5823 S.3       23 UNK        -0.2404 
      8 C8         -6.9651  -16.1340  -46.7933 C.3       23 UNK        -0.0205 
      9 C9         -6.0013  -17.2558  -47.1498 C.ar      23 UNK        -0.0193 
     10 C10        -5.8335  -17.6387  -48.4843 C.ar      23 UNK        -0.1150 
     11 C11        -4.9751  -18.6883  -48.8189 C.ar      23 UNK        -0.0193 
     12 C12        -4.2822  -19.3578  -47.8087 C.ar      23 UNK        -0.1150 
     13 C13        -4.4479  -18.9922  -46.4720 C.ar      23 UNK        -0.0193 
     14 C14        -5.3043  -17.9362  -46.1464 C.ar      23 UNK        -0.1150 
     15 C15        -3.6831  -19.7306  -45.3891 C.3       23 UNK        -0.0205 
     16 S16        -4.4850  -21.2937  -44.9255 S.3       23 UNK        -0.2404 
     17 C17        -3.4220  -21.8364  -43.5406 C.3       23 UNK        -0.0398 
     18 CA         -2.2438  -22.7536  -43.9779 C.3       11 UNK         0.1400 
     19 N          -1.0734  -22.6114  -43.0959 N.am      11 UNK        -0.5000 
     20 C          -0.9920  -22.9902  -41.8088 C.2       10 UNK         0.5000 
     21 O          -1.9286  -23.4777  -41.1760 O.2       10 UNK        -0.5000 
     22 CA          0.3669  -22.7976  -41.1166 C.3       10 UNK         0.1400 
     23 CB          1.4500  -23.6741  -41.7687 C.3       10 UNK        -0.1800 
     24 N           0.7708  -21.3962  -41.1806 N.am      10 UNK        -0.5000 
     25 C           0.7462  -20.5391  -40.1492 C.2       9 UNK         0.5000 
     26 O           0.4759  -20.8652  -38.9926 O.2       9 UNK        -0.5000 
     27 CA          1.0570  -19.0575  -40.4579 C.3       9 UNK         0.1400 
     28 CB          2.5398  -18.7523  -40.1977 C.3       9 UNK        -0.1800 
     29 N           0.7320  -18.6763  -41.8321 N.am      9 UNK        -0.5000 
     30 C          -0.4927  -18.7153  -42.3728 C.2       8 UNK         0.5000 
     31 O          -1.5195  -18.9202  -41.7254 O.2       8 UNK        -0.5000 
     32 CA         -0.5883  -18.5730  -43.9011 C.3       8 UNK         0.1400 
     33 CB         -1.1980  -17.2232  -44.3041 C.3       8 UNK        -0.1800 
     34 N           0.6723  -18.7775  -44.6161 N.am      8 UNK        -0.5000 
     35 C           1.3392  -19.9380  -44.6930 C.2       7 UNK         0.5000 
     36 O           0.9753  -20.9734  -44.1335 O.2       7 UNK        -0.5000 
     37 CA          2.6437  -19.9288  -45.5016 C.3       7 UNK         0.1400 
     38 CB          2.3451  -20.0844  -46.9980 C.3       7 UNK        -0.1800 
     39 N           3.3913  -18.6926  -45.2781 N.am      7 UNK        -0.5000 
     40 C           4.2381  -18.4972  -44.2585 C.2       6 UNK         0.5000 
     41 O           4.5316  -19.3664  -43.4375 O.2       6 UNK        -0.5000 
     42 CA          4.8493  -17.0891  -44.1199 C.3       6 UNK         0.1400 
     43 CB          6.1602  -16.9906  -44.9143 C.3       6 UNK        -0.1800 
     44 N           3.9456  -16.0208  -44.5515 N.am      6 UNK        -0.5000 
     45 C           2.8086  -15.6877  -43.9250 C.2       5 UNK         0.5000 
     46 O           2.4075  -16.2369  -42.8990 O.2       5 UNK        -0.5000 
     47 CA          1.9610  -14.5736  -44.5704 C.3       5 UNK         0.1400 
     48 CB          2.4028  -13.2016  -44.0412 C.3       5 UNK        -0.1800 
     49 N           1.9725  -14.5555  -46.0387 N.am      5 UNK        -0.5000 
     50 C           1.6642  -15.5845  -46.8429 C.2       4 UNK         0.5000 
     51 O           1.4303  -16.7189  -46.4233 O.2       4 UNK        -0.5000 
     52 CA          1.6187  -15.3091  -48.3607 C.3       4 UNK         0.1400 
     53 CB          0.7779  -16.3540  -49.1109 C.3       4 UNK        -0.1800 
     54 N           1.0781  -13.9861  -48.6622 N.am      4 UNK        -0.5000 
     55 C           1.7927  -12.8646  -48.8100 C.2       3 UNK         0.5000 
     56 O           3.0176  -12.8122  -48.7006 O.2       3 UNK        -0.5000 
     57 CA          0.9891  -11.5796  -49.0682 C.3       3 UNK         0.1400 
     58 CB          0.5698  -11.4775  -50.5432 C.3       3 UNK        -0.1800 
     59 N          -0.1955  -11.5195  -48.2105 N.am      3 UNK        -0.5000 
     60 C          -0.1603  -11.2188  -46.9046 C.2       2 UNK         0.5000 
     61 O           0.8681  -10.8903  -46.3136 O.2       2 UNK        -0.5000 
     62 CA         -1.4849  -11.2855  -46.1225 C.3       2 UNK         0.1400 
     63 CB         -2.0669   -9.8757  -45.9369 C.3       2 UNK        -0.1800 
     64 N          -2.4889  -12.1271  -46.7739 N.am      2 UNK        -0.5000 
     65 C          -2.5773  -13.4581  -46.6378 C.2       1 UNK         0.5000 
     66 O          -1.8190  -14.1304  -45.9394 O.2       1 UNK        -0.5000 
     67 C          -2.6526  -24.2377  -44.1900 C.2       11 UNK         0.5000 
     68 O          -3.8284  -24.5404  -44.3964 O.2       11 UNK        -0.5000 
     69 N          -1.6694  -25.1478  -44.1103 N.am      12 UNK        -0.5000 
     70 CA         -1.8695  -26.6002  -44.0906 C.3       12 UNK         0.1400 
     71 CB         -0.5858  -27.2659  -43.5706 C.3       12 UNK        -0.1800 
     72 C          -2.2729  -27.2019  -45.4500 C.2       12 UNK         0.5000 
     73 O          -2.9282  -28.2444  -45.4807 O.2       12 UNK        -0.5000 
     74 N          -1.8730  -26.5432  -46.5419 N.am      13 UNK        -0.5000 
     75 CA         -2.1419  -26.9447  -47.9191 C.3       13 UNK         0.1400 
     76 CB         -1.0606  -27.9323  -48.4004 C.3       13 UNK        -0.1800 
     77 C          -2.2168  -25.6718  -48.7691 C.2       13 UNK         0.5000 
     78 O          -1.3849  -25.4723  -49.6534 O.2       13 UNK        -0.5000 
     79 N          -3.1813  -24.8052  -48.4310 N.am      14 UNK        -0.5000 
     80 CA         -3.3616  -23.4263  -48.9017 C.3       14 UNK         0.1400 
     81 CB         -4.7675  -22.9583  -48.5001 C.3       14 UNK        -0.1800 
     82 C          -3.1279  -23.1806  -50.4050 C.2       14 UNK         0.5000 
     83 O          -2.4173  -22.2406  -50.7592 O.2       14 UNK        -0.5000 
     84 N          -3.6895  -24.0468  -51.2571 N.am      15 UNK        -0.5000 
     85 CA         -3.5776  -23.9676  -52.7162 C.3       15 UNK         0.1400 
     86 CB         -4.5750  -24.9514  -53.3450 C.3       15 UNK        -0.1800 
     87 C          -2.1579  -24.2102  -53.2659 C.2       15 UNK         0.5000 
     88 O          -1.8550  -23.7342  -54.3602 O.2       15 UNK        -0.5000 
     89 N          -1.3238  -24.9400  -52.5158 N.am      16 UNK        -0.5000 
     90 CA          0.0494  -25.2735  -52.8881 C.3       16 UNK         0.1400 
     91 CB          0.2857  -26.7710  -52.6320 C.3       16 UNK        -0.1800 
     92 C           1.0639  -24.4296  -52.1018 C.2       16 UNK         0.5000 
     93 O           2.0310  -23.9427  -52.6881 O.2       16 UNK        -0.5000 
     94 N           0.8388  -24.2920  -50.7888 N.am      17 UNK        -0.5000 
     95 CA          1.7353  -23.6203  -49.8528 C.3       17 UNK         0.1400 
     96 CB          1.3625  -24.0181  -48.4139 C.3       17 UNK        -0.1800 
     97 C           1.7190  -22.0943  -50.0187 C.2       17 UNK         0.5000 
     98 O           2.7834  -21.4876  -50.1424 O.2       17 UNK        -0.5000 
     99 N           0.5155  -21.5078  -50.0030 N.am      18 UNK        -0.5000 
    100 CA         0.3121  -20.0660  -50.1204 C.3       18 UNK         0.1400 
    101 CB        -0.8362  -19.6309  -49.1945 C.3       18 UNK        -0.1800 
    102 C          0.0383  -19.6638  -51.5755 C.2       18 UNK         0.5000 
    103 O          0.6353  -18.6996  -52.0555 O.2       18 UNK        -0.5000 
    104 N         -0.8455  -20.4202  -52.2451 N.am      19 UNK        -0.5000 
    105 CA        -1.3579  -20.1848  -53.5966 C.3       19 UNK         0.1400 
    106 CB        -0.2562  -20.4266  -54.6515 C.3       19 UNK        -0.1800 
    107 C         -2.0476  -18.8072  -53.6823 C.2       19 UNK         0.5000 
    108 O         -2.9094  -18.5317  -52.8454 O.2       19 UNK        -0.5000 
    109 N         -1.6689  -17.9717  -54.6620 N.am      20 UNK        -0.5000 
    110 CA        -2.1395  -16.5985  -54.8796 C.3       20 UNK         0.1400 
    111 CB        -1.5740  -15.6628  -53.7862 C.3       20 UNK        -0.1800 
    112 C         -3.6745  -16.5413  -55.0197 C.2       20 UNK         0.5000 
    113 O         -4.2002  -16.9819  -56.0433 O.2       20 UNK        -0.5000 
    114 N         -4.3664  -16.0684  -53.9734 N.am      21 UNK        -0.5000 
    115 CA        -5.8268  -16.0524  -53.8473 C.3       21 UNK         0.1400 
    116 CB        -6.2002  -15.3524  -52.5305 C.3       21 UNK        -0.1800 
    117 C         -6.4765  -17.4514  -53.9152 C.2       21 UNK         0.5000 
    118 O         -7.6301  -17.5614  -54.3324 O.2       21 UNK        -0.5000 
    119 N         -5.7206  -18.4860  -53.5295 N.am      22 UNK        -0.5000 
    120 CA        -6.0967  -19.9030  -53.6328 C.3       22 UNK         0.1400 
    121 C         -5.6726  -20.5586  -54.9814 C.2       22 UNK         0.5000 
    122 N         -5.0700  -19.8435  -55.9254 N.am      22 UNK        -0.7600 
    123 O         -5.9017  -21.7477  -55.1825 O.2       22 UNK        -0.5000 
    124 C124       -5.5635  -20.7208  -52.4289 C.3       23 UNK        -0.0398 
    125 S125       -6.1930  -20.1339  -50.8231 S.3       23 UNK        -0.2404 
    126 C126       -4.8022  -19.1024  -50.2682 C.3       23 UNK        -0.0205 
    127 H127       -4.2779  -12.7013  -51.1367 H         1 UNK         0.0600 
    128 H128       -3.1741  -13.8784  -51.8527 H         1 UNK         0.0600 
    129 H129       -2.5872  -12.2726  -51.4095 H         1 UNK         0.0600 
    130 H130       -4.7637  -13.3008  -49.0489 H         1 UNK         0.3000 
    131 H131       -3.4485  -15.1996  -47.5337 H         1 UNK         0.0600 
    132 H132       -4.9675  -14.6384  -45.7254 H         1 UNK         0.0800 
    133 H133       -5.2179  -13.0200  -46.3164 H         1 UNK         0.0800 
    134 H134       -7.0303  -15.9952  -45.7130 H         1 UNK         0.0800 
    135 H135       -7.9647  -16.4184  -47.1245 H         1 UNK         0.0800 
    136 H136       -6.3781  -17.1238  -49.2634 H         1 UNK         0.1150 
    137 H137       -3.6199  -20.1734  -48.0571 H         1 UNK         0.1150 
    138 H138       -5.4345  -17.6522  -45.1115 H         1 UNK         0.1150 
    139 H139       -2.6810  -19.9484  -45.7584 H         1 UNK         0.0800 
    140 H140       -3.5815  -19.0973  -44.5071 H         1 UNK         0.0800 
    141 H141       -4.0427  -22.3311  -42.7916 H         1 UNK         0.0800 
    142 H142       -3.0383  -20.9439  -43.0447 H         1 UNK         0.0800 
    143 H143       -1.8957  -22.4057  -44.9517 H         1 UNK         0.0600 
    144 H144       -0.2579  -22.1762  -43.5227 H         1 UNK         0.3000 
    145 H145        0.2596  -23.1205  -40.0790 H         1 UNK         0.0600 
    146 H146        2.3911  -23.5986  -41.2239 H         1 UNK         0.0600 
    147 H147        1.6436  -23.3878  -42.8030 H         1 UNK         0.0600 
    148 H148        1.1572  -24.7249  -41.7656 H         1 UNK         0.0600 
    149 H149        0.9771  -21.0355  -42.1052 H         1 UNK         0.3000 
    150 H150        0.4533  -18.4435  -39.7866 H         1 UNK         0.0600 
    151 H151        2.8149  -18.9941  -39.1703 H         1 UNK         0.0600 
    152 H152        2.7582  -17.6954  -40.3529 H         1 UNK         0.0600 
    153 H153        3.1900  -19.3286  -40.8574 H         1 UNK         0.0600 
    154 H154        1.5076  -18.4236  -42.4295 H         1 UNK         0.3000 
    155 H155       -1.2548  -19.3684  -44.2220 H         1 UNK         0.0600 
    156 H156       -2.1791  -17.0819  -43.8495 H         1 UNK         0.0600 
    157 H157       -1.3269  -17.1506  -45.3846 H         1 UNK         0.0600 
    158 H158       -0.5700  -16.3937  -43.9847 H         1 UNK         0.0600 
    159 H159        1.0182  -17.9842  -45.1516 H         1 UNK         0.3000 
    160 H160        3.2436  -20.7848  -45.1852 H         1 UNK         0.0600 
    161 H161        3.2646  -20.1584  -47.5786 H         1 UNK         0.0600 
    162 H162        1.7721  -19.2423  -47.3854 H         1 UNK         0.0600 
    163 H163        1.7664  -20.9892  -47.1861 H         1 UNK         0.0600 
    164 H164        3.1462  -17.9059  -45.8656 H         1 UNK         0.3000 
    165 H165        5.0777  -16.9318  -43.0635 H         1 UNK         0.0600 
    166 H166        6.6436  -16.0257  -44.7601 H         1 UNK         0.0600 
    167 H167        6.8662  -17.7603  -44.5994 H         1 UNK         0.0600 
    168 H168        5.9933  -17.1164  -45.9849 H         1 UNK         0.0600 
    169 H169        4.1972  -15.5181  -45.3899 H         1 UNK         0.3000 
    170 H170        0.9274  -14.7295  -44.2610 H         1 UNK         0.0600 
    171 H171        2.4397  -13.1939  -42.9509 H         1 UNK         0.0600 
    172 H172        3.3934  -12.9280  -44.4062 H         1 UNK         0.0600 
    173 H173        1.7050  -12.4211  -44.3411 H         1 UNK         0.0600 
    174 H174        2.1668  -13.6644  -46.4726 H         1 UNK         0.3000 
    175 H175        2.6436  -15.3800  -48.7296 H         1 UNK         0.0600 
    176 H176       -0.2519  -16.3680  -48.7513 H         1 UNK         0.0600 
    177 H177        0.7554  -16.1536  -50.1824 H         1 UNK         0.0600 
    178 H178        1.1919  -17.3525  -48.9780 H         1 UNK         0.0600 
    179 H179        0.0698  -13.9386  -48.7847 H         1 UNK         0.3000 
    180 H180        1.6315  -10.7259  -48.8413 H         1 UNK         0.0600 
    181 H181       -0.0485  -12.3208  -50.8514 H         1 UNK         0.0600 
    182 H182        1.4449  -11.4613  -51.1938 H         1 UNK         0.0600 
    183 H183        0.0080  -10.5625  -50.7315 H         1 UNK         0.0600 
    184 H184       -1.0673  -11.8285  -48.6139 H         1 UNK         0.3000 
    185 H185       -1.2625  -11.6935  -45.1339 H         1 UNK         0.0600 
    186 H186       -1.3567   -9.2236  -45.4267 H         1 UNK         0.0600 
    187 H187       -2.3111   -9.4108  -46.8929 H         1 UNK         0.0600 
    188 H188       -2.9744   -9.9002  -45.3331 H         1 UNK         0.0600 
    189 H189       -3.1522  -11.6595  -47.3749 H         1 UNK         0.3000 
    190 H190       -0.7299  -24.8201  -43.9418 H         1 UNK         0.3000 
    191 H191       -2.6740  -26.8210  -43.3857 H         1 UNK         0.0600 
    192 H192        0.2659  -27.0613  -44.2205 H         1 UNK         0.0600 
    193 H193       -0.7022  -28.3490  -43.5136 H         1 UNK         0.0600 
    194 H194       -0.3371  -26.9148  -42.5689 H         1 UNK         0.0600 
    195 H195       -1.3570  -25.6831  -46.4233 H         1 UNK         0.3000 
    196 H196       -3.1164  -27.4333  -47.9832 H         1 UNK         0.0600 
    197 H197       -0.0629  -27.4952  -48.3439 H         1 UNK         0.0600 
    198 H198       -1.0613  -28.8419  -47.7998 H         1 UNK         0.0600 
    199 H199       -1.2335  -28.2270  -49.4361 H         1 UNK         0.0600 
    200 H200       -3.8016  -25.0840  -47.6839 H         1 UNK         0.3000 
    201 H201       -2.6363  -22.8129  -48.3637 H         1 UNK         0.0600 
    202 H202       -4.8948  -22.9712  -47.4179 H         1 UNK         0.0600 
    203 H203       -5.5421  -23.5910  -48.9348 H         1 UNK         0.0600 
    204 H204       -4.9575  -21.9401  -48.8353 H         1 UNK         0.0600 
    205 H205       -4.2336  -24.8096  -50.8816 H         1 UNK         0.3000 
    206 H206       -3.8605  -22.9606  -53.0232 H         1 UNK         0.0600 
    207 H207       -5.5971  -24.7244  -53.0412 H         1 UNK         0.0600 
    208 H208       -4.5436  -24.8968  -54.4341 H         1 UNK         0.0600 
    209 H209       -4.3579  -25.9816  -53.0602 H         1 UNK         0.0600 
    210 H210       -1.6267  -25.2396  -51.5951 H         1 UNK         0.3000 
    211 H211        0.2153  -25.0878  -53.9514 H         1 UNK         0.0600 
    212 H212        0.1288  -27.0334  -51.5848 H         1 UNK         0.0600 
    213 H213        1.3054  -27.0563  -52.8937 H         1 UNK         0.0600 
    214 H214       -0.3874  -27.3824  -53.2332 H         1 UNK         0.0600 
    215 H215        0.0170  -24.7378  -50.3843 H         1 UNK         0.3000 
    216 H216        2.7523  -23.9689  -50.0452 H         1 UNK         0.0600 
    217 H217        0.3493  -23.7081  -48.1557 H         1 UNK         0.0600 
    218 H218        2.0404  -23.5583  -47.6938 H         1 UNK         0.0600 
    219 H219        1.4251  -25.0977  -48.2759 H         1 UNK         0.0600 
    220 H220       -0.3151  -22.0835  -49.9735 H         1 UNK         0.3000 
    221 H221        1.2120  -19.5382  -49.8003 H         1 UNK         0.0600 
    222 H222       -1.7486  -20.1860  -49.3982 H         1 UNK         0.0600 
    223 H223       -0.5805  -19.7843  -48.1462 H         1 UNK         0.0600 
    224 H224       -1.0703  -18.5743  -49.3235 H         1 UNK         0.0600 
    225 H225       -1.3323  -21.1453  -51.7226 H         1 UNK         0.3000 
    226 H226       -2.1414  -20.9255  -53.7606 H         1 UNK         0.0600 
    227 H227        0.1744  -21.4217  -54.5361 H         1 UNK         0.0600 
    228 H228       -0.6600  -20.3716  -55.6631 H         1 UNK         0.0600 
    229 H229        0.5577  -19.7050  -54.5737 H         1 UNK         0.0600 
    230 H230       -0.9702  -18.2984  -55.3137 H         1 UNK         0.3000 
    231 H231       -1.7311  -16.2726  -55.8373 H         1 UNK         0.0600 
    232 H232       -1.8967  -14.6329  -53.9433 H         1 UNK         0.0600 
    233 H233       -0.4841  -15.6621  -53.8057 H         1 UNK         0.0600 
    234 H234       -1.8776  -15.9612  -52.7820 H         1 UNK         0.0600 
    235 H235       -3.8444  -15.7825  -53.1589 H         1 UNK         0.3000 
    236 H236       -6.2257  -15.4654  -54.6768 H         1 UNK         0.0600 
    237 H237       -5.8358  -14.3254  -52.5123 H         1 UNK         0.0600 
    238 H238       -7.2826  -15.3130  -52.4013 H         1 UNK         0.0600 
    239 H239       -5.7859  -15.8726  -51.6657 H         1 UNK         0.0600 
    240 H240       -4.7677  -18.3110  -53.2224 H         1 UNK         0.3000 
    241 H241       -7.1855  -19.9740  -53.6087 H         1 UNK         0.0600 
    242 H242       -4.8188  -20.2934  -56.7911 H         1 UNK         0.3800 
    243 H243       -4.8925  -18.8516  -55.8126 H         1 UNK         0.3800 
    244 H244       -4.4729  -20.7255  -52.4164 H         1 UNK         0.0800 
    245 H245       -5.8706  -21.7642  -52.5161 H         1 UNK         0.0800 
    246 H246       -4.7325  -18.2123  -50.8938 H         1 UNK         0.0800 
    247 H247       -3.8658  -19.6468  -50.3976 H         1 UNK         0.0800 
@<TRIPOS>BOND
     1    1    2 1    
     2    1  127 1    
     3    1  128 1    
     4    1  129 1    
     5    2    3 2    
     6    2    4 am   BACKBONE|DICT|INTERRES
     7    4    5 1    
     8    4  130 1    
     9    5    6 1    
    10    5   65 1    
    11    5  131 1    
    12    6    7 1    
    13    6  132 1    
    14    6  133 1    
    15    7    8 1    
    16    8    9 1    
    17    8  134 1    
    18    8  135 1    
    19    9   10 ar   
    20    9   14 ar   
    21   10   11 ar   
    22   10  136 1    
    23   11   12 ar   
    24   11  126 1    
    25   12   13 ar   
    26   12  137 1    
    27   13   14 ar   
    28   13   15 1    
    29   14  138 1    
    30   15   16 1    
    31   15  139 1    
    32   15  140 1    
    33   16   17 1    
    34   17   18 1    
    35   17  141 1    
    36   17  142 1    
    37   18   19 1    
    38   18   67 1    
    39   18  143 1    
    40   19   20 am   BACKBONE|DICT|INTERRES
    41   19  144 1    
    42   20   21 2    
    43   20   22 1    
    44   22   23 1    
    45   22   24 1    
    46   22  145 1    
    47   23  146 1    
    48   23  147 1    
    49   23  148 1    
    50   24   25 am   BACKBONE|DICT|INTERRES
    51   24  149 1    
    52   25   26 2    
    53   25   27 1    
    54   27   28 1    
    55   27   29 1    
    56   27  150 1    
    57   28  151 1    
    58   28  152 1    
    59   28  153 1    
    60   29   30 am   BACKBONE|DICT|INTERRES
    61   29  154 1    
    62   30   31 2    
    63   30   32 1    
    64   32   33 1    
    65   32   34 1    
    66   32  155 1    
    67   33  156 1    
    68   33  157 1    
    69   33  158 1    
    70   34   35 am   BACKBONE|DICT|INTERRES
    71   34  159 1    
    72   35   36 2    
    73   35   37 1    
    74   37   38 1    
    75   37   39 1    
    76   37  160 1    
    77   38  161 1    
    78   38  162 1    
    79   38  163 1    
    80   39   40 am   BACKBONE|DICT|INTERRES
    81   39  164 1    
    82   40   41 2    
    83   40   42 1    
    84   42   43 1    
    85   42   44 1    
    86   42  165 1    
    87   43  166 1    
    88   43  167 1    
    89   43  168 1    
    90   44   45 am   BACKBONE|DICT|INTERRES
    91   44  169 1    
    92   45   46 2    
    93   45   47 1    
    94   47   48 1    
    95   47   49 1    
    96   47  170 1    
    97   48  171 1    
    98   48  172 1    
    99   48  173 1    
   100   49   50 am   BACKBONE|DICT|INTERRES
   101   49  174 1    
   102   50   51 2    
   103   50   52 1    
   104   52   53 1    
   105   52   54 1    
   106   52  175 1    
   107   53  176 1    
   108   53  177 1    
   109   53  178 1    
   110   54   55 am   BACKBONE|DICT|INTERRES
   111   54  179 1    
   112   55   56 2    
   113   55   57 1    
   114   57   58 1    
   115   57   59 1    
   116   57  180 1    
   117   58  181 1    
   118   58  182 1    
   119   58  183 1    
   120   59   60 am   BACKBONE|DICT|INTERRES
   121   59  184 1    
   122   60   61 2    
   123   60   62 1    
   124   62   63 1    
   125   62   64 1    
   126   62  185 1    
   127   63  186 1    
   128   63  187 1    
   129   63  188 1    
   130   64   65 am   BACKBONE|DICT|INTERRES
   131   64  189 1    
   132   65   66 2    
   133   67   68 2    
   134   67   69 am   BACKBONE|DICT|INTERRES
   135   69   70 1    
   136   69  190 1    
   137   70   71 1    
   138   70   72 1    
   139   70  191 1    
   140   71  192 1    
   141   71  193 1    
   142   71  194 1    
   143   72   73 2    
   144   72   74 am   BACKBONE|DICT|INTERRES
   145   74   75 1    
   146   74  195 1    
   147   75   76 1    
   148   75   77 1    
   149   75  196 1    
   150   76  197 1    
   151   76  198 1    
   152   76  199 1    
   153   77   78 2    
   154   77   79 am   BACKBONE|DICT|INTERRES
   155   79   80 1    
   156   79  200 1    
   157   80   81 1    
   158   80   82 1    
   159   80  201 1    
   160   81  202 1    
   161   81  203 1    
   162   81  204 1    
   163   82   83 2    
   164   82   84 am   BACKBONE|DICT|INTERRES
   165   84   85 1    
   166   84  205 1    
   167   85   86 1    
   168   85   87 1    
   169   85  206 1    
   170   86  207 1    
   171   86  208 1    
   172   86  209 1    
   173   87   88 2    
   174   87   89 am   BACKBONE|DICT|INTERRES
   175   89   90 1    
   176   89  210 1    
   177   90   91 1    
   178   90   92 1    
   179   90  211 1    
   180   91  212 1    
   181   91  213 1    
   182   91  214 1    
   183   92   93 2    
   184   92   94 am   BACKBONE|DICT|INTERRES
   185   94   95 1    
   186   94  215 1    
   187   95   96 1    
   188   95   97 1    
   189   95  216 1    
   190   96  217 1    
   191   96  218 1    
   192   96  219 1    
   193   97   98 2    
   194   97   99 am   BACKBONE|DICT|INTERRES
   195   99  100 1    
   196   99  220 1    
   197  100  101 1    
   198  100  102 1    
   199  100  221 1    
   200  101  222 1    
   201  101  223 1    
   202  101  224 1    
   203  102  103 2    
   204  102  104 am   BACKBONE|DICT|INTERRES
   205  104  105 1    
   206  104  225 1    
   207  105  106 1    
   208  105  107 1    
   209  105  226 1    
   210  106  227 1    
   211  106  228 1    
   212  106  229 1    
   213  107  108 2    
   214  107  109 am   BACKBONE|DICT|INTERRES
   215  109  110 1    
   216  109  230 1    
   217  110  111 1    
   218  110  112 1    
   219  110  231 1    
   220  111  232 1    
   221  111  233 1    
   222  111  234 1    
   223  112  113 2    
   224  112  114 am   BACKBONE|DICT|INTERRES
   225  114  115 1    
   226  114  235 1    
   227  115  116 1    
   228  115  117 1    
   229  115  236 1    
   230  116  237 1    
   231  116  238 1    
   232  116  239 1    
   233  117  118 2    
   234  117  119 am   BACKBONE|DICT|INTERRES
   235  119  120 1    
   236  119  240 1    
   237  120  121 1    
   238  120  124 1    
   239  120  241 1    
   240  121  122 am   BACKBONE|DICT|INTERRES
   241  121  123 2    
   242  122  242 1    
   243  122  243 1    
   244  124  125 1    
   245  124  244 1    
   246  124  245 1    
   247  125  126 1    
   248  126  246 1    
   249  126  247 1    
@<TRIPOS>SUBSTRUCTURE
     1 UNK         1 GROUP             0       ****    0 ROOT    
