@<TRIPOS>MOLECULE
3R540
247   249    1
SMALL
USER_CHARGES


@<TRIPOS>ATOM
      1 CA         -1.3160  -12.2040  -46.9759 C.3       0 UNK        -0.1800 
      2 C           0.1300  -12.4769  -47.3649 C.2       0 UNK         0.5000 
      3 O           0.7646  -13.3417  -46.7640 O.2       0 UNK        -0.5000 
      4 N           0.6363  -11.7299  -48.3566 N.am      1 UNK        -0.5000 
      5 CA          1.9775  -11.7339  -48.9691 C.3       1 UNK         0.1400 
      6 C6          2.2733  -12.9757  -49.8670 C.3       23 UNK        -0.0398 
      7 S7          3.1224  -14.3982  -49.0887 S.3       23 UNK        -0.2404 
      8 C8          1.7370  -15.5263  -48.7704 C.3       23 UNK        -0.0205 
      9 C9          1.7191  -16.7017  -49.7288 C.ar      23 UNK        -0.0193 
     10 C10         0.8480  -16.7175  -50.8217 C.ar      23 UNK        -0.1150 
     11 C11         0.7654  -17.8464  -51.6440 C.ar      23 UNK        -0.0193 
     12 C12         1.5915  -18.9452  -51.3882 C.ar      23 UNK        -0.1150 
     13 C13         2.4683  -18.9358  -50.3006 C.ar      23 UNK        -0.0193 
     14 C14         2.5315  -17.8092  -49.4780 C.ar      23 UNK        -0.1150 
     15 C15         3.3157  -20.1587  -49.9863 C.3       23 UNK        -0.0205 
     16 S16         2.7817  -20.9729  -48.4469 S.3       23 UNK        -0.2404 
     17 C17         1.0355  -21.3545  -48.8166 C.3       23 UNK        -0.0398 
     18 CA          0.4819  -22.4417  -47.8716 C.3       11 UNK         0.1400 
     19 N           0.4054  -21.9993  -46.4780 N.am      11 UNK        -0.5000 
     20 C           0.2134  -22.8273  -45.4423 C.2       10 UNK         0.5000 
     21 O           0.1186  -24.0504  -45.5524 O.2       10 UNK        -0.5000 
     22 CA          0.0399  -22.1743  -44.0609 C.3       10 UNK         0.1400 
     23 CB          1.3977  -21.7555  -43.4780 C.3       10 UNK        -0.1800 
     24 N          -0.8632  -21.0231  -44.1046 N.am      10 UNK        -0.5000 
     25 C          -2.1624  -21.0993  -44.4281 C.2       9 UNK         0.5000 
     26 O          -2.7430  -22.1605  -44.6595 O.2       9 UNK        -0.5000 
     27 CA         -2.9366  -19.7731  -44.5505 C.3       9 UNK         0.1400 
     28 CB         -3.4089  -19.2917  -43.1713 C.3       9 UNK        -0.1800 
     29 N          -2.1713  -18.7089  -45.2017 N.am      9 UNK        -0.5000 
     30 C          -1.7181  -18.7489  -46.4631 C.2       8 UNK         0.5000 
     31 O          -1.8816  -19.6997  -47.2250 O.2       8 UNK        -0.5000 
     32 CA         -0.8821  -17.5475  -46.9323 C.3       8 UNK         0.1400 
     33 CB         -1.7779  -16.3469  -47.2776 C.3       8 UNK        -0.1800 
     34 N           0.1118  -17.1538  -45.9354 N.am      8 UNK        -0.5000 
     35 C           1.1336  -17.9257  -45.5378 C.2       7 UNK         0.5000 
     36 O           1.3630  -19.0481  -45.9876 O.2       7 UNK        -0.5000 
     37 CA          2.0136  -17.3598  -44.4092 C.3       7 UNK         0.1400 
     38 CB          2.9456  -16.2617  -44.9442 C.3       7 UNK        -0.1800 
     39 N           1.2175  -16.8256  -43.3029 N.am      7 UNK        -0.5000 
     40 C           0.4116  -17.5622  -42.5219 C.2       6 UNK         0.5000 
     41 O           0.3019  -18.7838  -42.6118 O.2       6 UNK        -0.5000 
     42 CA         -0.4593  -16.8032  -41.5012 C.3       6 UNK         0.1400 
     43 CB          0.2888  -16.6398  -40.1700 C.3       6 UNK        -0.1800 
     44 N          -0.8881  -15.4864  -41.9739 N.am      6 UNK        -0.5000 
     45 C          -1.5887  -15.2515  -43.0922 C.2       5 UNK         0.5000 
     46 O          -2.0299  -16.1483  -43.8109 O.2       5 UNK        -0.5000 
     47 CA         -1.8090  -13.7809  -43.5018 C.3       5 UNK         0.1400 
     48 CB         -3.3075  -13.4499  -43.5771 C.3       5 UNK        -0.1800 
     49 N          -1.1464  -12.7976  -42.6368 N.am      5 UNK        -0.5000 
     50 C           0.1742  -12.5864  -42.5741 C.2       4 UNK         0.5000 
     51 O           1.0065  -13.2380  -43.2106 O.2       4 UNK        -0.5000 
     52 CA          0.6397  -11.5048  -41.5912 C.3       4 UNK         0.1400 
     53 CB          0.7810  -12.0769  -40.1704 C.3       4 UNK        -0.1800 
     54 N           1.9264  -10.9935  -42.0422 N.am      4 UNK        -0.5000 
     55 C           2.3540   -9.7320  -41.9195 C.2       3 UNK         0.5000 
     56 O           1.7324   -8.8581  -41.3133 O.2       3 UNK        -0.5000 
     57 CA          3.6988   -9.3747  -42.5894 C.3       3 UNK         0.1400 
     58 CB          4.8133   -9.2776  -41.5358 C.3       3 UNK        -0.1800 
     59 N           4.1171  -10.3175  -43.6325 N.am      3 UNK        -0.5000 
     60 C           3.4880  -10.5033  -44.8008 C.2       2 UNK         0.5000 
     61 O           2.4938   -9.8569  -45.1427 O.2       2 UNK        -0.5000 
     62 CA          4.0673  -11.5991  -45.7184 C.3       2 UNK         0.1400 
     63 CB          4.3372  -12.9088  -44.9544 C.3       2 UNK        -0.1800 
     64 N           3.1429  -11.8964  -46.8054 N.am      2 UNK        -0.5000 
     65 C           3.1323  -11.3346  -48.0166 C.2       1 UNK         0.5000 
     66 O           3.9734  -10.5168  -48.3951 O.2       1 UNK        -0.5000 
     67 C          -0.8650  -23.0004  -48.3738 C.2       11 UNK         0.5000 
     68 O          -0.8541  -23.9975  -49.0921 O.2       11 UNK        -0.5000 
     69 N          -1.9943  -22.4052  -47.9564 N.am      12 UNK        -0.5000 
     70 CA         -3.3468  -22.8942  -48.2443 C.3       12 UNK         0.1400 
     71 CB         -4.4103  -21.9359  -47.6800 C.3       12 UNK        -0.1800 
     72 C          -3.5824  -24.3083  -47.6963 C.2       12 UNK         0.5000 
     73 O          -4.0965  -25.1564  -48.4237 O.2       12 UNK        -0.5000 
     74 N          -3.1715  -24.5402  -46.4426 N.am      13 UNK        -0.5000 
     75 CA         -3.2387  -25.8404  -45.7793 C.3       13 UNK         0.1400 
     76 CB         -2.9001  -25.6718  -44.2904 C.3       13 UNK        -0.1800 
     77 C          -2.3248  -26.8903  -46.4377 C.2       13 UNK         0.5000 
     78 O          -2.7496  -28.0315  -46.6200 O.2       13 UNK        -0.5000 
     79 N          -1.0987  -26.4841  -46.7953 N.am      14 UNK        -0.5000 
     80 CA         -0.0981  -27.3381  -47.4353 C.3       14 UNK         0.1400 
     81 CB          1.2690  -26.6377  -47.4010 C.3       14 UNK        -0.1800 
     82 C          -0.4692  -27.7332  -48.8767 C.2       14 UNK         0.5000 
     83 O          -0.3532  -28.9066  -49.2329 O.2       14 UNK        -0.5000 
     84 N          -0.8991  -26.7516  -49.6799 N.am      15 UNK        -0.5000 
     85 CA         -1.2163  -26.9224  -51.0994 C.3       15 UNK         0.1400 
     86 CB         -0.9676  -25.5896  -51.8232 C.3       15 UNK        -0.1800 
     87 C          -2.6554  -27.4091  -51.3541 C.2       15 UNK         0.5000 
     88 O          -2.9670  -27.7680  -52.4897 O.2       15 UNK        -0.5000 
     89 N          -3.5034  -27.3925  -50.3150 N.am      16 UNK        -0.5000 
     90 CA         -4.9410  -27.6851  -50.3335 C.3       16 UNK         0.1400 
     91 CB         -5.2103  -29.1560  -50.7159 C.3       16 UNK        -0.1800 
     92 C          -5.7217  -26.6682  -51.1939 C.2       16 UNK         0.5000 
     93 O          -6.5381  -27.0561  -52.0317 O.2       16 UNK        -0.5000 
     94 N          -5.4358  -25.3789  -50.9547 N.am      17 UNK        -0.5000 
     95 CA         -6.0045  -24.1925  -51.6056 C.3       17 UNK         0.1400 
     96 CB         -7.4706  -23.9934  -51.1708 C.3       17 UNK        -0.1800 
     97 C          -5.8217  -24.2031  -53.1394 C.2       17 UNK         0.5000 
     98 O          -6.7923  -24.0633  -53.8869 O.2       17 UNK        -0.5000 
     99 N          -4.5715  -24.4014  -53.5792 N.am      18 UNK        -0.5000 
    100 CA        -4.1825  -24.4419  -54.9914 C.3       18 UNK         0.1400 
    101 CB        -2.7663  -25.0223  -55.1086 C.3       18 UNK        -0.1800 
    102 C         -4.2531  -23.0691  -55.6885 C.2       18 UNK         0.5000 
    103 O         -4.4653  -23.0190  -56.9011 O.2       18 UNK        -0.5000 
    104 N         -4.0788  -21.9916  -54.9171 N.am      19 UNK        -0.5000 
    105 CA        -4.2361  -20.6038  -55.3397 C.3       19 UNK         0.1400 
    106 CB        -2.8770  -19.8938  -55.2224 C.3       19 UNK        -0.1800 
    107 C         -5.3053  -19.9316  -54.4622 C.2       19 UNK         0.5000 
    108 O         -5.7888  -20.5399  -53.5033 O.2       19 UNK        -0.5000 
    109 N         -5.6656  -18.6898  -54.8132 N.am      20 UNK        -0.5000 
    110 CA        -6.6762  -17.8609  -54.1500 C.3       20 UNK         0.1400 
    111 CB        -6.8366  -16.5505  -54.9403 C.3       20 UNK        -0.1800 
    112 C         -6.3505  -17.5990  -52.6645 C.2       20 UNK         0.5000 
    113 O         -5.6431  -16.6415  -52.3477 O.2       20 UNK        -0.5000 
    114 N         -6.8572  -18.4886  -51.7993 N.am      21 UNK        -0.5000 
    115 CA        -6.6212  -18.5732  -50.3556 C.3       21 UNK         0.1400 
    116 CB        -7.2058  -17.3436  -49.6282 C.3       21 UNK        -0.1800 
    117 C         -5.1462  -18.8503  -49.9877 C.2       21 UNK         0.5000 
    118 O         -4.7007  -18.4234  -48.9218 O.2       21 UNK        -0.5000 
    119 N         -4.4222  -19.5712  -50.8555 N.am      22 UNK        -0.5000 
    120 CA        -3.0150  -19.9526  -50.6699 C.3       22 UNK         0.1400 
    121 C         -2.5911  -21.1363  -51.5854 C.2       22 UNK         0.5000 
    122 N         -1.3041  -21.3436  -51.8295 N.am      22 UNK        -0.7600 
    123 O         -3.4209  -21.9106  -52.0533 O.2       22 UNK        -0.5000 
    124 C124       -2.0379  -18.7458  -50.6419 C.3       23 UNK        -0.0398 
    125 S125       -1.9875  -17.7352  -52.1681 S.3       23 UNK        -0.2404 
    126 C126       -0.2676  -17.9201  -52.7624 C.3       23 UNK        -0.0205 
    127 H127       -1.8089  -11.5395  -47.6859 H         1 UNK         0.0600 
    128 H128       -1.3555  -11.7389  -45.9910 H         1 UNK         0.0600 
    129 H129       -1.8796  -13.1362  -46.9395 H         1 UNK         0.0600 
    130 H130        0.0261  -11.0272  -48.7502 H         1 UNK         0.3000 
    131 H131        1.9087  -10.8953  -49.6645 H         1 UNK         0.0600 
    132 H132        2.9241  -12.6574  -50.6827 H         1 UNK         0.0800 
    133 H133        1.3608  -13.3141  -50.3593 H         1 UNK         0.0800 
    134 H134        0.7896  -14.9913  -48.8191 H         1 UNK         0.0800 
    135 H135        1.8225  -15.8908  -47.7475 H         1 UNK         0.0800 
    136 H136        0.1987  -15.8731  -51.0061 H         1 UNK         0.1150 
    137 H137        1.5322  -19.8218  -52.0178 H         1 UNK         0.1150 
    138 H138        3.1918  -17.8081  -48.6218 H         1 UNK         0.1150 
    139 H139        3.2822  -20.8794  -50.8049 H         1 UNK         0.0800 
    140 H140        4.3589  -19.8566  -49.8850 H         1 UNK         0.0800 
    141 H141        0.9765  -21.6863  -49.8547 H         1 UNK         0.0800 
    142 H142        0.4467  -20.4387  -48.7403 H         1 UNK         0.0800 
    143 H143        1.1840  -23.2777  -47.9006 H         1 UNK         0.0600 
    144 H144        0.5053  -21.0042  -46.3081 H         1 UNK         0.3000 
    145 H145       -0.3994  -22.9198  -43.3948 H         1 UNK         0.0600 
    146 H146        1.2903  -21.3870  -42.4578 H         1 UNK         0.0600 
    147 H147        1.8663  -20.9686  -44.0698 H         1 UNK         0.0600 
    148 H148        2.0874  -22.5999  -43.4475 H         1 UNK         0.0600 
    149 H149       -0.4619  -20.1205  -43.8698 H         1 UNK         0.3000 
    150 H150       -3.8192  -19.9614  -45.1649 H         1 UNK         0.0600 
    151 H151       -4.0367  -20.0427  -42.6903 H         1 UNK         0.0600 
    152 H152       -3.9966  -18.3769  -43.2513 H         1 UNK         0.0600 
    153 H153       -2.5679  -19.0930  -42.5073 H         1 UNK         0.0600 
    154 H154       -2.0054  -17.8664  -44.6573 H         1 UNK         0.3000 
    155 H155       -0.3497  -17.8468  -47.8376 H         1 UNK         0.0600 
    156 H156       -2.3121  -15.9716  -46.4054 H         1 UNK         0.0600 
    157 H157       -2.5286  -16.6180  -48.0202 H         1 UNK         0.0600 
    158 H158       -1.1962  -15.5238  -47.6897 H         1 UNK         0.0600 
    159 H159       -0.0298  -16.2642  -45.4805 H         1 UNK         0.3000 
    160 H160        2.6288  -18.1754  -44.0233 H         1 UNK         0.0600 
    161 H161        2.3866  -15.3943  -45.2988 H         1 UNK         0.0600 
    162 H162        3.5454  -16.6284  -45.7783 H         1 UNK         0.0600 
    163 H163        3.6359  -15.9213  -44.1724 H         1 UNK         0.0600 
    164 H164        1.2346  -15.8232  -43.1710 H         1 UNK         0.3000 
    165 H165       -1.3559  -17.3983  -41.3202 H         1 UNK         0.0600 
    166 H166       -0.3468  -16.1790  -39.4136 H         1 UNK         0.0600 
    167 H167        0.6068  -17.6077  -39.7799 H         1 UNK         0.0600 
    168 H168        1.1804  -16.0215  -40.2821 H         1 UNK         0.0600 
    169 H169       -0.5663  -14.6899  -41.4459 H         1 UNK         0.3000 
    170 H170       -1.3887  -13.6812  -44.5036 H         1 UNK         0.0600 
    171 H171       -3.8274  -14.1313  -44.2521 H         1 UNK         0.0600 
    172 H172       -3.7855  -13.5272  -42.5999 H         1 UNK         0.0600 
    173 H173       -3.4696  -12.4398  -43.9537 H         1 UNK         0.0600 
    174 H174       -1.7564  -12.2374  -42.0582 H         1 UNK         0.3000 
    175 H175       -0.0989  -10.7002  -41.5915 H         1 UNK         0.0600 
    176 H176        1.5042  -12.8928  -40.1358 H         1 UNK         0.0600 
    177 H177        1.1094  -11.3101  -39.4685 H         1 UNK         0.0600 
    178 H178       -0.1710  -12.4636  -39.8049 H         1 UNK         0.0600 
    179 H179        2.4606  -11.6448  -42.6023 H         1 UNK         0.3000 
    180 H180        3.5794   -8.3927  -43.0518 H         1 UNK         0.0600 
    181 H181        5.7515   -8.9470  -41.9818 H         1 UNK         0.0600 
    182 H182        4.9909  -10.2374  -41.0490 H         1 UNK         0.0600 
    183 H183        4.5547   -8.5582  -40.7576 H         1 UNK         0.0600 
    184 H184        4.9281  -10.8813  -43.4227 H         1 UNK         0.3000 
    185 H185        5.0113  -11.2329  -46.1263 H         1 UNK         0.0600 
    186 H186        3.4446  -13.2613  -44.4369 H         1 UNK         0.0600 
    187 H187        4.6592  -13.6988  -45.6336 H         1 UNK         0.0600 
    188 H188        5.1264  -12.7886  -44.2121 H         1 UNK         0.0600 
    189 H189        2.3725  -12.5257  -46.5878 H         1 UNK         0.3000 
    190 H190       -1.9251  -21.5432  -47.4203 H         1 UNK         0.3000 
    191 H191       -3.4573  -22.9308  -49.3294 H         1 UNK         0.0600 
    192 H192       -4.2066  -20.8972  -47.9269 H         1 UNK         0.0600 
    193 H193       -4.4825  -21.9977  -46.5948 H         1 UNK         0.0600 
    194 H194       -5.3949  -22.1777  -48.0814 H         1 UNK         0.0600 
    195 H195       -2.7926  -23.7680  -45.9029 H         1 UNK         0.3000 
    196 H196       -4.2668  -26.2009  -45.8544 H         1 UNK         0.0600 
    197 H197       -3.5917  -24.9824  -43.8056 H         1 UNK         0.0600 
    198 H198       -1.8906  -25.2855  -44.1467 H         1 UNK         0.0600 
    199 H199       -2.9663  -26.6247  -43.7640 H         1 UNK         0.0600 
    200 H200       -0.8117  -25.5379  -46.5653 H         1 UNK         0.3000 
    201 H201       -0.0182  -28.2565  -46.8499 H         1 UNK         0.0600 
    202 H202        1.5736  -26.4171  -46.3777 H         1 UNK         0.0600 
    203 H203        1.2541  -25.6990  -47.9549 H         1 UNK         0.0600 
    204 H204        2.0422  -27.2676  -47.8425 H         1 UNK         0.0600 
    205 H205       -0.9428  -25.7975  -49.3246 H         1 UNK         0.3000 
    206 H206       -0.5386  -27.6650  -51.5259 H         1 UNK         0.0600 
    207 H207       -1.7000  -24.8317  -51.5411 H         1 UNK         0.0600 
    208 H208        0.0244  -25.1959  -51.6007 H         1 UNK         0.0600 
    209 H209       -1.0239  -25.7226  -52.9026 H         1 UNK         0.0600 
    210 H210       -3.1516  -27.0326  -49.4373 H         1 UNK         0.3000 
    211 H211       -5.2908  -27.5488  -49.3091 H         1 UNK         0.0600 
    212 H212       -4.9451  -29.3656  -51.7523 H         1 UNK         0.0600 
    213 H213       -6.2662  -29.4005  -50.5954 H         1 UNK         0.0600 
    214 H214       -4.6449  -29.8374  -50.0801 H         1 UNK         0.0600 
    215 H215       -4.7822  -25.1970  -50.1976 H         1 UNK         0.3000 
    216 H216       -5.4416  -23.3370  -51.2321 H         1 UNK         0.0600 
    217 H217       -7.8725  -23.0629  -51.5736 H         1 UNK         0.0600 
    218 H218       -7.5549  -23.9399  -50.0854 H         1 UNK         0.0600 
    219 H219       -8.1105  -24.8053  -51.5179 H         1 UNK         0.0600 
    220 H220       -3.8303  -24.4842  -52.8996 H         1 UNK         0.3000 
    221 H221       -4.8688  -25.1130  -55.5121 H         1 UNK         0.0600 
    222 H222       -2.0329  -24.3899  -54.6072 H         1 UNK         0.0600 
    223 H223       -2.7120  -26.0208  -54.6749 H         1 UNK         0.0600 
    224 H224       -2.4648  -25.1073  -56.1534 H         1 UNK         0.0600 
    225 H225       -3.9750  -22.1203  -53.9132 H         1 UNK         0.3000 
    226 H226       -4.5776  -20.5498  -56.3753 H         1 UNK         0.0600 
    227 H227       -2.1276  -20.3779  -55.8487 H         1 UNK         0.0600 
    228 H228       -2.9398  -18.8527  -55.5401 H         1 UNK         0.0600 
    229 H229       -2.5065  -19.9017  -54.1988 H         1 UNK         0.0600 
    230 H230       -5.1999  -18.2611  -55.5995 H         1 UNK         0.3000 
    231 H231       -7.6284  -18.3932  -54.1998 H         1 UNK         0.0600 
    232 H232       -7.5779  -15.9013  -54.4725 H         1 UNK         0.0600 
    233 H233       -7.1721  -16.7427  -55.9596 H         1 UNK         0.0600 
    234 H234       -5.9002  -15.9936  -54.9947 H         1 UNK         0.0600 
    235 H235       -7.3526  -19.2769  -52.1948 H         1 UNK         0.3000 
    236 H236       -7.1778  -19.4468  -50.0135 H         1 UNK         0.0600 
    237 H237       -6.6489  -16.4346  -49.8571 H         1 UNK         0.0600 
    238 H238       -8.2471  -17.1790  -49.9048 H         1 UNK         0.0600 
    239 H239       -7.1768  -17.4789  -48.5464 H         1 UNK         0.0600 
    240 H240       -4.8589  -19.9284  -51.6996 H         1 UNK         0.3000 
    241 H241       -2.9587  -20.3905  -49.6769 H         1 UNK         0.0600 
    242 H242       -1.0457  -22.1261  -52.4082 H         1 UNK         0.3800 
    243 H243       -0.5945  -20.7195  -51.4903 H         1 UNK         0.3800 
    244 H244       -1.0482  -19.0906  -50.3526 H         1 UNK         0.0800 
    245 H245       -2.3191  -18.0708  -49.8359 H         1 UNK         0.0800 
    246 H246       -0.1886  -18.8655  -53.3013 H         1 UNK         0.0800 
    247 H247       -0.0600  -17.1360  -53.4915 H         1 UNK         0.0800 
@<TRIPOS>BOND
     1    1    2 1    
     2    1  127 1    
     3    1  128 1    
     4    1  129 1    
     5    2    3 2    
     6    2    4 am   BACKBONE|DICT|INTERRES
     7    4    5 1    
     8    4  130 1    
     9    5    6 1    
    10    5   65 1    
    11    5  131 1    
    12    6    7 1    
    13    6  132 1    
    14    6  133 1    
    15    7    8 1    
    16    8    9 1    
    17    8  134 1    
    18    8  135 1    
    19    9   10 ar   
    20    9   14 ar   
    21   10   11 ar   
    22   10  136 1    
    23   11   12 ar   
    24   11  126 1    
    25   12   13 ar   
    26   12  137 1    
    27   13   14 ar   
    28   13   15 1    
    29   14  138 1    
    30   15   16 1    
    31   15  139 1    
    32   15  140 1    
    33   16   17 1    
    34   17   18 1    
    35   17  141 1    
    36   17  142 1    
    37   18   19 1    
    38   18   67 1    
    39   18  143 1    
    40   19   20 am   BACKBONE|DICT|INTERRES
    41   19  144 1    
    42   20   21 2    
    43   20   22 1    
    44   22   23 1    
    45   22   24 1    
    46   22  145 1    
    47   23  146 1    
    48   23  147 1    
    49   23  148 1    
    50   24   25 am   BACKBONE|DICT|INTERRES
    51   24  149 1    
    52   25   26 2    
    53   25   27 1    
    54   27   28 1    
    55   27   29 1    
    56   27  150 1    
    57   28  151 1    
    58   28  152 1    
    59   28  153 1    
    60   29   30 am   BACKBONE|DICT|INTERRES
    61   29  154 1    
    62   30   31 2    
    63   30   32 1    
    64   32   33 1    
    65   32   34 1    
    66   32  155 1    
    67   33  156 1    
    68   33  157 1    
    69   33  158 1    
    70   34   35 am   BACKBONE|DICT|INTERRES
    71   34  159 1    
    72   35   36 2    
    73   35   37 1    
    74   37   38 1    
    75   37   39 1    
    76   37  160 1    
    77   38  161 1    
    78   38  162 1    
    79   38  163 1    
    80   39   40 am   BACKBONE|DICT|INTERRES
    81   39  164 1    
    82   40   41 2    
    83   40   42 1    
    84   42   43 1    
    85   42   44 1    
    86   42  165 1    
    87   43  166 1    
    88   43  167 1    
    89   43  168 1    
    90   44   45 am   BACKBONE|DICT|INTERRES
    91   44  169 1    
    92   45   46 2    
    93   45   47 1    
    94   47   48 1    
    95   47   49 1    
    96   47  170 1    
    97   48  171 1    
    98   48  172 1    
    99   48  173 1    
   100   49   50 am   BACKBONE|DICT|INTERRES
   101   49  174 1    
   102   50   51 2    
   103   50   52 1    
   104   52   53 1    
   105   52   54 1    
   106   52  175 1    
   107   53  176 1    
   108   53  177 1    
   109   53  178 1    
   110   54   55 am   BACKBONE|DICT|INTERRES
   111   54  179 1    
   112   55   56 2    
   113   55   57 1    
   114   57   58 1    
   115   57   59 1    
   116   57  180 1    
   117   58  181 1    
   118   58  182 1    
   119   58  183 1    
   120   59   60 am   BACKBONE|DICT|INTERRES
   121   59  184 1    
   122   60   61 2    
   123   60   62 1    
   124   62   63 1    
   125   62   64 1    
   126   62  185 1    
   127   63  186 1    
   128   63  187 1    
   129   63  188 1    
   130   64   65 am   BACKBONE|DICT|INTERRES
   131   64  189 1    
   132   65   66 2    
   133   67   68 2    
   134   67   69 am   BACKBONE|DICT|INTERRES
   135   69   70 1    
   136   69  190 1    
   137   70   71 1    
   138   70   72 1    
   139   70  191 1    
   140   71  192 1    
   141   71  193 1    
   142   71  194 1    
   143   72   73 2    
   144   72   74 am   BACKBONE|DICT|INTERRES
   145   74   75 1    
   146   74  195 1    
   147   75   76 1    
   148   75   77 1    
   149   75  196 1    
   150   76  197 1    
   151   76  198 1    
   152   76  199 1    
   153   77   78 2    
   154   77   79 am   BACKBONE|DICT|INTERRES
   155   79   80 1    
   156   79  200 1    
   157   80   81 1    
   158   80   82 1    
   159   80  201 1    
   160   81  202 1    
   161   81  203 1    
   162   81  204 1    
   163   82   83 2    
   164   82   84 am   BACKBONE|DICT|INTERRES
   165   84   85 1    
   166   84  205 1    
   167   85   86 1    
   168   85   87 1    
   169   85  206 1    
   170   86  207 1    
   171   86  208 1    
   172   86  209 1    
   173   87   88 2    
   174   87   89 am   BACKBONE|DICT|INTERRES
   175   89   90 1    
   176   89  210 1    
   177   90   91 1    
   178   90   92 1    
   179   90  211 1    
   180   91  212 1    
   181   91  213 1    
   182   91  214 1    
   183   92   93 2    
   184   92   94 am   BACKBONE|DICT|INTERRES
   185   94   95 1    
   186   94  215 1    
   187   95   96 1    
   188   95   97 1    
   189   95  216 1    
   190   96  217 1    
   191   96  218 1    
   192   96  219 1    
   193   97   98 2    
   194   97   99 am   BACKBONE|DICT|INTERRES
   195   99  100 1    
   196   99  220 1    
   197  100  101 1    
   198  100  102 1    
   199  100  221 1    
   200  101  222 1    
   201  101  223 1    
   202  101  224 1    
   203  102  103 2    
   204  102  104 am   BACKBONE|DICT|INTERRES
   205  104  105 1    
   206  104  225 1    
   207  105  106 1    
   208  105  107 1    
   209  105  226 1    
   210  106  227 1    
   211  106  228 1    
   212  106  229 1    
   213  107  108 2    
   214  107  109 am   BACKBONE|DICT|INTERRES
   215  109  110 1    
   216  109  230 1    
   217  110  111 1    
   218  110  112 1    
   219  110  231 1    
   220  111  232 1    
   221  111  233 1    
   222  111  234 1    
   223  112  113 2    
   224  112  114 am   BACKBONE|DICT|INTERRES
   225  114  115 1    
   226  114  235 1    
   227  115  116 1    
   228  115  117 1    
   229  115  236 1    
   230  116  237 1    
   231  116  238 1    
   232  116  239 1    
   233  117  118 2    
   234  117  119 am   BACKBONE|DICT|INTERRES
   235  119  120 1    
   236  119  240 1    
   237  120  121 1    
   238  120  124 1    
   239  120  241 1    
   240  121  122 am   BACKBONE|DICT|INTERRES
   241  121  123 2    
   242  122  242 1    
   243  122  243 1    
   244  124  125 1    
   245  124  244 1    
   246  124  245 1    
   247  125  126 1    
   248  126  246 1    
   249  126  247 1    
@<TRIPOS>SUBSTRUCTURE
     1 UNK         1 GROUP             0       ****    0 ROOT    
