@<TRIPOS>MOLECULE
3R540
247   249    1
SMALL
USER_CHARGES


@<TRIPOS>ATOM
      1 CA         -4.2646  -16.4748  -48.3024 C.3       0 UNK        -0.1800 
      2 C          -3.2798  -15.6810  -47.4585 C.2       0 UNK         0.5000 
      3 O          -3.6887  -14.8044  -46.6974 O.2       0 UNK        -0.5000 
      4 N          -1.9849  -16.0059  -47.5560 N.am      1 UNK        -0.5000 
      5 CA         -0.8693  -15.3483  -46.8565 C.3       1 UNK         0.1400 
      6 C6          0.4629  -15.5062  -47.6324 C.3       23 UNK        -0.0398 
      7 S7          0.3494  -14.7966  -49.3118 S.3       23 UNK        -0.2404 
      8 C8          1.1781  -16.0576  -50.3324 C.3       23 UNK        -0.0205 
      9 C9          0.4818  -17.4134  -50.3174 C.ar      23 UNK        -0.0193 
     10 C10        -0.8563  -17.5380  -50.7078 C.ar      23 UNK        -0.1150 
     11 C11        -1.4834  -18.7929  -50.7336 C.ar      23 UNK        -0.0193 
     12 C12        -0.7450  -19.9211  -50.3628 C.ar      23 UNK        -0.1150 
     13 C13         0.5951  -19.8124  -49.9823 C.ar      23 UNK        -0.0193 
     14 C14         1.2003  -18.5553  -49.9558 C.ar      23 UNK        -0.1150 
     15 C15         1.4054  -21.0572  -49.6581 C.3       23 UNK        -0.0205 
     16 S16         1.7300  -21.2077  -47.8726 S.3       23 UNK        -0.2404 
     17 C17         1.3363  -22.9679  -47.5815 C.3       23 UNK        -0.0398 
     18 CA         -0.0513  -23.2769  -46.9541 C.3       11 UNK         0.1400 
     19 N          -0.0294  -23.2413  -45.4901 N.am      11 UNK        -0.5000 
     20 C          -0.8542  -23.9677  -44.7219 C.2       10 UNK         0.5000 
     21 O          -1.7074  -24.7349  -45.1703 O.2       10 UNK        -0.5000 
     22 CA         -0.7213  -23.7882  -43.1991 C.3       10 UNK         0.1400 
     23 CB          0.4884  -24.5676  -42.6613 C.3       10 UNK        -0.1800 
     24 N          -0.6149  -22.3857  -42.7968 N.am      10 UNK        -0.5000 
     25 C          -1.5858  -21.4781  -42.9637 C.2       9 UNK         0.5000 
     26 O          -2.6704  -21.7232  -43.4910 O.2       9 UNK        -0.5000 
     27 CA         -1.2863  -20.0444  -42.4939 C.3       9 UNK         0.1400 
     28 CB         -1.6421  -19.8673  -41.0111 C.3       9 UNK        -0.1800 
     29 N           0.0907  -19.5980  -42.7164 N.am      9 UNK        -0.5000 
     30 C           0.7235  -19.5586  -43.8974 C.2       8 UNK         0.5000 
     31 O           0.2549  -20.0341  -44.9323 O.2       8 UNK        -0.5000 
     32 CA          2.0943  -18.8532  -43.9122 C.3       8 UNK         0.1400 
     33 CB          2.5996  -18.5594  -45.3349 C.3       8 UNK        -0.1800 
     34 N           2.0450  -17.5908  -43.1751 N.am      8 UNK        -0.5000 
     35 C           2.3397  -17.4345  -41.8790 C.2       7 UNK         0.5000 
     36 O           2.5992  -18.3806  -41.1335 O.2       7 UNK        -0.5000 
     37 CA          2.3182  -15.9937  -41.3232 C.3       7 UNK         0.1400 
     38 CB          3.1735  -15.8311  -40.0500 C.3       7 UNK        -0.1800 
     39 N           2.6754  -14.9698  -42.3104 N.am      7 UNK        -0.5000 
     40 C           3.8184  -14.8517  -43.0038 C.2       6 UNK         0.5000 
     41 O           4.7676  -15.6305  -42.9101 O.2       6 UNK        -0.5000 
     42 CA          3.9274  -13.6448  -43.9501 C.3       6 UNK         0.1400 
     43 CB          3.1504  -13.8995  -45.2500 C.3       6 UNK        -0.1800 
     44 N           3.4139  -12.4305  -43.3165 N.am      6 UNK        -0.5000 
     45 C           4.1171  -11.3096  -43.1071 C.2       5 UNK         0.5000 
     46 O           5.2824  -11.1519  -43.4742 O.2       5 UNK        -0.5000 
     47 CA          3.4058  -10.1621  -42.3570 C.3       5 UNK         0.1400 
     48 CB          2.8276   -9.1474  -43.3553 C.3       5 UNK        -0.1800 
     49 N           2.3315  -10.6189  -41.4731 N.am      5 UNK        -0.5000 
     50 C           2.5062  -11.3696  -40.3774 C.2       4 UNK         0.5000 
     51 O           3.6131  -11.6668  -39.9272 O.2       4 UNK        -0.5000 
     52 CA          1.2414  -11.9011  -39.6709 C.3       4 UNK         0.1400 
     53 CB          0.9760  -11.1031  -38.3847 C.3       4 UNK        -0.1800 
     54 N           0.0068  -11.9292  -40.4684 N.am      4 UNK        -0.5000 
     55 C          -0.1730  -12.5500  -41.6418 C.2       3 UNK         0.5000 
     56 O           0.7401  -13.0245  -42.3206 O.2       3 UNK        -0.5000 
     57 CA         -1.6189  -12.6340  -42.1599 C.3       3 UNK         0.1400 
     58 CB         -1.9118  -11.4618  -43.1080 C.3       3 UNK        -0.1800 
     59 N          -1.8729  -13.8896  -42.8679 N.am      3 UNK        -0.5000 
     60 C          -1.7718  -15.1202  -42.3426 C.2       2 UNK         0.5000 
     61 O          -1.5101  -15.3427  -41.1600 O.2       2 UNK        -0.5000 
     62 CA         -2.0147  -16.3090  -43.2908 C.3       2 UNK         0.1400 
     63 CB         -3.4108  -16.9049  -43.0505 C.3       2 UNK        -0.1800 
     64 N          -1.8976  -15.9484  -44.7029 N.am      2 UNK        -0.5000 
     65 C          -0.7508  -15.7798  -45.3724 C.2       1 UNK         0.5000 
     66 O           0.3554  -15.9442  -44.8562 O.2       1 UNK        -0.5000 
     67 C          -1.2164  -22.4317  -47.5114 C.2       11 UNK         0.5000 
     68 O          -1.8128  -22.8190  -48.5158 O.2       11 UNK        -0.5000 
     69 N          -1.5470  -21.3223  -46.8330 N.am      12 UNK        -0.5000 
     70 CA         -2.6608  -20.4351  -47.1637 C.3       12 UNK         0.1400 
     71 CB         -2.6094  -19.1967  -46.2616 C.3       12 UNK        -0.1800 
     72 C          -4.0298  -21.1261  -47.0560 C.2       12 UNK         0.5000 
     73 O          -4.8808  -20.9157  -47.9199 O.2       12 UNK        -0.5000 
     74 N          -4.2023  -21.9572  -46.0176 N.am      13 UNK        -0.5000 
     75 CA         -5.3916  -22.7819  -45.8036 C.3       13 UNK         0.1400 
     76 CB         -5.3433  -23.3903  -44.3940 C.3       13 UNK        -0.1800 
     77 C          -5.5514  -23.8880  -46.8628 C.2       13 UNK         0.5000 
     78 O          -6.6803  -24.2016  -47.2425 O.2       13 UNK        -0.5000 
     79 N          -4.4260  -24.4520  -47.3240 N.am      14 UNK        -0.5000 
     80 CA         -4.3858  -25.4431  -48.3983 C.3       14 UNK         0.1400 
     81 CB         -3.0300  -26.1670  -48.3802 C.3       14 UNK        -0.1800 
     82 C          -4.6475  -24.8102  -49.7764 C.2       14 UNK         0.5000 
     83 O          -5.3867  -25.3835  -50.5771 O.2       14 UNK        -0.5000 
     84 N          -4.0172  -23.6526  -50.0284 N.am      15 UNK        -0.5000 
     85 CA         -4.0343  -22.8099  -51.2318 C.3       15 UNK         0.1400 
     86 CB         -5.4486  -22.2930  -51.5483 C.3       15 UNK        -0.1800 
     87 C          -3.3832  -23.4600  -52.4662 C.2       15 UNK         0.5000 
     88 O          -2.5768  -22.8178  -53.1435 O.2       15 UNK        -0.5000 
     89 N          -3.7039  -24.7335  -52.7222 N.am      16 UNK        -0.5000 
     90 CA         -3.1166  -25.5917  -53.7555 C.3       16 UNK         0.1400 
     91 CB         -3.9070  -26.9067  -53.8131 C.3       16 UNK        -0.1800 
     92 C          -1.6144  -25.8668  -53.5421 C.2       16 UNK         0.5000 
     93 O          -0.9258  -26.2423  -54.4903 O.2       16 UNK        -0.5000 
     94 N          -1.1317  -25.6366  -52.3120 N.am      17 UNK        -0.5000 
     95 CA          0.2801  -25.6323  -51.9311 C.3       17 UNK         0.1400 
     96 CB          0.3739  -25.4767  -50.4060 C.3       17 UNK        -0.1800 
     97 C           1.0974  -24.5319  -52.6406 C.2       17 UNK         0.5000 
     98 O           2.2963  -24.7189  -52.8502 O.2       17 UNK        -0.5000 
     99 N           0.4361  -23.4260  -53.0134 N.am      18 UNK        -0.5000 
    100 CA         0.9711  -22.4110  -53.9141 C.3       18 UNK         0.1400 
    101 CB         0.4885  -21.0141  -53.4819 C.3       18 UNK        -0.1800 
    102 C          0.5555  -22.7653  -55.3501 C.2       18 UNK         0.5000 
    103 O          1.3431  -23.3724  -56.0769 O.2       18 UNK        -0.5000 
    104 N         -0.6736  -22.3904  -55.7270 N.am      19 UNK        -0.5000 
    105 CA        -1.2276  -22.5868  -57.0699 C.3       19 UNK         0.1400 
    106 CB        -0.6251  -21.5453  -58.0371 C.3       19 UNK        -0.1800 
    107 C         -2.7686  -22.5451  -57.0926 C.2       19 UNK         0.5000 
    108 O         -3.3452  -22.4665  -58.1774 O.2       19 UNK        -0.5000 
    109 N         -3.4148  -22.5577  -55.9140 N.am      20 UNK        -0.5000 
    110 CA        -4.8657  -22.4282  -55.6944 C.3       20 UNK         0.1400 
    111 CB        -5.6505  -23.5728  -56.3681 C.3       20 UNK        -0.1800 
    112 C         -5.4368  -21.0335  -56.0343 C.2       20 UNK         0.5000 
    113 O         -6.6566  -20.8588  -56.0411 O.2       20 UNK        -0.5000 
    114 N         -4.5526  -20.0494  -56.2560 N.am      21 UNK        -0.5000 
    115 CA        -4.8741  -18.6623  -56.6051 C.3       21 UNK         0.1400 
    116 CB        -3.5684  -17.9217  -56.9333 C.3       21 UNK        -0.1800 
    117 C         -5.6625  -17.9101  -55.5154 C.2       21 UNK         0.5000 
    118 O         -6.3973  -16.9747  -55.8349 O.2       21 UNK        -0.5000 
    119 N         -5.5124  -18.3473  -54.2592 N.am      22 UNK        -0.5000 
    120 CA        -6.2780  -17.8618  -53.1014 C.3       22 UNK         0.1400 
    121 C         -7.7516  -18.3696  -53.0510 C.2       22 UNK         0.5000 
    122 N         -8.1745  -19.3053  -53.8950 N.am      22 UNK        -0.7600 
    123 O         -8.5323  -17.8980  -52.2291 O.2       22 UNK        -0.5000 
    124 C124       -5.5546  -18.1549  -51.7617 C.3       23 UNK        -0.0398 
    125 S125       -3.8447  -17.5144  -51.7056 S.3       23 UNK        -0.2404 
    126 C126       -2.9405  -19.0021  -51.1550 C.3       23 UNK        -0.0205 
    127 H127       -5.1182  -16.7831  -47.6988 H         1 UNK         0.0600 
    128 H128       -4.6304  -15.8638  -49.1273 H         1 UNK         0.0600 
    129 H129       -3.8039  -17.3723  -48.7144 H         1 UNK         0.0600 
    130 H130       -1.7107  -16.7355  -48.1983 H         1 UNK         0.3000 
    131 H131       -1.0874  -14.2787  -46.8244 H         1 UNK         0.0600 
    132 H132        1.2751  -14.9903  -47.1208 H         1 UNK         0.0800 
    133 H133        0.7515  -16.5571  -47.6822 H         1 UNK         0.0800 
    134 H134        2.2135  -16.1476  -50.0001 H         1 UNK         0.0800 
    135 H135        1.2186  -15.7005  -51.3622 H         1 UNK         0.0800 
    136 H136       -1.3927  -16.6463  -50.9961 H         1 UNK         0.1150 
    137 H137       -1.2112  -20.8960  -50.3893 H         1 UNK         0.1150 
    138 H138        2.2394  -18.4735  -49.6693 H         1 UNK         0.1150 
    139 H139        2.3573  -21.0228  -50.1899 H         1 UNK         0.0800 
    140 H140        0.8833  -21.9382  -50.0340 H         1 UNK         0.0800 
    141 H141        2.1242  -23.3838  -46.9521 H         1 UNK         0.0800 
    142 H142        1.4357  -23.5050  -48.5235 H         1 UNK         0.0800 
    143 H143       -0.2729  -24.3079  -47.2402 H         1 UNK         0.0600 
    144 H144        0.5982  -22.5779  -45.0582 H         1 UNK         0.3000 
    145 H145       -1.6219  -24.2006  -42.7389 H         1 UNK         0.0600 
    146 H146        0.4276  -25.6212  -42.9373 H         1 UNK         0.0600 
    147 H147        0.5352  -24.5206  -41.5731 H         1 UNK         0.0600 
    148 H148        1.4283  -24.1787  -43.0549 H         1 UNK         0.0600 
    149 H149        0.2499  -22.0933  -42.3664 H         1 UNK         0.3000 
    150 H150       -1.9326  -19.3839  -43.0691 H         1 UNK         0.0600 
    151 H151       -0.9961  -20.4660  -40.3679 H         1 UNK         0.0600 
    152 H152       -2.6721  -20.1700  -40.8173 H         1 UNK         0.0600 
    153 H153       -1.5490  -18.8248  -40.7052 H         1 UNK         0.0600 
    154 H154        0.5789  -19.2189  -41.9161 H         1 UNK         0.3000 
    155 H155        2.8120  -19.5262  -43.4391 H         1 UNK         0.0600 
    156 H156        1.8626  -18.0115  -45.9230 H         1 UNK         0.0600 
    157 H157        2.8232  -19.4853  -45.8620 H         1 UNK         0.0600 
    158 H158        3.5177  -17.9719  -45.3165 H         1 UNK         0.0600 
    159 H159        1.7253  -16.7865  -43.7077 H         1 UNK         0.3000 
    160 H160        1.2815  -15.7942  -41.0489 H         1 UNK         0.0600 
    161 H161        4.2185  -16.0841  -40.2316 H         1 UNK         0.0600 
    162 H162        2.8137  -16.4786  -39.2497 H         1 UNK         0.0600 
    163 H163        3.1377  -14.8072  -39.6783 H         1 UNK         0.0600 
    164 H164        1.9460  -14.2765  -42.4696 H         1 UNK         0.3000 
    165 H165        4.9833  -13.5313  -44.2042 H         1 UNK         0.0600 
    166 H166        3.4343  -14.8515  -45.7007 H         1 UNK         0.0600 
    167 H167        2.0754  -13.9230  -45.0710 H         1 UNK         0.0600 
    168 H168        3.3473  -13.1177  -45.9835 H         1 UNK         0.0600 
    169 H169        2.4655  -12.4788  -42.9564 H         1 UNK         0.3000 
    170 H170        4.1544   -9.6542  -41.7455 H         1 UNK         0.0600 
    171 H171        2.3882   -8.2929  -42.8403 H         1 UNK         0.0600 
    172 H172        2.0562   -9.5959  -43.9828 H         1 UNK         0.0600 
    173 H173        3.6055   -8.7623  -44.0159 H         1 UNK         0.0600 
    174 H174        1.3863  -10.4270  -41.7700 H         1 UNK         0.3000 
    175 H175        1.4557  -12.9336  -39.3883 H         1 UNK         0.0600 
    176 H176        1.8579  -11.0863  -37.7427 H         1 UNK         0.0600 
    177 H177        0.7096  -10.0682  -38.6034 H         1 UNK         0.0600 
    178 H178        0.1653  -11.5446  -37.8049 H         1 UNK         0.0600 
    179 H179       -0.8051  -11.5365  -40.0140 H         1 UNK         0.3000 
    180 H180       -2.3033  -12.5840  -41.3107 H         1 UNK         0.0600 
    181 H181       -1.2603  -11.4800  -43.9830 H         1 UNK         0.0600 
    182 H182       -1.7617  -10.5047  -42.6068 H         1 UNK         0.0600 
    183 H183       -2.9442  -11.4849  -43.4578 H         1 UNK         0.0600 
    184 H184       -2.0777  -13.8151  -43.8526 H         1 UNK         0.3000 
    185 H185       -1.2647  -17.0675  -43.0622 H         1 UNK         0.0600 
    186 H186       -3.5129  -17.2592  -42.0239 H         1 UNK         0.0600 
    187 H187       -4.1962  -16.1681  -43.2238 H         1 UNK         0.0600 
    188 H188       -3.6023  -17.7528  -43.7073 H         1 UNK         0.0600 
    189 H189       -2.7583  -15.7421  -45.1988 H         1 UNK         0.3000 
    190 H190       -0.9552  -21.0308  -46.0595 H         1 UNK         0.3000 
    191 H191       -2.5338  -20.1093  -48.1958 H         1 UNK         0.0600 
    192 H192       -1.6828  -18.6416  -46.4065 H         1 UNK         0.0600 
    193 H193       -3.4398  -18.5233  -46.4688 H         1 UNK         0.0600 
    194 H194       -2.6740  -19.4718  -45.2112 H         1 UNK         0.0600 
    195 H195       -3.4758  -22.0190  -45.3108 H         1 UNK         0.3000 
    196 H196       -6.2682  -22.1337  -45.8657 H         1 UNK         0.0600 
    197 H197       -6.2167  -24.0160  -44.2062 H         1 UNK         0.0600 
    198 H198       -5.3311  -22.6125  -43.6303 H         1 UNK         0.0600 
    199 H199       -4.4564  -24.0100  -44.2542 H         1 UNK         0.0600 
    200 H200       -3.5402  -24.1470  -46.9454 H         1 UNK         0.3000 
    201 H201       -5.1663  -26.1849  -48.2157 H         1 UNK         0.0600 
    202 H202       -2.9843  -26.9308  -49.1576 H         1 UNK         0.0600 
    203 H203       -2.8633  -26.6648  -47.4247 H         1 UNK         0.0600 
    204 H204       -2.1997  -25.4811  -48.5456 H         1 UNK         0.0600 
    205 H205       -3.3687  -23.3238  -49.3150 H         1 UNK         0.3000 
    206 H206       -3.4197  -21.9460  -50.9796 H         1 UNK         0.0600 
    207 H207       -5.4293  -21.5821  -52.3746 H         1 UNK         0.0600 
    208 H208       -6.1267  -23.0998  -51.8279 H         1 UNK         0.0600 
    209 H209       -5.8774  -21.7789  -50.6877 H         1 UNK         0.0600 
    210 H210       -4.3864  -25.1662  -52.1029 H         1 UNK         0.3000 
    211 H211       -3.2196  -25.0872  -54.7169 H         1 UNK         0.0600 
    212 H212       -3.5154  -27.5666  -54.5883 H         1 UNK         0.0600 
    213 H213       -4.9570  -26.7243  -54.0429 H         1 UNK         0.0600 
    214 H214       -3.8594  -27.4453  -52.8658 H         1 UNK         0.0600 
    215 H215       -1.7877  -25.3517  -51.6012 H         1 UNK         0.3000 
    216 H216        0.7093  -26.5967  -52.2101 H         1 UNK         0.0600 
    217 H217       -0.1141  -26.3063  -49.8942 H         1 UNK         0.0600 
    218 H218       -0.0960  -24.5517  -50.0700 H         1 UNK         0.0600 
    219 H219        1.4140  -25.4615  -50.0778 H         1 UNK         0.0600 
    220 H220       -0.5593  -23.3744  -52.8357 H         1 UNK         0.3000 
    221 H221        2.0627  -22.4048  -53.8807 H         1 UNK         0.0600 
    222 H222       -0.5840  -20.9793  -53.2900 H         1 UNK         0.0600 
    223 H223        0.9986  -20.7030  -52.5728 H         1 UNK         0.0600 
    224 H224        0.7160  -20.2647  -54.2413 H         1 UNK         0.0600 
    225 H225       -1.2506  -21.8991  -55.0595 H         1 UNK         0.3000 
    226 H226       -0.9506  -23.5845  -57.4167 H         1 UNK         0.0600 
    227 H227        0.4612  -21.6206  -58.0819 H         1 UNK         0.0600 
    228 H228       -0.9924  -21.6870  -59.0542 H         1 UNK         0.0600 
    229 H229       -0.8770  -20.5282  -57.7346 H         1 UNK         0.0600 
    230 H230       -2.8752  -22.6577  -55.0607 H         1 UNK         0.3000 
    231 H231       -5.0166  -22.5385  -54.6221 H         1 UNK         0.0600 
    232 H232       -5.6441  -23.4896  -57.4549 H         1 UNK         0.0600 
    233 H233       -6.6940  -23.5685  -56.0512 H         1 UNK         0.0600 
    234 H234       -5.2384  -24.5458  -56.1021 H         1 UNK         0.0600 
    235 H235       -3.5730  -20.2852  -56.2245 H         1 UNK         0.3000 
    236 H236       -5.4948  -18.6815  -57.5032 H         1 UNK         0.0600 
    237 H237       -2.8965  -17.8916  -56.0745 H         1 UNK         0.0600 
    238 H238       -3.0395  -18.3995  -57.7583 H         1 UNK         0.0600 
    239 H239       -3.7677  -16.8912  -57.2302 H         1 UNK         0.0600 
    240 H240       -4.8728  -19.1073  -54.0892 H         1 UNK         0.3000 
    241 H241       -6.3461  -16.7761  -53.1940 H         1 UNK         0.0600 
    242 H242       -7.5625  -19.7049  -54.5970 H         1 UNK         0.3800 
    243 H243       -9.1329  -19.6123  -53.8448 H         1 UNK         0.3800 
    244 H244       -6.0974  -17.7006  -50.9308 H         1 UNK         0.0800 
    245 H245       -5.5522  -19.2276  -51.5655 H         1 UNK         0.0800 
    246 H246       -3.4789  -19.4420  -50.3145 H         1 UNK         0.0800 
    247 H247       -2.9679  -19.7329  -51.9646 H         1 UNK         0.0800 
@<TRIPOS>BOND
     1    1    2 1    
     2    1  127 1    
     3    1  128 1    
     4    1  129 1    
     5    2    3 2    
     6    2    4 am   BACKBONE|DICT|INTERRES
     7    4    5 1    
     8    4  130 1    
     9    5    6 1    
    10    5   65 1    
    11    5  131 1    
    12    6    7 1    
    13    6  132 1    
    14    6  133 1    
    15    7    8 1    
    16    8    9 1    
    17    8  134 1    
    18    8  135 1    
    19    9   10 ar   
    20    9   14 ar   
    21   10   11 ar   
    22   10  136 1    
    23   11   12 ar   
    24   11  126 1    
    25   12   13 ar   
    26   12  137 1    
    27   13   14 ar   
    28   13   15 1    
    29   14  138 1    
    30   15   16 1    
    31   15  139 1    
    32   15  140 1    
    33   16   17 1    
    34   17   18 1    
    35   17  141 1    
    36   17  142 1    
    37   18   19 1    
    38   18   67 1    
    39   18  143 1    
    40   19   20 am   BACKBONE|DICT|INTERRES
    41   19  144 1    
    42   20   21 2    
    43   20   22 1    
    44   22   23 1    
    45   22   24 1    
    46   22  145 1    
    47   23  146 1    
    48   23  147 1    
    49   23  148 1    
    50   24   25 am   BACKBONE|DICT|INTERRES
    51   24  149 1    
    52   25   26 2    
    53   25   27 1    
    54   27   28 1    
    55   27   29 1    
    56   27  150 1    
    57   28  151 1    
    58   28  152 1    
    59   28  153 1    
    60   29   30 am   BACKBONE|DICT|INTERRES
    61   29  154 1    
    62   30   31 2    
    63   30   32 1    
    64   32   33 1    
    65   32   34 1    
    66   32  155 1    
    67   33  156 1    
    68   33  157 1    
    69   33  158 1    
    70   34   35 am   BACKBONE|DICT|INTERRES
    71   34  159 1    
    72   35   36 2    
    73   35   37 1    
    74   37   38 1    
    75   37   39 1    
    76   37  160 1    
    77   38  161 1    
    78   38  162 1    
    79   38  163 1    
    80   39   40 am   BACKBONE|DICT|INTERRES
    81   39  164 1    
    82   40   41 2    
    83   40   42 1    
    84   42   43 1    
    85   42   44 1    
    86   42  165 1    
    87   43  166 1    
    88   43  167 1    
    89   43  168 1    
    90   44   45 am   BACKBONE|DICT|INTERRES
    91   44  169 1    
    92   45   46 2    
    93   45   47 1    
    94   47   48 1    
    95   47   49 1    
    96   47  170 1    
    97   48  171 1    
    98   48  172 1    
    99   48  173 1    
   100   49   50 am   BACKBONE|DICT|INTERRES
   101   49  174 1    
   102   50   51 2    
   103   50   52 1    
   104   52   53 1    
   105   52   54 1    
   106   52  175 1    
   107   53  176 1    
   108   53  177 1    
   109   53  178 1    
   110   54   55 am   BACKBONE|DICT|INTERRES
   111   54  179 1    
   112   55   56 2    
   113   55   57 1    
   114   57   58 1    
   115   57   59 1    
   116   57  180 1    
   117   58  181 1    
   118   58  182 1    
   119   58  183 1    
   120   59   60 am   BACKBONE|DICT|INTERRES
   121   59  184 1    
   122   60   61 2    
   123   60   62 1    
   124   62   63 1    
   125   62   64 1    
   126   62  185 1    
   127   63  186 1    
   128   63  187 1    
   129   63  188 1    
   130   64   65 am   BACKBONE|DICT|INTERRES
   131   64  189 1    
   132   65   66 2    
   133   67   68 2    
   134   67   69 am   BACKBONE|DICT|INTERRES
   135   69   70 1    
   136   69  190 1    
   137   70   71 1    
   138   70   72 1    
   139   70  191 1    
   140   71  192 1    
   141   71  193 1    
   142   71  194 1    
   143   72   73 2    
   144   72   74 am   BACKBONE|DICT|INTERRES
   145   74   75 1    
   146   74  195 1    
   147   75   76 1    
   148   75   77 1    
   149   75  196 1    
   150   76  197 1    
   151   76  198 1    
   152   76  199 1    
   153   77   78 2    
   154   77   79 am   BACKBONE|DICT|INTERRES
   155   79   80 1    
   156   79  200 1    
   157   80   81 1    
   158   80   82 1    
   159   80  201 1    
   160   81  202 1    
   161   81  203 1    
   162   81  204 1    
   163   82   83 2    
   164   82   84 am   BACKBONE|DICT|INTERRES
   165   84   85 1    
   166   84  205 1    
   167   85   86 1    
   168   85   87 1    
   169   85  206 1    
   170   86  207 1    
   171   86  208 1    
   172   86  209 1    
   173   87   88 2    
   174   87   89 am   BACKBONE|DICT|INTERRES
   175   89   90 1    
   176   89  210 1    
   177   90   91 1    
   178   90   92 1    
   179   90  211 1    
   180   91  212 1    
   181   91  213 1    
   182   91  214 1    
   183   92   93 2    
   184   92   94 am   BACKBONE|DICT|INTERRES
   185   94   95 1    
   186   94  215 1    
   187   95   96 1    
   188   95   97 1    
   189   95  216 1    
   190   96  217 1    
   191   96  218 1    
   192   96  219 1    
   193   97   98 2    
   194   97   99 am   BACKBONE|DICT|INTERRES
   195   99  100 1    
   196   99  220 1    
   197  100  101 1    
   198  100  102 1    
   199  100  221 1    
   200  101  222 1    
   201  101  223 1    
   202  101  224 1    
   203  102  103 2    
   204  102  104 am   BACKBONE|DICT|INTERRES
   205  104  105 1    
   206  104  225 1    
   207  105  106 1    
   208  105  107 1    
   209  105  226 1    
   210  106  227 1    
   211  106  228 1    
   212  106  229 1    
   213  107  108 2    
   214  107  109 am   BACKBONE|DICT|INTERRES
   215  109  110 1    
   216  109  230 1    
   217  110  111 1    
   218  110  112 1    
   219  110  231 1    
   220  111  232 1    
   221  111  233 1    
   222  111  234 1    
   223  112  113 2    
   224  112  114 am   BACKBONE|DICT|INTERRES
   225  114  115 1    
   226  114  235 1    
   227  115  116 1    
   228  115  117 1    
   229  115  236 1    
   230  116  237 1    
   231  116  238 1    
   232  116  239 1    
   233  117  118 2    
   234  117  119 am   BACKBONE|DICT|INTERRES
   235  119  120 1    
   236  119  240 1    
   237  120  121 1    
   238  120  124 1    
   239  120  241 1    
   240  121  122 am   BACKBONE|DICT|INTERRES
   241  121  123 2    
   242  122  242 1    
   243  122  243 1    
   244  124  125 1    
   245  124  244 1    
   246  124  245 1    
   247  125  126 1    
   248  126  246 1    
   249  126  247 1    
@<TRIPOS>SUBSTRUCTURE
     1 UNK         1 GROUP             0       ****    0 ROOT    
