@<TRIPOS>MOLECULE
3R540
247   249    1
SMALL
USER_CHARGES


@<TRIPOS>ATOM
      1 CA          3.2295  -10.8856  -48.9175 C.3       0 UNK        -0.1800 
      2 C           3.1832  -12.3589  -48.5391 C.2       0 UNK         0.5000 
      3 O           2.2016  -12.8058  -47.9494 O.2       0 UNK        -0.5000 
      4 N           4.2503  -13.1040  -48.8574 N.am      1 UNK        -0.5000 
      5 CA          4.4508  -14.5494  -48.6454 C.3       1 UNK         0.1400 
      6 C6          3.3636  -15.4485  -49.2934 C.3       23 UNK        -0.0398 
      7 S7          3.3424  -15.2751  -51.1078 S.3       23 UNK        -0.2404 
      8 C8          4.4673  -16.6215  -51.5943 C.3       23 UNK        -0.0205 
      9 C9          3.7594  -17.9671  -51.6254 C.ar      23 UNK        -0.0193 
     10 C10         3.0084  -18.3232  -52.7468 C.ar      23 UNK        -0.1150 
     11 C11         2.3710  -19.5633  -52.8130 C.ar      23 UNK        -0.0193 
     12 C12         2.4759  -20.4471  -51.7339 C.ar      23 UNK        -0.1150 
     13 C13         3.2343  -20.1115  -50.6055 C.ar      23 UNK        -0.0193 
     14 C14         3.8786  -18.8686  -50.5626 C.ar      23 UNK        -0.1150 
     15 C15         3.4193  -21.1434  -49.4939 C.3       23 UNK        -0.0205 
     16 S16         3.4552  -20.4695  -47.7950 S.3       23 UNK        -0.2404 
     17 C17         1.7315  -19.9451  -47.5171 C.3       23 UNK        -0.0398 
     18 CA          0.7912  -21.1214  -47.1258 C.3       11 UNK         0.1400 
     19 N          -0.0607  -20.8147  -45.9690 N.am      11 UNK        -0.5000 
     20 C          -0.8774  -21.6906  -45.3621 C.2       10 UNK         0.5000 
     21 O          -0.9303  -22.8853  -45.6507 O.2       10 UNK        -0.5000 
     22 CA         -1.8436  -21.1346  -44.2979 C.3       10 UNK         0.1400 
     23 CB         -1.1805  -21.0947  -42.9136 C.3       10 UNK        -0.1800 
     24 N          -2.3660  -19.8125  -44.6498 N.am      10 UNK        -0.5000 
     25 C          -3.1594  -19.5767  -45.7052 C.2       9 UNK         0.5000 
     26 O          -3.5963  -20.4640  -46.4358 O.2       9 UNK        -0.5000 
     27 CA         -3.4743  -18.1083  -46.0418 C.3       9 UNK         0.1400 
     28 CB         -4.6795  -17.6090  -45.2324 C.3       9 UNK        -0.1800 
     29 N          -2.3289  -17.2219  -45.8314 N.am      9 UNK        -0.5000 
     30 C          -1.1698  -17.2943  -46.5027 C.2       8 UNK         0.5000 
     31 O          -0.9650  -18.0832  -47.4263 O.2       8 UNK        -0.5000 
     32 CA         -0.0270  -16.3849  -46.0089 C.3       8 UNK         0.1400 
     33 CB         -0.1752  -14.9556  -46.5469 C.3       8 UNK        -0.1800 
     34 N           0.0552  -16.3572  -44.5469 N.am      8 UNK        -0.5000 
     35 C           0.3876  -17.4164  -43.7953 C.2       7 UNK         0.5000 
     36 O           0.7363  -18.4973  -44.2687 O.2       7 UNK        -0.5000 
     37 CA          0.2503  -17.2674  -42.2687 C.3       7 UNK         0.1400 
     38 CB          1.5251  -16.6997  -41.6304 C.3       7 UNK        -0.1800 
     39 N          -0.8911  -16.4319  -41.9009 N.am      7 UNK        -0.5000 
     40 C          -2.1676  -16.8308  -41.9761 C.2       6 UNK         0.5000 
     41 O          -2.5084  -17.9594  -42.3275 O.2       6 UNK        -0.5000 
     42 CA         -3.2414  -15.7790  -41.6408 C.3       6 UNK         0.1400 
     43 CB         -3.4927  -15.7270  -40.1266 C.3       6 UNK        -0.1800 
     44 N          -2.8872  -14.4414  -42.1193 N.am      6 UNK        -0.5000 
     45 C          -2.7806  -14.1036  -43.4122 C.2       5 UNK         0.5000 
     46 O          -3.0132  -14.8770  -44.3393 O.2       5 UNK        -0.5000 
     47 CA         -2.2809  -12.6806  -43.7219 C.3       5 UNK         0.1400 
     48 CB         -3.4618  -11.7032  -43.8133 C.3       5 UNK        -0.1800 
     49 N          -1.3102  -12.1812  -42.7442 N.am      5 UNK        -0.5000 
     50 C          -0.1070  -12.7239  -42.5191 C.2       4 UNK         0.5000 
     51 O           0.3129  -13.7318  -43.0946 O.2       4 UNK        -0.5000 
     52 CA          0.7401  -12.0619  -41.4274 C.3       4 UNK         0.1400 
     53 CB          0.4044  -12.6555  -40.0488 C.3       4 UNK        -0.1800 
     54 N           2.1520  -12.2820  -41.7174 N.am      4 UNK        -0.5000 
     55 C           3.1351  -11.4045  -41.4846 C.2       3 UNK         0.5000 
     56 O           2.9518  -10.3027  -40.9644 O.2       3 UNK        -0.5000 
     57 CA          4.5697  -11.8151  -41.8788 C.3       3 UNK         0.1400 
     58 CB          5.4088  -12.0984  -40.6223 C.3       3 UNK        -0.1800 
     59 N           4.6403  -12.9850  -42.7583 N.am      3 UNK        -0.5000 
     60 C           4.3248  -12.9880  -44.0588 C.2       2 UNK         0.5000 
     61 O           3.9214  -11.9956  -44.6715 O.2       2 UNK        -0.5000 
     62 CA          4.4815  -14.3336  -44.7817 C.3       2 UNK         0.1400 
     63 CB          3.4758  -15.3704  -44.2539 C.3       2 UNK        -0.1800 
     64 N           4.2856  -14.1357  -46.2111 N.am      2 UNK        -0.5000 
     65 C           4.7011  -14.9579  -47.1775 C.2       1 UNK         0.5000 
     66 O           5.3000  -16.0104  -46.9517 O.2       1 UNK        -0.5000 
     67 C          -0.0570  -21.5718  -48.3318 C.2       11 UNK         0.5000 
     68 O           0.2227  -22.6133  -48.9257 O.2       11 UNK        -0.5000 
     69 N          -1.1107  -20.8010  -48.6368 N.am      12 UNK        -0.5000 
     70 CA         -2.0821  -21.1104  -49.6830 C.3       12 UNK         0.1400 
     71 CB         -3.0518  -19.9328  -49.8603 C.3       12 UNK        -0.1800 
     72 C          -2.8302  -22.4316  -49.4374 C.2       12 UNK         0.5000 
     73 O          -2.9348  -23.2403  -50.3584 O.2       12 UNK        -0.5000 
     74 N          -3.2807  -22.6496  -48.1949 N.am      13 UNK        -0.5000 
     75 CA         -3.9317  -23.8808  -47.7494 C.3       13 UNK         0.1400 
     76 CB         -4.4810  -23.6970  -46.3286 C.3       13 UNK        -0.1800 
     77 C          -3.0276  -25.1209  -47.8389 C.2       13 UNK         0.5000 
     78 O          -3.5122  -26.1869  -48.2130 O.2       13 UNK        -0.5000 
     79 N          -1.7335  -24.9664  -47.5331 N.am      14 UNK        -0.5000 
     80 CA         -0.7287  -26.0159  -47.7002 C.3       14 UNK         0.1400 
     81 CB          0.5637  -25.6120  -46.9740 C.3       14 UNK        -0.1800 
     82 C          -0.4499  -26.3319  -49.1823 C.2       14 UNK         0.5000 
     83 O          -0.3006  -27.5022  -49.5352 O.2       14 UNK        -0.5000 
     84 N          -0.3844  -25.2866  -50.0170 N.am      15 UNK        -0.5000 
     85 CA         -0.0788  -25.3805  -51.4423 C.3       15 UNK         0.1400 
     86 CB          0.3456  -23.9963  -51.9591 C.3       15 UNK        -0.1800 
     87 C          -1.2367  -25.9427  -52.2869 C.2       15 UNK         0.5000 
     88 O          -1.0080  -26.8387  -53.1006 O.2       15 UNK        -0.5000 
     89 N          -2.4422  -25.3872  -52.1089 N.am      16 UNK        -0.5000 
     90 CA         -3.5929  -25.6049  -52.9920 C.3       16 UNK         0.1400 
     91 CB         -4.0949  -24.2327  -53.4730 C.3       16 UNK        -0.1800 
     92 C          -4.7307  -26.4138  -52.3421 C.2       16 UNK         0.5000 
     93 O          -5.7772  -26.5748  -52.9703 O.2       16 UNK        -0.5000 
     94 N          -4.5290  -26.8925  -51.1051 N.am      17 UNK        -0.5000 
     95 CA         -5.4736  -27.6474  -50.2615 C.3       17 UNK         0.1400 
     96 CB         -5.9717  -28.9282  -50.9635 C.3       17 UNK        -0.1800 
     97 C          -6.6407  -26.8053  -49.6950 C.2       17 UNK         0.5000 
     98 O          -7.4599  -27.3342  -48.9420 O.2       17 UNK        -0.5000 
     99 N          -6.6845  -25.5133  -50.0307 N.am      18 UNK        -0.5000 
    100 CA        -7.6223  -24.5034  -49.5604 C.3       18 UNK         0.1400 
    101 CB        -8.9600  -24.6235  -50.3100 C.3       18 UNK        -0.1800 
    102 C         -6.9669  -23.1423  -49.8191 C.2       18 UNK         0.5000 
    103 O         -6.1771  -23.0222  -50.7586 O.2       18 UNK        -0.5000 
    104 N         -7.2914  -22.1345  -49.0014 N.am      19 UNK        -0.5000 
    105 CA        -6.6807  -20.7983  -49.0239 C.3       19 UNK         0.1400 
    106 CB        -6.8945  -20.1278  -47.6557 C.3       19 UNK        -0.1800 
    107 C         -7.1397  -19.9042  -50.2028 C.2       19 UNK         0.5000 
    108 O         -7.2863  -18.6916  -50.0434 O.2       19 UNK        -0.5000 
    109 N         -7.3483  -20.5070  -51.3778 N.am      20 UNK        -0.5000 
    110 CA        -7.8581  -19.8927  -52.6035 C.3       20 UNK         0.1400 
    111 CB        -8.5832  -20.9789  -53.4192 C.3       20 UNK        -0.1800 
    112 C         -6.7496  -19.1813  -53.4090 C.2       20 UNK         0.5000 
    113 O         -6.6134  -19.4152  -54.6103 O.2       20 UNK        -0.5000 
    114 N         -5.9721  -18.3304  -52.7235 N.am      21 UNK        -0.5000 
    115 CA        -4.8735  -17.5038  -53.2455 C.3       21 UNK         0.1400 
    116 CB        -5.4091  -16.4444  -54.2323 C.3       21 UNK        -0.1800 
    117 C         -3.6810  -18.3080  -53.8157 C.2       21 UNK         0.5000 
    118 O         -2.9585  -17.7979  -54.6722 O.2       21 UNK        -0.5000 
    119 N         -3.4920  -19.5287  -53.2967 N.am      22 UNK        -0.5000 
    120 CA        -2.4265  -20.4958  -53.6120 C.3       22 UNK         0.1400 
    121 C         -2.4571  -21.0667  -55.0653 C.2       22 UNK         0.5000 
    122 N         -1.4995  -21.9084  -55.4348 N.am      22 UNK        -0.7600 
    123 O         -3.3657  -20.8082  -55.8508 O.2       22 UNK        -0.5000 
    124 C124       -1.0255  -20.0459  -53.0829 C.3       23 UNK        -0.0398 
    125 S125        0.0286  -19.0805  -54.2218 S.3       23 UNK        -0.2404 
    126 C126        1.6191  -19.9529  -54.0778 C.3       23 UNK        -0.0205 
    127 H127        3.1530  -10.2671  -48.0232 H         1 UNK         0.0600 
    128 H128        2.3950  -10.6417  -49.5749 H         1 UNK         0.0600 
    129 H129        4.1550  -10.6269  -49.4325 H         1 UNK         0.0600 
    130 H130        5.0240  -12.6459  -49.3186 H         1 UNK         0.3000 
    131 H131        5.3915  -14.7714  -49.1520 H         1 UNK         0.0600 
    132 H132        3.5239  -16.4979  -49.0440 H         1 UNK         0.0800 
    133 H133        2.3724  -15.2080  -48.9079 H         1 UNK         0.0800 
    134 H134        4.8665  -16.4011  -52.5855 H         1 UNK         0.0800 
    135 H135        5.3278  -16.6519  -50.9242 H         1 UNK         0.0800 
    136 H136        2.9282  -17.6363  -53.5780 H         1 UNK         0.1150 
    137 H137        1.9954  -21.4130  -51.7884 H         1 UNK         0.1150 
    138 H138        4.4884  -18.6089  -49.7090 H         1 UNK         0.1150 
    139 H139        2.6549  -21.9174  -49.5548 H         1 UNK         0.0800 
    140 H140        4.3680  -21.6510  -49.6712 H         1 UNK         0.0800 
    141 H141        1.3774  -19.3836  -48.3845 H         1 UNK         0.0800 
    142 H142        1.7711  -19.2140  -46.7090 H         1 UNK         0.0800 
    143 H143        1.3997  -21.9776  -46.8267 H         1 UNK         0.0600 
    144 H144       -0.0385  -19.8612  -45.6253 H         1 UNK         0.3000 
    145 H145       -2.6942  -21.8156  -44.2356 H         1 UNK         0.0600 
    146 H146       -1.8692  -20.7210  -42.1557 H         1 UNK         0.0600 
    147 H147       -0.8692  -22.0936  -42.6058 H         1 UNK         0.0600 
    148 H148       -0.2944  -20.4623  -42.9040 H         1 UNK         0.0600 
    149 H149       -2.1111  -19.0404  -44.0446 H         1 UNK         0.3000 
    150 H150       -3.7378  -18.0615  -47.1001 H         1 UNK         0.0600 
    151 H151       -5.5485  -18.2492  -45.3884 H         1 UNK         0.0600 
    152 H152       -4.9618  -16.5989  -45.5295 H         1 UNK         0.0600 
    153 H153       -4.4705  -17.5967  -44.1631 H         1 UNK         0.0600 
    154 H154       -2.4430  -16.4949  -45.1298 H         1 UNK         0.3000 
    155 H155        0.9131  -16.7895  -46.3898 H         1 UNK         0.0600 
    156 H156       -0.1388  -14.9450  -47.6369 H         1 UNK         0.0600 
    157 H157        0.6313  -14.3148  -46.1892 H         1 UNK         0.0600 
    158 H158       -1.1199  -14.5039  -46.2463 H         1 UNK         0.0600 
    159 H159       -0.1651  -15.4813  -44.0862 H         1 UNK         0.3000 
    160 H160        0.0934  -18.2662  -41.8564 H         1 UNK         0.0600 
    161 H161        1.6980  -15.6647  -41.9217 H         1 UNK         0.0600 
    162 H162        2.4003  -17.2819  -41.9212 H         1 UNK         0.0600 
    163 H163        1.4634  -16.7298  -40.5425 H         1 UNK         0.0600 
    164 H164       -0.6931  -15.4724  -41.6592 H         1 UNK         0.3000 
    165 H165       -4.1689  -16.0812  -42.1316 H         1 UNK         0.0600 
    166 H166       -4.3042  -15.0403  -39.8852 H         1 UNK         0.0600 
    167 H167       -3.7750  -16.7090  -39.7445 H         1 UNK         0.0600 
    168 H168       -2.6054  -15.4045  -39.5803 H         1 UNK         0.0600 
    169 H169       -2.6830  -13.7430  -41.4202 H         1 UNK         0.3000 
    170 H170       -1.7870  -12.7098  -44.6951 H         1 UNK         0.0600 
    171 H171       -4.1911  -12.0404  -44.5513 H         1 UNK         0.0600 
    172 H172       -3.9810  -11.6067  -42.8589 H         1 UNK         0.0600 
    173 H173       -3.1297  -10.7104  -44.1176 H         1 UNK         0.0600 
    174 H174       -1.5842  -11.3624  -42.2202 H         1 UNK         0.3000 
    175 H175        0.5201  -10.9921  -41.4272 H         1 UNK         0.0600 
    176 H176        0.6088  -13.7264  -40.0114 H         1 UNK         0.0600 
    177 H177        0.9889  -12.1773  -39.2626 H         1 UNK         0.0600 
    178 H178       -0.6482  -12.5111  -39.8026 H         1 UNK         0.0600 
    179 H179        2.3572  -13.1395  -42.2113 H         1 UNK         0.3000 
    180 H180        5.0162  -10.9661  -42.4009 H         1 UNK         0.0600 
    181 H181        5.0149  -12.9449  -40.0583 H         1 UNK         0.0600 
    182 H182        5.4190  -11.2360  -39.9544 H         1 UNK         0.0600 
    183 H183        6.4450  -12.3181  -40.8802 H         1 UNK         0.0600 
    184 H184        4.9626  -13.8416  -42.3312 H         1 UNK         0.3000 
    185 H185        5.4993  -14.6907  -44.6108 H         1 UNK         0.0600 
    186 H186        3.6830  -15.6106  -43.2120 H         1 UNK         0.0600 
    187 H187        2.4547  -14.9952  -44.3175 H         1 UNK         0.0600 
    188 H188        3.5230  -16.3062  -44.8109 H         1 UNK         0.0600 
    189 H189        3.8003  -13.2803  -46.4589 H         1 UNK         0.3000 
    190 H190       -1.2521  -19.9425  -48.1128 H         1 UNK         0.3000 
    191 H191       -1.5243  -21.2363  -50.6100 H         1 UNK         0.0600 
    192 H192       -2.5269  -19.0345  -50.1852 H         1 UNK         0.0600 
    193 H193       -3.8101  -20.1604  -50.6086 H         1 UNK         0.0600 
    194 H194       -3.5703  -19.6916  -48.9341 H         1 UNK         0.0600 
    195 H195       -3.1976  -21.9042  -47.5068 H         1 UNK         0.3000 
    196 H196       -4.7746  -24.0622  -48.4127 H         1 UNK         0.0600 
    197 H197       -5.0192  -24.5871  -46.0005 H         1 UNK         0.0600 
    198 H198       -5.1764  -22.8591  -46.2798 H         1 UNK         0.0600 
    199 H199       -3.6816  -23.5134  -45.6113 H         1 UNK         0.0600 
    200 H200       -1.4135  -24.0761  -47.1640 H         1 UNK         0.3000 
    201 H201       -1.1072  -26.9265  -47.2311 H         1 UNK         0.0600 
    202 H202        0.3844  -25.4565  -45.9100 H         1 UNK         0.0600 
    203 H203        0.9848  -24.6913  -47.3785 H         1 UNK         0.0600 
    204 H204        1.3230  -26.3893  -47.0665 H         1 UNK         0.0600 
    205 H205       -0.4691  -24.3515  -49.6305 H         1 UNK         0.3000 
    206 H206        0.7732  -26.0533  -51.5618 H         1 UNK         0.0600 
    207 H207        1.2339  -23.6433  -51.4356 H         1 UNK         0.0600 
    208 H208        0.5848  -24.0288  -53.0226 H         1 UNK         0.0600 
    209 H209       -0.4417  -23.2554  -51.8181 H         1 UNK         0.0600 
    210 H210       -2.5511  -24.6520  -51.4103 H         1 UNK         0.3000 
    211 H211       -3.2910  -26.1679  -53.8773 H         1 UNK         0.0600 
    212 H212       -4.4003  -23.5988  -52.6410 H         1 UNK         0.0600 
    213 H213       -4.9492  -24.3301  -54.1438 H         1 UNK         0.0600 
    214 H214       -3.3148  -23.7095  -54.0234 H         1 UNK         0.0600 
    215 H215       -3.6459  -26.6753  -50.6621 H         1 UNK         0.3000 
    216 H216       -4.8981  -27.9764  -49.3964 H         1 UNK         0.0600 
    217 H217       -6.5057  -29.5709  -50.2628 H         1 UNK         0.0600 
    218 H218       -5.1408  -29.5083  -51.3650 H         1 UNK         0.0600 
    219 H219       -6.6574  -28.7080  -51.7817 H         1 UNK         0.0600 
    220 H220       -5.9687  -25.1435  -50.6444 H         1 UNK         0.3000 
    221 H221       -7.7792  -24.6272  -48.4870 H         1 UNK         0.0600 
    222 H222       -8.8263  -24.5142  -51.3872 H         1 UNK         0.0600 
    223 H223       -9.4313  -25.5895  -50.1284 H         1 UNK         0.0600 
    224 H224       -9.6615  -23.8542  -49.9851 H         1 UNK         0.0600 
    225 H225       -7.9830  -22.2918  -48.2823 H         1 UNK         0.3000 
    226 H226       -5.6065  -20.9363  -49.1444 H         1 UNK         0.0600 
    227 H227       -6.5002  -20.7447  -46.8480 H         1 UNK         0.0600 
    228 H228       -6.3773  -19.1690  -47.6031 H         1 UNK         0.0600 
    229 H229       -7.9512  -19.9455  -47.4578 H         1 UNK         0.0600 
    230 H230       -7.1043  -21.4914  -51.4335 H         1 UNK         0.3000 
    231 H231       -8.5948  -19.1323  -52.3362 H         1 UNK         0.0600 
    232 H232       -7.9003  -21.7712  -53.7289 H         1 UNK         0.0600 
    233 H233       -9.0346  -20.5601  -54.3196 H         1 UNK         0.0600 
    234 H234       -9.3853  -21.4367  -52.8399 H         1 UNK         0.0600 
    235 H235       -6.1891  -18.2090  -51.7397 H         1 UNK         0.3000 
    236 H236       -4.4752  -16.9668  -52.3835 H         1 UNK         0.0600 
    237 H237       -6.2351  -15.8816  -53.7975 H         1 UNK         0.0600 
    238 H238       -4.6329  -15.7249  -54.4953 H         1 UNK         0.0600 
    239 H239       -5.7616  -16.8967  -55.1596 H         1 UNK         0.0600 
    240 H240       -4.1965  -19.8580  -52.6552 H         1 UNK         0.3000 
    241 H241       -2.7099  -21.3567  -53.0049 H         1 UNK         0.0600 
    242 H242       -0.7379  -22.1538  -54.8255 H         1 UNK         0.3800 
    243 H243       -1.5279  -22.2907  -56.3670 H         1 UNK         0.3800 
    244 H244       -1.1368  -19.4569  -52.1725 H         1 UNK         0.0800 
    245 H245       -0.4707  -20.9325  -52.7768 H         1 UNK         0.0800 
    246 H246        1.4657  -21.0317  -54.1280 H         1 UNK         0.0800 
    247 H247        2.2313  -19.6989  -54.9443 H         1 UNK         0.0800 
@<TRIPOS>BOND
     1    1    2 1    
     2    1  127 1    
     3    1  128 1    
     4    1  129 1    
     5    2    3 2    
     6    2    4 am   BACKBONE|DICT|INTERRES
     7    4    5 1    
     8    4  130 1    
     9    5    6 1    
    10    5   65 1    
    11    5  131 1    
    12    6    7 1    
    13    6  132 1    
    14    6  133 1    
    15    7    8 1    
    16    8    9 1    
    17    8  134 1    
    18    8  135 1    
    19    9   10 ar   
    20    9   14 ar   
    21   10   11 ar   
    22   10  136 1    
    23   11   12 ar   
    24   11  126 1    
    25   12   13 ar   
    26   12  137 1    
    27   13   14 ar   
    28   13   15 1    
    29   14  138 1    
    30   15   16 1    
    31   15  139 1    
    32   15  140 1    
    33   16   17 1    
    34   17   18 1    
    35   17  141 1    
    36   17  142 1    
    37   18   19 1    
    38   18   67 1    
    39   18  143 1    
    40   19   20 am   BACKBONE|DICT|INTERRES
    41   19  144 1    
    42   20   21 2    
    43   20   22 1    
    44   22   23 1    
    45   22   24 1    
    46   22  145 1    
    47   23  146 1    
    48   23  147 1    
    49   23  148 1    
    50   24   25 am   BACKBONE|DICT|INTERRES
    51   24  149 1    
    52   25   26 2    
    53   25   27 1    
    54   27   28 1    
    55   27   29 1    
    56   27  150 1    
    57   28  151 1    
    58   28  152 1    
    59   28  153 1    
    60   29   30 am   BACKBONE|DICT|INTERRES
    61   29  154 1    
    62   30   31 2    
    63   30   32 1    
    64   32   33 1    
    65   32   34 1    
    66   32  155 1    
    67   33  156 1    
    68   33  157 1    
    69   33  158 1    
    70   34   35 am   BACKBONE|DICT|INTERRES
    71   34  159 1    
    72   35   36 2    
    73   35   37 1    
    74   37   38 1    
    75   37   39 1    
    76   37  160 1    
    77   38  161 1    
    78   38  162 1    
    79   38  163 1    
    80   39   40 am   BACKBONE|DICT|INTERRES
    81   39  164 1    
    82   40   41 2    
    83   40   42 1    
    84   42   43 1    
    85   42   44 1    
    86   42  165 1    
    87   43  166 1    
    88   43  167 1    
    89   43  168 1    
    90   44   45 am   BACKBONE|DICT|INTERRES
    91   44  169 1    
    92   45   46 2    
    93   45   47 1    
    94   47   48 1    
    95   47   49 1    
    96   47  170 1    
    97   48  171 1    
    98   48  172 1    
    99   48  173 1    
   100   49   50 am   BACKBONE|DICT|INTERRES
   101   49  174 1    
   102   50   51 2    
   103   50   52 1    
   104   52   53 1    
   105   52   54 1    
   106   52  175 1    
   107   53  176 1    
   108   53  177 1    
   109   53  178 1    
   110   54   55 am   BACKBONE|DICT|INTERRES
   111   54  179 1    
   112   55   56 2    
   113   55   57 1    
   114   57   58 1    
   115   57   59 1    
   116   57  180 1    
   117   58  181 1    
   118   58  182 1    
   119   58  183 1    
   120   59   60 am   BACKBONE|DICT|INTERRES
   121   59  184 1    
   122   60   61 2    
   123   60   62 1    
   124   62   63 1    
   125   62   64 1    
   126   62  185 1    
   127   63  186 1    
   128   63  187 1    
   129   63  188 1    
   130   64   65 am   BACKBONE|DICT|INTERRES
   131   64  189 1    
   132   65   66 2    
   133   67   68 2    
   134   67   69 am   BACKBONE|DICT|INTERRES
   135   69   70 1    
   136   69  190 1    
   137   70   71 1    
   138   70   72 1    
   139   70  191 1    
   140   71  192 1    
   141   71  193 1    
   142   71  194 1    
   143   72   73 2    
   144   72   74 am   BACKBONE|DICT|INTERRES
   145   74   75 1    
   146   74  195 1    
   147   75   76 1    
   148   75   77 1    
   149   75  196 1    
   150   76  197 1    
   151   76  198 1    
   152   76  199 1    
   153   77   78 2    
   154   77   79 am   BACKBONE|DICT|INTERRES
   155   79   80 1    
   156   79  200 1    
   157   80   81 1    
   158   80   82 1    
   159   80  201 1    
   160   81  202 1    
   161   81  203 1    
   162   81  204 1    
   163   82   83 2    
   164   82   84 am   BACKBONE|DICT|INTERRES
   165   84   85 1    
   166   84  205 1    
   167   85   86 1    
   168   85   87 1    
   169   85  206 1    
   170   86  207 1    
   171   86  208 1    
   172   86  209 1    
   173   87   88 2    
   174   87   89 am   BACKBONE|DICT|INTERRES
   175   89   90 1    
   176   89  210 1    
   177   90   91 1    
   178   90   92 1    
   179   90  211 1    
   180   91  212 1    
   181   91  213 1    
   182   91  214 1    
   183   92   93 2    
   184   92   94 am   BACKBONE|DICT|INTERRES
   185   94   95 1    
   186   94  215 1    
   187   95   96 1    
   188   95   97 1    
   189   95  216 1    
   190   96  217 1    
   191   96  218 1    
   192   96  219 1    
   193   97   98 2    
   194   97   99 am   BACKBONE|DICT|INTERRES
   195   99  100 1    
   196   99  220 1    
   197  100  101 1    
   198  100  102 1    
   199  100  221 1    
   200  101  222 1    
   201  101  223 1    
   202  101  224 1    
   203  102  103 2    
   204  102  104 am   BACKBONE|DICT|INTERRES
   205  104  105 1    
   206  104  225 1    
   207  105  106 1    
   208  105  107 1    
   209  105  226 1    
   210  106  227 1    
   211  106  228 1    
   212  106  229 1    
   213  107  108 2    
   214  107  109 am   BACKBONE|DICT|INTERRES
   215  109  110 1    
   216  109  230 1    
   217  110  111 1    
   218  110  112 1    
   219  110  231 1    
   220  111  232 1    
   221  111  233 1    
   222  111  234 1    
   223  112  113 2    
   224  112  114 am   BACKBONE|DICT|INTERRES
   225  114  115 1    
   226  114  235 1    
   227  115  116 1    
   228  115  117 1    
   229  115  236 1    
   230  116  237 1    
   231  116  238 1    
   232  116  239 1    
   233  117  118 2    
   234  117  119 am   BACKBONE|DICT|INTERRES
   235  119  120 1    
   236  119  240 1    
   237  120  121 1    
   238  120  124 1    
   239  120  241 1    
   240  121  122 am   BACKBONE|DICT|INTERRES
   241  121  123 2    
   242  122  242 1    
   243  122  243 1    
   244  124  125 1    
   245  124  244 1    
   246  124  245 1    
   247  125  126 1    
   248  126  246 1    
   249  126  247 1    
@<TRIPOS>SUBSTRUCTURE
     1 UNK         1 GROUP             0       ****    0 ROOT    
