@<TRIPOS>MOLECULE
3R540
247   249    1
SMALL
USER_CHARGES


@<TRIPOS>ATOM
      1 CA         -3.7847  -17.2932  -41.2697 C.3       0 UNK        -0.1800 
      2 C          -3.6929  -16.2374  -42.3608 C.2       0 UNK         0.5000 
      3 O          -4.3001  -15.1732  -42.2384 O.2       0 UNK        -0.5000 
      4 N          -2.9508  -16.5364  -43.4349 N.am      1 UNK        -0.5000 
      5 CA         -2.7333  -15.6338  -44.5686 C.3       1 UNK         0.1400 
      6 C6         -2.1224  -16.3773  -45.7837 C.3       23 UNK        -0.0398 
      7 S7         -2.7196  -15.6866  -47.3668 S.3       23 UNK        -0.2404 
      8 C8         -3.0036  -17.1913  -48.3635 C.3       23 UNK        -0.0205 
      9 C9         -1.7960  -17.5842  -49.2094 C.ar      23 UNK        -0.0193 
     10 C10        -1.9570  -17.8511  -50.5725 C.ar      23 UNK        -0.1150 
     11 C11        -0.8634  -18.2063  -51.3688 C.ar      23 UNK        -0.0193 
     12 C12         0.4091  -18.2745  -50.7920 C.ar      23 UNK        -0.1150 
     13 C13         0.5864  -18.0061  -49.4311 C.ar      23 UNK        -0.0193 
     14 C14        -0.5208  -17.6812  -48.6459 C.ar      23 UNK        -0.1150 
     15 C15         1.9786  -17.9954  -48.8203 C.3       23 UNK        -0.0205 
     16 S16         2.4709  -19.6034  -48.1263 S.3       23 UNK        -0.2404 
     17 C17         1.6814  -19.6193  -46.4755 C.3       23 UNK        -0.0398 
     18 CA          1.0312  -20.9950  -46.1838 C.3       11 UNK         0.1400 
     19 N           1.0894  -21.3836  -44.7728 N.am      11 UNK        -0.5000 
     20 C           0.9936  -22.6562  -44.3543 C.2       10 UNK         0.5000 
     21 O           0.9186  -23.6204  -45.1164 O.2       10 UNK        -0.5000 
     22 CA          0.9119  -22.8913  -42.8348 C.3       10 UNK         0.1400 
     23 CB          2.3087  -23.0624  -42.2213 C.3       10 UNK        -0.1800 
     24 N           0.1943  -21.8164  -42.1493 N.am      10 UNK        -0.5000 
     25 C          -1.1259  -21.6178  -42.2719 C.2       9 UNK         0.5000 
     26 O          -1.8639  -22.3535  -42.9258 O.2       9 UNK        -0.5000 
     27 CA         -1.7177  -20.3649  -41.6041 C.3       9 UNK         0.1400 
     28 CB         -2.1950  -20.6844  -40.1805 C.3       9 UNK        -0.1800 
     29 N          -0.7866  -19.2381  -41.5595 N.am      9 UNK        -0.5000 
     30 C          -0.2814  -18.6027  -42.6249 C.2       8 UNK         0.5000 
     31 O          -0.5927  -18.8709  -43.7865 O.2       8 UNK        -0.5000 
     32 CA          0.7455  -17.4893  -42.3466 C.3       8 UNK         0.1400 
     33 CB          0.5064  -16.7753  -41.0002 C.3       8 UNK        -0.1800 
     34 N           2.1340  -17.9494  -42.4367 N.am      8 UNK        -0.5000 
     35 C           2.7125  -19.0016  -41.8361 C.2       7 UNK         0.5000 
     36 O           2.1149  -19.8128  -41.1284 O.2       7 UNK        -0.5000 
     37 CA          4.2260  -19.1633  -42.0526 C.3       7 UNK         0.1400 
     38 CB          4.5250  -19.6996  -43.4630 C.3       7 UNK        -0.1800 
     39 N           4.9066  -17.8823  -41.8767 N.am      7 UNK        -0.5000 
     40 C           5.5437  -17.4831  -40.7682 C.2       6 UNK         0.5000 
     41 O           5.6992  -18.1927  -39.7737 O.2       6 UNK        -0.5000 
     42 CA          6.1027  -16.0434  -40.7655 C.3       6 UNK         0.1400 
     43 CB          7.5627  -16.0341  -41.2434 C.3       6 UNK        -0.1800 
     44 N           5.3231  -15.1259  -41.6001 N.am      6 UNK        -0.5000 
     45 C           4.0836  -14.7058  -41.3119 C.2       5 UNK         0.5000 
     46 O           3.5268  -14.9357  -40.2384 O.2       5 UNK        -0.5000 
     47 CA          3.3221  -13.9156  -42.4002 C.3       5 UNK         0.1400 
     48 CB          3.2686  -12.4228  -42.0414 C.3       5 UNK        -0.1800 
     49 N           3.8284  -14.0518  -43.7728 N.am      5 UNK        -0.5000 
     50 C           3.9694  -15.1977  -44.4532 C.2       4 UNK         0.5000 
     51 O           3.8042  -16.3107  -43.9546 O.2       4 UNK        -0.5000 
     52 CA          4.3177  -15.0630  -45.9484 C.3       4 UNK         0.1400 
     53 CB          4.5407  -16.4300  -46.6272 C.3       4 UNK        -0.1800 
     54 N           3.3082  -14.2787  -46.6704 N.am      4 UNK        -0.5000 
     55 C           1.9862  -14.5047  -46.7070 C.2       3 UNK         0.5000 
     56 O           1.4255  -15.4693  -46.1828 O.2       3 UNK        -0.5000 
     57 CA          1.1414  -13.4683  -47.4654 C.3       3 UNK         0.1400 
     58 CB          0.6458  -14.0395  -48.8026 C.3       3 UNK        -0.1800 
     59 N          -0.0061  -13.0664  -46.6568 N.am      3 UNK        -0.5000 
     60 C           0.0640  -12.2788  -45.5734 C.2       2 UNK         0.5000 
     61 O           1.0938  -11.7118  -45.2063 O.2       2 UNK        -0.5000 
     62 CA         -1.2326  -12.1028  -44.7585 C.3       2 UNK         0.1400 
     63 CB         -2.0165  -10.8759  -45.2485 C.3       2 UNK        -0.1800 
     64 N          -2.0930  -13.2850  -44.8329 N.am      2 UNK        -0.5000 
     65 C          -1.8498  -14.4291  -44.1809 C.2       1 UNK         0.5000 
     66 O          -0.9469  -14.5680  -43.3521 O.2       1 UNK        -0.5000 
     67 C          -0.4079  -21.0984  -46.7219 C.2       11 UNK         0.5000 
     68 O          -0.5897  -21.5940  -47.8294 O.2       11 UNK        -0.5000 
     69 N          -1.4091  -20.7149  -45.9124 N.am      12 UNK        -0.5000 
     70 CA         -2.8332  -20.8891  -46.2229 C.3       12 UNK         0.1400 
     71 CB         -3.6972  -20.2568  -45.1201 C.3       12 UNK        -0.1800 
     72 C          -3.2268  -22.3658  -46.4294 C.2       12 UNK         0.5000 
     73 O          -3.9526  -22.6773  -47.3743 O.2       12 UNK        -0.5000 
     74 N          -2.7074  -23.2513  -45.5671 N.am      13 UNK        -0.5000 
     75 CA         -2.8828  -24.7014  -45.6568 C.3       13 UNK         0.1400 
     76 CB         -2.3071  -25.3660  -44.3972 C.3       13 UNK        -0.1800 
     77 C          -2.2566  -25.3054  -46.9280 C.2       13 UNK         0.5000 
     78 O          -2.8588  -26.1918  -47.5345 O.2       13 UNK        -0.5000 
     79 N          -1.0781  -24.8012  -47.3206 N.am      14 UNK        -0.5000 
     80 CA         -0.3964  -25.1707  -48.5619 C.3       14 UNK         0.1400 
     81 CB          1.0629  -24.6926  -48.5057 C.3       14 UNK        -0.1800 
     82 C          -1.1088  -24.6171  -49.8113 C.2       14 UNK         0.5000 
     83 O          -1.2011  -25.3198  -50.8183 O.2       14 UNK        -0.5000 
     84 N          -1.6025  -23.3750  -49.7172 N.am      15 UNK        -0.5000 
     85 CA         -2.3315  -22.6631  -50.7644 C.3       15 UNK         0.1400 
     86 CB         -2.5533  -21.2084  -50.3309 C.3       15 UNK        -0.1800 
     87 C          -3.6766  -23.3123  -51.1188 C.2       15 UNK         0.5000 
     88 O          -4.0306  -23.3433  -52.2988 O.2       15 UNK        -0.5000 
     89 N          -4.3831  -23.8181  -50.0974 N.am      16 UNK        -0.5000 
     90 CA         -5.6743  -24.5040  -50.1568 C.3       16 UNK         0.1400 
     91 CB         -5.5418  -25.8620  -50.8802 C.3       16 UNK        -0.1800 
     92 C          -6.7762  -23.5971  -50.7384 C.2       16 UNK         0.5000 
     93 O          -7.3804  -22.8289  -49.9888 O.2       16 UNK        -0.5000 
     94 N          -7.0098  -23.6880  -52.0547 N.am      17 UNK        -0.5000 
     95 CA         -7.9441  -22.8397  -52.7963 C.3       17 UNK         0.1400 
     96 CB         -8.2028  -23.4616  -54.1763 C.3       17 UNK        -0.1800 
     97 C          -7.4619  -21.3807  -52.9287 C.2       17 UNK         0.5000 
     98 O          -8.3023  -20.4823  -52.9964 O.2       17 UNK        -0.5000 
     99 N          -6.1336  -21.1788  -52.9235 N.am      18 UNK        -0.5000 
    100 CA        -5.4267  -19.8931  -52.9650 C.3       18 UNK         0.1400 
    101 CB        -5.7347  -19.0755  -51.6908 C.3       18 UNK        -0.1800 
    102 C         -5.6529  -19.0842  -54.2629 C.2       18 UNK         0.5000 
    103 O         -6.2653  -19.5764  -55.2139 O.2       18 UNK        -0.5000 
    104 N         -5.1056  -17.8591  -54.2930 N.am      19 UNK        -0.5000 
    105 CA        -5.1322  -16.9069  -55.4089 C.3       19 UNK         0.1400 
    106 CB        -6.5575  -16.3379  -55.5943 C.3       19 UNK        -0.1800 
    107 C         -4.5178  -17.5148  -56.6883 C.2       19 UNK         0.5000 
    108 O         -3.3467  -17.8954  -56.6688 O.2       19 UNK        -0.5000 
    109 N         -5.3094  -17.6275  -57.7620 N.am      20 UNK        -0.5000 
    110 CA        -4.9207  -18.2540  -59.0277 C.3       20 UNK         0.1400 
    111 CB        -5.9429  -17.8589  -60.1050 C.3       20 UNK        -0.1800 
    112 C         -4.7891  -19.7904  -58.9473 C.2       20 UNK         0.5000 
    113 O         -4.1894  -20.3869  -59.8423 O.2       20 UNK        -0.5000 
    114 N         -5.3443  -20.4022  -57.8934 N.am      21 UNK        -0.5000 
    115 CA        -5.3533  -21.8425  -57.6442 C.3       21 UNK         0.1400 
    116 CB        -6.8163  -22.3019  -57.5052 C.3       21 UNK        -0.1800 
    117 C         -4.5080  -22.1974  -56.4044 C.2       21 UNK         0.5000 
    118 O         -4.8222  -23.1657  -55.7121 O.2       21 UNK        -0.5000 
    119 N         -3.4602  -21.4047  -56.1337 N.am      22 UNK        -0.5000 
    120 CA        -2.5046  -21.6101  -55.0361 C.3       22 UNK         0.1400 
    121 C         -1.7371  -22.9572  -55.1657 C.2       22 UNK         0.5000 
    122 N         -2.0054  -23.9197  -54.2949 N.am      22 UNK        -0.7600 
    123 O         -0.8952  -23.1254  -56.0449 O.2       22 UNK        -0.5000 
    124 C124       -1.5402  -20.4013  -54.9000 C.3       23 UNK        -0.0398 
    125 S125       -0.8302  -20.2661  -53.2244 S.3       23 UNK        -0.2404 
    126 C126       -1.0590  -18.4981  -52.8512 C.3       23 UNK        -0.0205 
    127 H127       -2.8478  -17.3552  -40.7177 H         1 UNK         0.0600 
    128 H128       -4.5783  -17.0487  -40.5634 H         1 UNK         0.0600 
    129 H129       -4.0089  -18.2697  -41.6969 H         1 UNK         0.0600 
    130 H130       -2.4520  -17.4137  -43.4720 H         1 UNK         0.3000 
    131 H131       -3.7198  -15.2553  -44.8471 H         1 UNK         0.0600 
    132 H132       -2.3877  -17.4318  -45.7525 H         1 UNK         0.0800 
    133 H133       -1.0315  -16.3612  -45.7588 H         1 UNK         0.0800 
    134 H134       -3.8606  -16.9961  -49.0098 H         1 UNK         0.0800 
    135 H135       -3.2947  -18.0288  -47.7304 H         1 UNK         0.0800 
    136 H136       -2.9382  -17.7840  -51.0160 H         1 UNK         0.1150 
    137 H137        1.2612  -18.5303  -51.4058 H         1 UNK         0.1150 
    138 H138       -0.3774  -17.4655  -47.5999 H         1 UNK         0.1150 
    139 H139        2.7071  -17.7100  -49.5805 H         1 UNK         0.0800 
    140 H140        2.0364  -17.2274  -48.0515 H         1 UNK         0.0800 
    141 H141        0.9720  -18.7992  -46.3612 H         1 UNK         0.0800 
    142 H142        2.4729  -19.4195  -45.7537 H         1 UNK         0.0800 
    143 H143        1.6144  -21.7464  -46.7218 H         1 UNK         0.0600 
    144 H144        1.0733  -20.6399  -44.0908 H         1 UNK         0.3000 
    145 H145        0.3634  -23.8224  -42.6764 H         1 UNK         0.0600 
    146 H146        2.2438  -23.3095  -41.1616 H         1 UNK         0.0600 
    147 H147        2.8537  -23.8704  -42.7109 H         1 UNK         0.0600 
    148 H148        2.9080  -22.1586  -42.3150 H         1 UNK         0.0600 
    149 H149        0.7510  -21.1525  -41.6181 H         1 UNK         0.3000 
    150 H150       -2.5823  -20.0612  -42.1948 H         1 UNK         0.0600 
    151 H151       -2.9110  -21.5074  -40.1844 H         1 UNK         0.0600 
    152 H152       -2.6913  -19.8263  -39.7273 H         1 UNK         0.0600 
    153 H153       -1.3656  -20.9734  -39.5337 H         1 UNK         0.0600 
    154 H154       -0.4330  -18.9846  -40.6480 H         1 UNK         0.3000 
    155 H155        0.6182  -16.7520  -43.1406 H         1 UNK         0.0600 
    156 H156       -0.5304  -16.4507  -40.9049 H         1 UNK         0.0600 
    157 H157        1.1212  -15.8804  -40.9234 H         1 UNK         0.0600 
    158 H158        0.7426  -17.4090  -40.1449 H         1 UNK         0.0600 
    159 H159        2.7279  -17.3715  -43.0296 H         1 UNK         0.3000 
    160 H160        4.5932  -19.8925  -41.3275 H         1 UNK         0.0600 
    161 H161        3.9720  -20.6152  -43.6710 H         1 UNK         0.0600 
    162 H162        5.5847  -19.9292  -43.5741 H         1 UNK         0.0600 
    163 H163        4.2633  -18.9769  -44.2360 H         1 UNK         0.0600 
    164 H164        4.7711  -17.2092  -42.6252 H         1 UNK         0.3000 
    165 H165        6.0774  -15.6788  -39.7364 H         1 UNK         0.0600 
    166 H166        7.9916  -15.0337  -41.1824 H         1 UNK         0.0600 
    167 H167        8.1793  -16.6890  -40.6264 H         1 UNK         0.0600 
    168 H168        7.6511  -16.3763  -42.2754 H         1 UNK         0.0600 
    169 H169        5.7137  -14.8805  -42.4975 H         1 UNK         0.3000 
    170 H170        2.2987  -14.2962  -42.4052 H         1 UNK         0.0600 
    171 H171        2.8613  -12.2732  -41.0405 H         1 UNK         0.0600 
    172 H172        4.2602  -11.9692  -42.0644 H         1 UNK         0.0600 
    173 H173        2.6300  -11.8734  -42.7336 H         1 UNK         0.0600 
    174 H174        3.9696  -13.1860  -44.2730 H         1 UNK         0.3000 
    175 H175        5.2535  -14.5057  -46.0090 H         1 UNK         0.0600 
    176 H176        5.4073  -16.9362  -46.2007 H         1 UNK         0.0600 
    177 H177        3.6865  -17.0925  -46.4920 H         1 UNK         0.0600 
    178 H178        4.7192  -16.3213  -47.6969 H         1 UNK         0.0600 
    179 H179        3.6591  -13.4515  -47.1326 H         1 UNK         0.3000 
    180 H180        1.7493  -12.5851  -47.6728 H         1 UNK         0.0600 
    181 H181       -0.0016  -14.9037  -48.6557 H         1 UNK         0.0600 
    182 H182        1.4815  -14.3597  -49.4260 H         1 UNK         0.0600 
    183 H183        0.0843  -13.2945  -49.3664 H         1 UNK         0.0600 
    184 H184       -0.8791  -13.5292  -46.8608 H         1 UNK         0.3000 
    185 H185       -0.9526  -11.9352  -43.7161 H         1 UNK         0.0600 
    186 H186       -2.9069  -10.7090  -44.6421 H         1 UNK         0.0600 
    187 H187       -1.4071   -9.9734  -45.1848 H         1 UNK         0.0600 
    188 H188       -2.3320  -10.9862  -46.2868 H         1 UNK         0.0600 
    189 H189       -2.8574  -13.2467  -45.4923 H         1 UNK         0.3000 
    190 H190       -1.1789  -20.2703  -45.0299 H         1 UNK         0.3000 
    191 H191       -3.0279  -20.3575  -47.1555 H         1 UNK         0.0600 
    192 H192       -3.6437  -20.8216  -44.1904 H         1 UNK         0.0600 
    193 H193       -4.7453  -20.2324  -45.4208 H         1 UNK         0.0600 
    194 H194       -3.3988  -19.2337  -44.9036 H         1 UNK         0.0600 
    195 H195       -2.1822  -22.9053  -44.7696 H         1 UNK         0.3000 
    196 H196       -3.9552  -24.9045  -45.6877 H         1 UNK         0.0600 
    197 H197       -1.2390  -25.1738  -44.2926 H         1 UNK         0.0600 
    198 H198       -2.4453  -26.4475  -44.4278 H         1 UNK         0.0600 
    199 H199       -2.8021  -25.0002  -43.4975 H         1 UNK         0.0600 
    200 H200       -0.6341  -24.0940  -46.7487 H         1 UNK         0.3000 
    201 H201       -0.3908  -26.2602  -48.6362 H         1 UNK         0.0600 
    202 H202        1.5843  -25.1172  -47.6476 H         1 UNK         0.0600 
    203 H203        1.1311  -23.6069  -48.4337 H         1 UNK         0.0600 
    204 H204        1.6066  -24.9960  -49.4011 H         1 UNK         0.0600 
    205 H205       -1.3945  -22.8357  -48.8793 H         1 UNK         0.3000 
    206 H206       -1.7081  -22.6674  -51.6597 H         1 UNK         0.0600 
    207 H207       -3.1735  -21.1373  -49.4386 H         1 UNK         0.0600 
    208 H208       -3.0458  -20.6363  -51.1150 H         1 UNK         0.0600 
    209 H209       -1.6047  -20.7157  -50.1202 H         1 UNK         0.0600 
    210 H210       -4.0319  -23.6449  -49.1603 H         1 UNK         0.3000 
    211 H211       -5.9564  -24.7115  -49.1234 H         1 UNK         0.0600 
    212 H212       -5.1805  -25.7600  -51.9037 H         1 UNK         0.0600 
    213 H213       -6.5010  -26.3795  -50.9180 H         1 UNK         0.0600 
    214 H214       -4.8445  -26.5126  -50.3518 H         1 UNK         0.0600 
    215 H215       -6.4256  -24.3053  -52.6010 H         1 UNK         0.3000 
    216 H216       -8.8911  -22.8221  -52.2526 H         1 UNK         0.0600 
    217 H217       -8.8854  -22.8450  -54.7626 H         1 UNK         0.0600 
    218 H218       -8.6537  -24.4498  -54.0852 H         1 UNK         0.0600 
    219 H219       -7.2807  -23.5660  -54.7472 H         1 UNK         0.0600 
    220 H220       -5.5405  -22.0009  -52.8857 H         1 UNK         0.3000 
    221 H221       -4.3655  -20.1361  -52.9510 H         1 UNK         0.0600 
    222 H222       -6.7718  -18.7405  -51.6648 H         1 UNK         0.0600 
    223 H223       -5.5539  -19.6675  -50.7931 H         1 UNK         0.0600 
    224 H224       -5.1098  -18.1870  -51.6165 H         1 UNK         0.0600 
    225 H225       -4.5982  -17.5445  -53.4795 H         1 UNK         0.3000 
    226 H226       -4.4814  -16.0781  -55.1267 H         1 UNK         0.0600 
    227 H227       -6.9081  -15.8684  -54.6751 H         1 UNK         0.0600 
    228 H228       -6.5797  -15.5716  -56.3702 H         1 UNK         0.0600 
    229 H229       -7.2806  -17.1090  -55.8624 H         1 UNK         0.0600 
    230 H230       -6.2657  -17.3113  -57.6900 H         1 UNK         0.3000 
    231 H231       -3.9458  -17.8588  -59.3210 H         1 UNK         0.0600 
    232 H232       -5.6702  -18.2755  -61.0756 H         1 UNK         0.0600 
    233 H233       -5.9953  -16.7762  -60.2218 H         1 UNK         0.0600 
    234 H234       -6.9429  -18.2205  -59.8621 H         1 UNK         0.0600 
    235 H235       -5.7704  -19.8409  -57.1617 H         1 UNK         0.3000 
    236 H236       -4.9117  -22.3810  -58.4847 H         1 UNK         0.0600 
    237 H237       -6.8820  -23.3818  -57.3673 H         1 UNK         0.0600 
    238 H238       -7.3030  -21.8278  -56.6521 H         1 UNK         0.0600 
    239 H239       -7.3919  -22.0556  -58.3975 H         1 UNK         0.0600 
    240 H240       -3.2747  -20.6308  -56.7552 H         1 UNK         0.3000 
    241 H241       -3.1061  -21.6545  -54.1283 H         1 UNK         0.0600 
    242 H242       -1.5167  -24.7981  -54.3567 H         1 UNK         0.3800 
    243 H243       -2.7560  -23.8066  -53.6189 H         1 UNK         0.3800 
    244 H244       -2.0793  -19.4787  -55.1085 H         1 UNK         0.0800 
    245 H245       -0.7339  -20.4438  -55.6341 H         1 UNK         0.0800 
    246 H246       -0.3500  -17.9111  -53.4366 H         1 UNK         0.0800 
    247 H247       -2.0551  -18.1848  -53.1663 H         1 UNK         0.0800 
@<TRIPOS>BOND
     1    1    2 1    
     2    1  127 1    
     3    1  128 1    
     4    1  129 1    
     5    2    3 2    
     6    2    4 am   BACKBONE|DICT|INTERRES
     7    4    5 1    
     8    4  130 1    
     9    5    6 1    
    10    5   65 1    
    11    5  131 1    
    12    6    7 1    
    13    6  132 1    
    14    6  133 1    
    15    7    8 1    
    16    8    9 1    
    17    8  134 1    
    18    8  135 1    
    19    9   10 ar   
    20    9   14 ar   
    21   10   11 ar   
    22   10  136 1    
    23   11   12 ar   
    24   11  126 1    
    25   12   13 ar   
    26   12  137 1    
    27   13   14 ar   
    28   13   15 1    
    29   14  138 1    
    30   15   16 1    
    31   15  139 1    
    32   15  140 1    
    33   16   17 1    
    34   17   18 1    
    35   17  141 1    
    36   17  142 1    
    37   18   19 1    
    38   18   67 1    
    39   18  143 1    
    40   19   20 am   BACKBONE|DICT|INTERRES
    41   19  144 1    
    42   20   21 2    
    43   20   22 1    
    44   22   23 1    
    45   22   24 1    
    46   22  145 1    
    47   23  146 1    
    48   23  147 1    
    49   23  148 1    
    50   24   25 am   BACKBONE|DICT|INTERRES
    51   24  149 1    
    52   25   26 2    
    53   25   27 1    
    54   27   28 1    
    55   27   29 1    
    56   27  150 1    
    57   28  151 1    
    58   28  152 1    
    59   28  153 1    
    60   29   30 am   BACKBONE|DICT|INTERRES
    61   29  154 1    
    62   30   31 2    
    63   30   32 1    
    64   32   33 1    
    65   32   34 1    
    66   32  155 1    
    67   33  156 1    
    68   33  157 1    
    69   33  158 1    
    70   34   35 am   BACKBONE|DICT|INTERRES
    71   34  159 1    
    72   35   36 2    
    73   35   37 1    
    74   37   38 1    
    75   37   39 1    
    76   37  160 1    
    77   38  161 1    
    78   38  162 1    
    79   38  163 1    
    80   39   40 am   BACKBONE|DICT|INTERRES
    81   39  164 1    
    82   40   41 2    
    83   40   42 1    
    84   42   43 1    
    85   42   44 1    
    86   42  165 1    
    87   43  166 1    
    88   43  167 1    
    89   43  168 1    
    90   44   45 am   BACKBONE|DICT|INTERRES
    91   44  169 1    
    92   45   46 2    
    93   45   47 1    
    94   47   48 1    
    95   47   49 1    
    96   47  170 1    
    97   48  171 1    
    98   48  172 1    
    99   48  173 1    
   100   49   50 am   BACKBONE|DICT|INTERRES
   101   49  174 1    
   102   50   51 2    
   103   50   52 1    
   104   52   53 1    
   105   52   54 1    
   106   52  175 1    
   107   53  176 1    
   108   53  177 1    
   109   53  178 1    
   110   54   55 am   BACKBONE|DICT|INTERRES
   111   54  179 1    
   112   55   56 2    
   113   55   57 1    
   114   57   58 1    
   115   57   59 1    
   116   57  180 1    
   117   58  181 1    
   118   58  182 1    
   119   58  183 1    
   120   59   60 am   BACKBONE|DICT|INTERRES
   121   59  184 1    
   122   60   61 2    
   123   60   62 1    
   124   62   63 1    
   125   62   64 1    
   126   62  185 1    
   127   63  186 1    
   128   63  187 1    
   129   63  188 1    
   130   64   65 am   BACKBONE|DICT|INTERRES
   131   64  189 1    
   132   65   66 2    
   133   67   68 2    
   134   67   69 am   BACKBONE|DICT|INTERRES
   135   69   70 1    
   136   69  190 1    
   137   70   71 1    
   138   70   72 1    
   139   70  191 1    
   140   71  192 1    
   141   71  193 1    
   142   71  194 1    
   143   72   73 2    
   144   72   74 am   BACKBONE|DICT|INTERRES
   145   74   75 1    
   146   74  195 1    
   147   75   76 1    
   148   75   77 1    
   149   75  196 1    
   150   76  197 1    
   151   76  198 1    
   152   76  199 1    
   153   77   78 2    
   154   77   79 am   BACKBONE|DICT|INTERRES
   155   79   80 1    
   156   79  200 1    
   157   80   81 1    
   158   80   82 1    
   159   80  201 1    
   160   81  202 1    
   161   81  203 1    
   162   81  204 1    
   163   82   83 2    
   164   82   84 am   BACKBONE|DICT|INTERRES
   165   84   85 1    
   166   84  205 1    
   167   85   86 1    
   168   85   87 1    
   169   85  206 1    
   170   86  207 1    
   171   86  208 1    
   172   86  209 1    
   173   87   88 2    
   174   87   89 am   BACKBONE|DICT|INTERRES
   175   89   90 1    
   176   89  210 1    
   177   90   91 1    
   178   90   92 1    
   179   90  211 1    
   180   91  212 1    
   181   91  213 1    
   182   91  214 1    
   183   92   93 2    
   184   92   94 am   BACKBONE|DICT|INTERRES
   185   94   95 1    
   186   94  215 1    
   187   95   96 1    
   188   95   97 1    
   189   95  216 1    
   190   96  217 1    
   191   96  218 1    
   192   96  219 1    
   193   97   98 2    
   194   97   99 am   BACKBONE|DICT|INTERRES
   195   99  100 1    
   196   99  220 1    
   197  100  101 1    
   198  100  102 1    
   199  100  221 1    
   200  101  222 1    
   201  101  223 1    
   202  101  224 1    
   203  102  103 2    
   204  102  104 am   BACKBONE|DICT|INTERRES
   205  104  105 1    
   206  104  225 1    
   207  105  106 1    
   208  105  107 1    
   209  105  226 1    
   210  106  227 1    
   211  106  228 1    
   212  106  229 1    
   213  107  108 2    
   214  107  109 am   BACKBONE|DICT|INTERRES
   215  109  110 1    
   216  109  230 1    
   217  110  111 1    
   218  110  112 1    
   219  110  231 1    
   220  111  232 1    
   221  111  233 1    
   222  111  234 1    
   223  112  113 2    
   224  112  114 am   BACKBONE|DICT|INTERRES
   225  114  115 1    
   226  114  235 1    
   227  115  116 1    
   228  115  117 1    
   229  115  236 1    
   230  116  237 1    
   231  116  238 1    
   232  116  239 1    
   233  117  118 2    
   234  117  119 am   BACKBONE|DICT|INTERRES
   235  119  120 1    
   236  119  240 1    
   237  120  121 1    
   238  120  124 1    
   239  120  241 1    
   240  121  122 am   BACKBONE|DICT|INTERRES
   241  121  123 2    
   242  122  242 1    
   243  122  243 1    
   244  124  125 1    
   245  124  244 1    
   246  124  245 1    
   247  125  126 1    
   248  126  246 1    
   249  126  247 1    
@<TRIPOS>SUBSTRUCTURE
     1 UNK         1 GROUP             0       ****    0 ROOT    
