@<TRIPOS>MOLECULE
3R540
247   249    1
SMALL
USER_CHARGES


@<TRIPOS>ATOM
      1 CA          4.9904  -11.4656  -44.8222 C.3       0 UNK        -0.1800 
      2 C           3.7924  -12.0706  -45.5377 C.2       0 UNK         0.5000 
      3 O           2.7359  -12.2388  -44.9295 O.2       0 UNK        -0.5000 
      4 N           3.9394  -12.3900  -46.8299 N.am      1 UNK        -0.5000 
      5 CA          2.8867  -12.9881  -47.6604 C.3       1 UNK         0.1400 
      6 C6          3.4389  -13.4855  -49.0194 C.3       23 UNK        -0.0398 
      7 S7          2.4935  -14.8986  -49.6800 S.3       23 UNK        -0.2404 
      8 C8          3.7965  -16.1732  -49.7914 C.3       23 UNK        -0.0205 
      9 C9          3.3163  -17.4802  -50.4154 C.ar      23 UNK        -0.0193 
     10 C10         2.5011  -17.4750  -51.5525 C.ar      23 UNK        -0.1150 
     11 C11         2.0717  -18.6712  -52.1418 C.ar      23 UNK        -0.0193 
     12 C12         2.4974  -19.8823  -51.5874 C.ar      23 UNK        -0.1150 
     13 C13         3.3384  -19.9083  -50.4706 C.ar      23 UNK        -0.0193 
     14 C14         3.7362  -18.7034  -49.8840 C.ar      23 UNK        -0.1150 
     15 C15         3.8501  -21.2378  -49.9278 C.3       23 UNK        -0.0205 
     16 S16         3.2046  -21.6232  -48.2699 S.3       23 UNK        -0.2404 
     17 C17         1.4105  -21.6602  -48.5762 C.3       23 UNK        -0.0398 
     18 CA          0.6587  -22.6940  -47.7026 C.3       11 UNK         0.1400 
     19 N           0.7686  -22.4385  -46.2589 N.am      11 UNK        -0.5000 
     20 C           0.2679  -23.2423  -45.3064 C.2       10 UNK         0.5000 
     21 O          -0.2754  -24.3218  -45.5401 O.2       10 UNK        -0.5000 
     22 CA          0.3220  -22.7402  -43.8524 C.3       10 UNK         0.1400 
     23 CB          1.6869  -23.0356  -43.2136 C.3       10 UNK        -0.1800 
     24 N           0.0015  -21.3172  -43.7343 N.am      10 UNK        -0.5000 
     25 C          -1.1948  -20.7853  -44.0277 C.2       9 UNK         0.5000 
     26 O          -2.1684  -21.4516  -44.3759 O.2       9 UNK        -0.5000 
     27 CA         -1.3148  -19.2506  -43.9816 C.3       9 UNK         0.1400 
     28 CB         -1.5455  -18.7569  -42.5468 C.3       9 UNK        -0.1800 
     29 N          -0.1453  -18.5845  -44.5518 N.am      9 UNK        -0.5000 
     30 C           0.2437  -18.6979  -45.8294 C.2       8 UNK         0.5000 
     31 O          -0.3876  -19.3205  -46.6841 O.2       8 UNK        -0.5000 
     32 CA          1.5913  -18.0539  -46.1967 C.3       8 UNK         0.1400 
     33 CB          1.4173  -16.5697  -46.5427 C.3       8 UNK        -0.1800 
     34 N           2.5790  -18.1865  -45.1249 N.am      8 UNK        -0.5000 
     35 C           3.1305  -19.3468  -44.7456 C.2       7 UNK         0.5000 
     36 O           2.8618  -20.4298  -45.2613 O.2       7 UNK        -0.5000 
     37 CA          4.1063  -19.2902  -43.5563 C.3       7 UNK         0.1400 
     38 CB          5.4486  -18.6721  -43.9771 C.3       7 UNK        -0.1800 
     39 N           3.5587  -18.5460  -42.4213 N.am      7 UNK        -0.5000 
     40 C           2.4884  -18.9317  -41.7126 C.2       6 UNK         0.5000 
     41 O           1.8790  -19.9810  -41.9140 O.2       6 UNK        -0.5000 
     42 CA          1.9856  -17.9704  -40.6180 C.3       6 UNK         0.1400 
     43 CB          2.6912  -18.2642  -39.2856 C.3       6 UNK        -0.1800 
     44 N           2.1226  -16.5434  -40.9304 N.am      6 UNK        -0.5000 
     45 C           1.6653  -15.9292  -42.0304 C.2       5 UNK         0.5000 
     46 O           1.1633  -16.5227  -42.9883 O.2       5 UNK        -0.5000 
     47 CA          1.8396  -14.3972  -42.0652 C.3       5 UNK         0.1400 
     48 CB          3.3156  -14.0320  -42.2913 C.3       5 UNK        -0.1800 
     49 N           1.0330  -13.7502  -43.1016 N.am      5 UNK        -0.5000 
     50 C          -0.3066  -13.7587  -43.1635 C.2       4 UNK         0.5000 
     51 O          -1.0308  -14.2442  -42.2912 O.2       4 UNK        -0.5000 
     52 CA         -0.9250  -13.0930  -44.4101 C.3       4 UNK         0.1400 
     53 CB         -2.4653  -13.0132  -44.3661 C.3       4 UNK        -0.1800 
     54 N          -0.3368  -11.7800  -44.6848 N.am      4 UNK        -0.5000 
     55 C          -0.3478  -10.6943  -43.8946 C.2       3 UNK         0.5000 
     56 O          -0.9465  -10.6320  -42.8201 O.2       3 UNK        -0.5000 
     57 CA          0.4579   -9.4672  -44.3699 C.3       3 UNK         0.1400 
     58 CB          1.6430   -9.2003  -43.4268 C.3       3 UNK        -0.1800 
     59 N           0.9708   -9.6194  -45.7325 N.am      3 UNK        -0.5000 
     60 C           0.2843   -9.3425  -46.8492 C.2       2 UNK         0.5000 
     61 O          -0.8475   -8.8577  -46.8537 O.2       2 UNK        -0.5000 
     62 CA          0.9721   -9.6801  -48.1876 C.3       2 UNK         0.1400 
     63 CB          1.6467   -8.4311  -48.7748 C.3       2 UNK        -0.1800 
     64 N           1.9680  -10.7501  -48.0734 N.am      2 UNK        -0.5000 
     65 C           1.6813  -12.0394  -47.8387 C.2       1 UNK         0.5000 
     66 O           0.5361  -12.4672  -47.6937 O.2       1 UNK        -0.5000 
     67 C          -0.8142  -22.7706  -48.1496 C.2       11 UNK         0.5000 
     68 O          -1.1914  -23.7172  -48.8410 O.2       11 UNK        -0.5000 
     69 N          -1.6233  -21.7915  -47.7197 N.am      12 UNK        -0.5000 
     70 CA         -3.0551  -21.7280  -48.0035 C.3       12 UNK         0.1400 
     71 CB         -3.6216  -20.3778  -47.5429 C.3       12 UNK        -0.1800 
     72 C          -3.8403  -22.8997  -47.3908 C.2       12 UNK         0.5000 
     73 O          -4.6902  -23.4716  -48.0724 O.2       12 UNK        -0.5000 
     74 N          -3.5186  -23.2607  -46.1409 N.am      13 UNK        -0.5000 
     75 CA         -4.0969  -24.3989  -45.4265 C.3       13 UNK         0.1400 
     76 CB         -3.6362  -24.3832  -43.9616 C.3       13 UNK        -0.1800 
     77 C          -3.7661  -25.7472  -46.0894 C.2       13 UNK         0.5000 
     78 O          -4.6660  -26.5695  -46.2620 O.2       13 UNK        -0.5000 
     79 N          -2.5012  -25.9345  -46.4946 N.am      14 UNK        -0.5000 
     80 CA         -2.0259  -27.1163  -47.2213 C.3       14 UNK         0.1400 
     81 CB         -0.4967  -27.0567  -47.3519 C.3       14 UNK        -0.1800 
     82 C          -2.6826  -27.2756  -48.6061 C.2       14 UNK         0.5000 
     83 O          -2.9507  -28.4001  -49.0298 O.2       14 UNK        -0.5000 
     84 N          -2.9649  -26.1443  -49.2632 N.am      15 UNK        -0.5000 
     85 CA         -3.6820  -26.0585  -50.5350 C.3       15 UNK         0.1400 
     86 CB         -3.2345  -24.7763  -51.2468 C.3       15 UNK        -0.1800 
     87 C          -5.2191  -26.0921  -50.3820 C.2       15 UNK         0.5000 
     88 O          -5.9222  -25.9769  -51.3878 O.2       15 UNK        -0.5000 
     89 N          -5.7171  -26.2208  -49.1414 N.am      16 UNK        -0.5000 
     90 CA         -7.1282  -26.2703  -48.7419 C.3       16 UNK         0.1400 
     91 CB         -7.7763  -27.5832  -49.2276 C.3       16 UNK        -0.1800 
     92 C          -7.9304  -25.0182  -49.1577 C.2       16 UNK         0.5000 
     93 O          -9.1165  -25.1248  -49.4759 O.2       16 UNK        -0.5000 
     94 N          -7.2574  -23.8581  -49.1729 N.am      17 UNK        -0.5000 
     95 CA         -7.7009  -22.5195  -49.5816 C.3       17 UNK         0.1400 
     96 CB         -8.8465  -22.0121  -48.6870 C.3       17 UNK        -0.1800 
     97 C          -8.0591  -22.3806  -51.0758 C.2       17 UNK         0.5000 
     98 O          -7.6599  -21.3991  -51.7016 O.2       17 UNK        -0.5000 
     99 N          -8.7910  -23.3542  -51.6281 N.am      18 UNK        -0.5000 
    100 CA        -9.3184  -23.3695  -52.9928 C.3       18 UNK         0.1400 
    101 CB       -10.2290  -24.5954  -53.1590 C.3       18 UNK        -0.1800 
    102 C         -8.2395  -23.3493  -54.0911 C.2       18 UNK         0.5000 
    103 O         -8.4625  -22.7435  -55.1400 O.2       18 UNK        -0.5000 
    104 N         -7.0964  -23.9973  -53.8324 N.am      19 UNK        -0.5000 
    105 CA        -5.9681  -24.0922  -54.7616 C.3       19 UNK         0.1400 
    106 CB        -5.5503  -25.5690  -54.8755 C.3       19 UNK        -0.1800 
    107 C         -4.7809  -23.2057  -54.3366 C.2       19 UNK         0.5000 
    108 O         -3.6971  -23.3500  -54.9037 O.2       19 UNK        -0.5000 
    109 N         -4.9748  -22.3316  -53.3352 N.am      20 UNK        -0.5000 
    110 CA        -3.9156  -21.5142  -52.7349 C.3       20 UNK         0.1400 
    111 CB        -4.4469  -20.8360  -51.4642 C.3       20 UNK        -0.1800 
    112 C         -3.3181  -20.4654  -53.6869 C.2       20 UNK         0.5000 
    113 O         -2.1216  -20.1921  -53.5976 O.2       20 UNK        -0.5000 
    114 N         -4.1606  -19.8957  -54.5621 N.am      21 UNK        -0.5000 
    115 CA        -3.8822  -18.8869  -55.5969 C.3       21 UNK         0.1400 
    116 CB        -2.8772  -19.4187  -56.6366 C.3       21 UNK        -0.1800 
    117 C         -3.4461  -17.5049  -55.0645 C.2       21 UNK         0.5000 
    118 O         -3.9601  -16.4886  -55.5332 O.2       21 UNK        -0.5000 
    119 N         -2.5234  -17.4874  -54.0984 N.am      22 UNK        -0.5000 
    120 CA        -1.9798  -16.2878  -53.4422 C.3       22 UNK         0.1400 
    121 C         -2.9281  -15.6409  -52.3893 C.2       22 UNK         0.5000 
    122 N         -4.0440  -16.2597  -52.0222 N.am      22 UNK        -0.7600 
    123 O         -2.6509  -14.5481  -51.9033 O.2       22 UNK        -0.5000 
    124 C124       -0.5799  -16.5556  -52.8304 C.3       23 UNK        -0.0398 
    125 S125        0.6409  -17.1120  -54.0720 S.3       23 UNK        -0.2404 
    126 C126        1.1726  -18.7208  -53.3819 C.3       23 UNK        -0.0205 
    127 H127        4.7314  -10.4858  -44.4212 H         1 UNK         0.0600 
    128 H128        5.8438  -11.3464  -45.4900 H         1 UNK         0.0600 
    129 H129        5.2925  -12.1053  -43.9933 H         1 UNK         0.0600 
    130 H130        4.8283  -12.2273  -47.2814 H         1 UNK         0.3000 
    131 H131        2.5253  -13.8525  -47.1014 H         1 UNK         0.0600 
    132 H132        3.4587  -12.6883  -49.7649 H         1 UNK         0.0800 
    133 H133        4.4774  -13.7983  -48.9039 H         1 UNK         0.0800 
    134 H134        4.6225  -15.7907  -50.3925 H         1 UNK         0.0800 
    135 H135        4.1914  -16.3538  -48.7903 H         1 UNK         0.0800 
    136 H136        2.2101  -16.5246  -51.9721 H         1 UNK         0.1150 
    137 H137        2.1865  -20.8121  -52.0432 H         1 UNK         0.1150 
    138 H138        4.3871  -18.7228  -49.0209 H         1 UNK         0.1150 
    139 H139        3.6025  -22.0565  -50.6054 H         1 UNK         0.0800 
    140 H140        4.9393  -21.2043  -49.8796 H         1 UNK         0.0800 
    141 H141        1.2515  -21.8863  -49.6324 H         1 UNK         0.0800 
    142 H142        1.0206  -20.6539  -48.4222 H         1 UNK         0.0800 
    143 H143        1.1015  -23.6749  -47.8884 H         1 UNK         0.0600 
    144 H144        1.2576  -21.5942  -45.9807 H         1 UNK         0.3000 
    145 H145       -0.4318  -23.2924  -43.2878 H         1 UNK         0.0600 
    146 H146        1.9230  -24.0986  -43.2747 H         1 UNK         0.0600 
    147 H147        2.4932  -22.4929  -43.7055 H         1 UNK         0.0600 
    148 H148        1.6947  -22.7617  -42.1586 H         1 UNK         0.0600 
    149 H149        0.7449  -20.7112  -43.4027 H         1 UNK         0.3000 
    150 H150       -2.1813  -18.9651  -44.5815 H         1 UNK         0.0600 
    151 H151       -1.6241  -17.6699  -42.5087 H         1 UNK         0.0600 
    152 H152       -0.7357  -19.0586  -41.8840 H         1 UNK         0.0600 
    153 H153       -2.4704  -19.1670  -42.1397 H         1 UNK         0.0600 
    154 H154        0.4095  -18.0051  -43.9268 H         1 UNK         0.3000 
    155 H155        1.9772  -18.5669  -47.0806 H         1 UNK         0.0600 
    156 H156        1.0381  -15.9941  -45.6974 H         1 UNK         0.0600 
    157 H157        0.7202  -16.4397  -47.3715 H         1 UNK         0.0600 
    158 H158        2.3689  -16.1360  -46.8460 H         1 UNK         0.0600 
    159 H159        2.7765  -17.3553  -44.5869 H         1 UNK         0.3000 
    160 H160        4.2920  -20.3159  -43.2301 H         1 UNK         0.0600 
    161 H161        5.8786  -19.2132  -44.8211 H         1 UNK         0.0600 
    162 H162        6.1728  -18.7130  -43.1633 H         1 UNK         0.0600 
    163 H163        5.3394  -17.6292  -44.2769 H         1 UNK         0.0600 
    164 H164        3.9953  -17.6655  -42.1928 H         1 UNK         0.3000 
    165 H165        0.9207  -18.1641  -40.4817 H         1 UNK         0.0600 
    166 H166        2.2633  -17.6764  -38.4733 H         1 UNK         0.0600 
    167 H167        2.5883  -19.3153  -39.0119 H         1 UNK         0.0600 
    168 H168        3.7576  -18.0412  -39.3374 H         1 UNK         0.0600 
    169 H169        2.5416  -15.9771  -40.2070 H         1 UNK         0.3000 
    170 H170        1.5217  -13.9984  -41.1000 H         1 UNK         0.0600 
    171 H171        3.4585  -12.9513  -42.2752 H         1 UNK         0.0600 
    172 H172        3.9553  -14.4511  -41.5140 H         1 UNK         0.0600 
    173 H173        3.6774  -14.4036  -43.2509 H         1 UNK         0.0600 
    174 H174        1.5516  -13.2854  -43.8422 H         1 UNK         0.3000 
    175 H175       -0.6558  -13.7279  -45.2557 H         1 UNK         0.0600 
    176 H176       -2.8200  -12.4297  -43.5162 H         1 UNK         0.0600 
    177 H177       -2.8614  -12.5587  -45.2742 H         1 UNK         0.0600 
    178 H178       -2.9035  -14.0085  -44.2838 H         1 UNK         0.0600 
    179 H179        0.2007  -11.7262  -45.5401 H         1 UNK         0.3000 
    180 H180       -0.2076   -8.6024  -44.3307 H         1 UNK         0.0600 
    181 H181        1.2971   -9.0061  -42.4108 H         1 UNK         0.0600 
    182 H182        2.2142   -8.3284  -43.7458 H         1 UNK         0.0600 
    183 H183        2.3235  -10.0508  -43.3814 H         1 UNK         0.0600 
    184 H184        1.8823  -10.0443  -45.8205 H         1 UNK         0.3000 
    185 H185        0.1963  -10.0089  -48.8824 H         1 UNK         0.0600 
    186 H186        0.9271   -7.6209  -48.9002 H         1 UNK         0.0600 
    187 H187        2.4455   -8.0635  -48.1294 H         1 UNK         0.0600 
    188 H188        2.0747   -8.6379  -49.7559 H         1 UNK         0.0600 
    189 H189        2.9368  -10.4764  -48.1532 H         1 UNK         0.3000 
    190 H190       -1.2288  -21.0283  -47.1766 H         1 UNK         0.3000 
    191 H191       -3.1690  -21.7928  -49.0856 H         1 UNK         0.0600 
    192 H192       -3.5133  -20.2408  -46.4667 H         1 UNK         0.0600 
    193 H193       -4.6831  -20.2987  -47.7807 H         1 UNK         0.0600 
    194 H194       -3.1141  -19.5493  -48.0374 H         1 UNK         0.0600 
    195 H195       -2.8466  -22.6965  -45.6265 H         1 UNK         0.3000 
    196 H196       -5.1823  -24.2806  -45.4407 H         1 UNK         0.0600 
    197 H197       -4.0724  -25.2139  -43.4055 H         1 UNK         0.0600 
    198 H198       -3.9404  -23.4628  -43.4630 H         1 UNK         0.0600 
    199 H199       -2.5523  -24.4654  -43.8795 H         1 UNK         0.0600 
    200 H200       -1.8052  -25.2235  -46.2836 H         1 UNK         0.3000 
    201 H201       -2.2837  -27.9973  -46.6301 H         1 UNK         0.0600 
    202 H202       -0.0187  -27.0337  -46.3725 H         1 UNK         0.0600 
    203 H203       -0.1746  -26.1714  -47.9014 H         1 UNK         0.0600 
    204 H204       -0.1138  -27.9306  -47.8804 H         1 UNK         0.0600 
    205 H205       -2.6575  -25.2647  -48.8624 H         1 UNK         0.3000 
    206 H206       -3.3996  -26.9083  -51.1595 H         1 UNK         0.0600 
    207 H207       -3.6461  -24.7334  -52.2530 H         1 UNK         0.0600 
    208 H208       -3.5623  -23.8859  -50.7094 H         1 UNK         0.0600 
    209 H209       -2.1495  -24.7313  -51.3424 H         1 UNK         0.0600 
    210 H210       -5.0577  -26.2729  -48.3747 H         1 UNK         0.3000 
    211 H211       -7.1346  -26.2822  -47.6513 H         1 UNK         0.0600 
    212 H212       -7.8571  -27.6161  -50.3146 H         1 UNK         0.0600 
    213 H213       -8.7816  -27.6989  -48.8208 H         1 UNK         0.0600 
    214 H214       -7.1973  -28.4495  -48.9077 H         1 UNK         0.0600 
    215 H215       -6.2838  -23.8926  -48.8736 H         1 UNK         0.3000 
    216 H216       -6.8442  -21.8674  -49.4064 H         1 UNK         0.0600 
    217 H217       -9.0992  -20.9791  -48.9292 H         1 UNK         0.0600 
    218 H218       -8.5648  -22.0395  -47.6344 H         1 UNK         0.0600 
    219 H219       -9.7535  -22.6049  -48.8075 H         1 UNK         0.0600 
    220 H220       -9.0636  -24.1227  -51.0197 H         1 UNK         0.3000 
    221 H221       -9.9279  -22.4722  -53.1178 H         1 UNK         0.0600 
    222 H222       -9.6811  -25.5257  -53.0026 H         1 UNK         0.0600 
    223 H223      -11.0564  -24.5711  -52.4495 H         1 UNK         0.0600 
    224 H224      -10.6606  -24.6310  -54.1602 H         1 UNK         0.0600 
    225 H225       -6.9888  -24.4726  -52.9442 H         1 UNK         0.3000 
    226 H226       -6.2640  -23.7577  -55.7577 H         1 UNK         0.0600 
    227 H227       -6.3935  -26.1957  -55.1665 H         1 UNK         0.0600 
    228 H228       -4.7750  -25.7020  -55.6308 H         1 UNK         0.0600 
    229 H229       -5.1579  -25.9525  -53.9338 H         1 UNK         0.0600 
    230 H230       -5.9008  -22.2449  -52.9367 H         1 UNK         0.3000 
    231 H231       -3.1019  -22.1818  -52.4461 H         1 UNK         0.0600 
    232 H232       -5.2543  -20.1379  -51.6874 H         1 UNK         0.0600 
    233 H233       -4.8266  -21.5719  -50.7564 H         1 UNK         0.0600 
    234 H234       -3.6588  -20.2726  -50.9628 H         1 UNK         0.0600 
    235 H235       -5.1249  -20.1933  -54.5136 H         1 UNK         0.3000 
    236 H236       -4.8305  -18.7333  -56.1143 H         1 UNK         0.0600 
    237 H237       -1.8886  -19.5789  -56.2051 H         1 UNK         0.0600 
    238 H238       -3.2140  -20.3640  -57.0622 H         1 UNK         0.0600 
    239 H239       -2.7607  -18.7133  -57.4602 H         1 UNK         0.0600 
    240 H240       -2.1561  -18.3844  -53.7900 H         1 UNK         0.3000 
    241 H241       -1.8504  -15.5295  -54.2168 H         1 UNK         0.0600 
    242 H242       -4.6519  -15.8257  -51.3455 H         1 UNK         0.3800 
    243 H243       -4.2917  -17.1485  -52.4243 H         1 UNK         0.3800 
    244 H244       -0.1828  -15.6482  -52.3716 H         1 UNK         0.0800 
    245 H245       -0.6532  -17.2914  -52.0277 H         1 UNK         0.0800 
    246 H246        1.7060  -19.2570  -54.1678 H         1 UNK         0.0800 
    247 H247        0.2888  -19.3163  -53.1538 H         1 UNK         0.0800 
@<TRIPOS>BOND
     1    1    2 1    
     2    1  127 1    
     3    1  128 1    
     4    1  129 1    
     5    2    3 2    
     6    2    4 am   BACKBONE|DICT|INTERRES
     7    4    5 1    
     8    4  130 1    
     9    5    6 1    
    10    5   65 1    
    11    5  131 1    
    12    6    7 1    
    13    6  132 1    
    14    6  133 1    
    15    7    8 1    
    16    8    9 1    
    17    8  134 1    
    18    8  135 1    
    19    9   10 ar   
    20    9   14 ar   
    21   10   11 ar   
    22   10  136 1    
    23   11   12 ar   
    24   11  126 1    
    25   12   13 ar   
    26   12  137 1    
    27   13   14 ar   
    28   13   15 1    
    29   14  138 1    
    30   15   16 1    
    31   15  139 1    
    32   15  140 1    
    33   16   17 1    
    34   17   18 1    
    35   17  141 1    
    36   17  142 1    
    37   18   19 1    
    38   18   67 1    
    39   18  143 1    
    40   19   20 am   BACKBONE|DICT|INTERRES
    41   19  144 1    
    42   20   21 2    
    43   20   22 1    
    44   22   23 1    
    45   22   24 1    
    46   22  145 1    
    47   23  146 1    
    48   23  147 1    
    49   23  148 1    
    50   24   25 am   BACKBONE|DICT|INTERRES
    51   24  149 1    
    52   25   26 2    
    53   25   27 1    
    54   27   28 1    
    55   27   29 1    
    56   27  150 1    
    57   28  151 1    
    58   28  152 1    
    59   28  153 1    
    60   29   30 am   BACKBONE|DICT|INTERRES
    61   29  154 1    
    62   30   31 2    
    63   30   32 1    
    64   32   33 1    
    65   32   34 1    
    66   32  155 1    
    67   33  156 1    
    68   33  157 1    
    69   33  158 1    
    70   34   35 am   BACKBONE|DICT|INTERRES
    71   34  159 1    
    72   35   36 2    
    73   35   37 1    
    74   37   38 1    
    75   37   39 1    
    76   37  160 1    
    77   38  161 1    
    78   38  162 1    
    79   38  163 1    
    80   39   40 am   BACKBONE|DICT|INTERRES
    81   39  164 1    
    82   40   41 2    
    83   40   42 1    
    84   42   43 1    
    85   42   44 1    
    86   42  165 1    
    87   43  166 1    
    88   43  167 1    
    89   43  168 1    
    90   44   45 am   BACKBONE|DICT|INTERRES
    91   44  169 1    
    92   45   46 2    
    93   45   47 1    
    94   47   48 1    
    95   47   49 1    
    96   47  170 1    
    97   48  171 1    
    98   48  172 1    
    99   48  173 1    
   100   49   50 am   BACKBONE|DICT|INTERRES
   101   49  174 1    
   102   50   51 2    
   103   50   52 1    
   104   52   53 1    
   105   52   54 1    
   106   52  175 1    
   107   53  176 1    
   108   53  177 1    
   109   53  178 1    
   110   54   55 am   BACKBONE|DICT|INTERRES
   111   54  179 1    
   112   55   56 2    
   113   55   57 1    
   114   57   58 1    
   115   57   59 1    
   116   57  180 1    
   117   58  181 1    
   118   58  182 1    
   119   58  183 1    
   120   59   60 am   BACKBONE|DICT|INTERRES
   121   59  184 1    
   122   60   61 2    
   123   60   62 1    
   124   62   63 1    
   125   62   64 1    
   126   62  185 1    
   127   63  186 1    
   128   63  187 1    
   129   63  188 1    
   130   64   65 am   BACKBONE|DICT|INTERRES
   131   64  189 1    
   132   65   66 2    
   133   67   68 2    
   134   67   69 am   BACKBONE|DICT|INTERRES
   135   69   70 1    
   136   69  190 1    
   137   70   71 1    
   138   70   72 1    
   139   70  191 1    
   140   71  192 1    
   141   71  193 1    
   142   71  194 1    
   143   72   73 2    
   144   72   74 am   BACKBONE|DICT|INTERRES
   145   74   75 1    
   146   74  195 1    
   147   75   76 1    
   148   75   77 1    
   149   75  196 1    
   150   76  197 1    
   151   76  198 1    
   152   76  199 1    
   153   77   78 2    
   154   77   79 am   BACKBONE|DICT|INTERRES
   155   79   80 1    
   156   79  200 1    
   157   80   81 1    
   158   80   82 1    
   159   80  201 1    
   160   81  202 1    
   161   81  203 1    
   162   81  204 1    
   163   82   83 2    
   164   82   84 am   BACKBONE|DICT|INTERRES
   165   84   85 1    
   166   84  205 1    
   167   85   86 1    
   168   85   87 1    
   169   85  206 1    
   170   86  207 1    
   171   86  208 1    
   172   86  209 1    
   173   87   88 2    
   174   87   89 am   BACKBONE|DICT|INTERRES
   175   89   90 1    
   176   89  210 1    
   177   90   91 1    
   178   90   92 1    
   179   90  211 1    
   180   91  212 1    
   181   91  213 1    
   182   91  214 1    
   183   92   93 2    
   184   92   94 am   BACKBONE|DICT|INTERRES
   185   94   95 1    
   186   94  215 1    
   187   95   96 1    
   188   95   97 1    
   189   95  216 1    
   190   96  217 1    
   191   96  218 1    
   192   96  219 1    
   193   97   98 2    
   194   97   99 am   BACKBONE|DICT|INTERRES
   195   99  100 1    
   196   99  220 1    
   197  100  101 1    
   198  100  102 1    
   199  100  221 1    
   200  101  222 1    
   201  101  223 1    
   202  101  224 1    
   203  102  103 2    
   204  102  104 am   BACKBONE|DICT|INTERRES
   205  104  105 1    
   206  104  225 1    
   207  105  106 1    
   208  105  107 1    
   209  105  226 1    
   210  106  227 1    
   211  106  228 1    
   212  106  229 1    
   213  107  108 2    
   214  107  109 am   BACKBONE|DICT|INTERRES
   215  109  110 1    
   216  109  230 1    
   217  110  111 1    
   218  110  112 1    
   219  110  231 1    
   220  111  232 1    
   221  111  233 1    
   222  111  234 1    
   223  112  113 2    
   224  112  114 am   BACKBONE|DICT|INTERRES
   225  114  115 1    
   226  114  235 1    
   227  115  116 1    
   228  115  117 1    
   229  115  236 1    
   230  116  237 1    
   231  116  238 1    
   232  116  239 1    
   233  117  118 2    
   234  117  119 am   BACKBONE|DICT|INTERRES
   235  119  120 1    
   236  119  240 1    
   237  120  121 1    
   238  120  124 1    
   239  120  241 1    
   240  121  122 am   BACKBONE|DICT|INTERRES
   241  121  123 2    
   242  122  242 1    
   243  122  243 1    
   244  124  125 1    
   245  124  244 1    
   246  124  245 1    
   247  125  126 1    
   248  126  246 1    
   249  126  247 1    
@<TRIPOS>SUBSTRUCTURE
     1 UNK         1 GROUP             0       ****    0 ROOT    
