@<TRIPOS>MOLECULE
3R540
247   249    1
SMALL
USER_CHARGES


@<TRIPOS>ATOM
      1 CA          3.3451  -11.2947  -48.9346 C.3       0 UNK        -0.1800 
      2 C           2.2016  -11.8914  -48.1287 C.2       0 UNK         0.5000 
      3 O           2.1752  -11.7452  -46.9050 O.2       0 UNK        -0.5000 
      4 N           1.2460  -12.5429  -48.8053 N.am      1 UNK        -0.5000 
      5 CA          0.0816  -13.2417  -48.2384 C.3       1 UNK         0.1400 
      6 C6         -0.5185  -14.2613  -49.2423 C.3       23 UNK        -0.0398 
      7 S7          0.6471  -15.5761  -49.7398 S.3       23 UNK        -0.2404 
      8 C8         -0.5484  -16.8595  -50.2241 C.3       23 UNK        -0.0205 
      9 C9          0.1009  -18.0470  -50.9134 C.ar      23 UNK        -0.0193 
     10 C10         0.6203  -17.9002  -52.2014 C.ar      23 UNK        -0.1150 
     11 C11         1.1444  -18.9978  -52.8859 C.ar      23 UNK        -0.0193 
     12 C12         1.1750  -20.2464  -52.2598 C.ar      23 UNK        -0.1150 
     13 C13         0.6549  -20.4098  -50.9730 C.ar      23 UNK        -0.0193 
     14 C14         0.1182  -19.3055  -50.3023 C.ar      23 UNK        -0.1150 
     15 C15         0.6186  -21.7951  -50.3472 C.3       23 UNK        -0.0205 
     16 S16         2.0678  -22.1203  -49.2911 S.3       23 UNK        -0.2404 
     17 C17         1.4631  -21.5851  -47.6532 C.3       23 UNK        -0.0398 
     18 CA          0.9291  -22.7511  -46.7826 C.3       11 UNK         0.1400 
     19 N           0.7348  -22.3484  -45.3890 N.am      11 UNK        -0.5000 
     20 C           0.3860  -23.1666  -44.3857 C.2       10 UNK         0.5000 
     21 O           0.2484  -24.3835  -44.5082 O.2       10 UNK        -0.5000 
     22 CA          0.0861  -22.5058  -43.0282 C.3       10 UNK         0.1400 
     23 CB          1.3852  -22.1835  -42.2755 C.3       10 UNK        -0.1800 
     24 N          -0.7258  -21.2944  -43.1614 N.am      10 UNK        -0.5000 
     25 C          -1.9757  -21.2723  -43.6480 C.2       9 UNK         0.5000 
     26 O          -2.5922  -22.2798  -43.9950 O.2       9 UNK        -0.5000 
     27 CA         -2.6330  -19.8913  -43.8189 C.3       9 UNK         0.1400 
     28 CB         -3.1583  -19.3635  -42.4758 C.3       9 UNK        -0.1800 
     29 N          -1.7305  -18.9071  -44.4153 N.am      9 UNK        -0.5000 
     30 C          -1.2121  -18.9964  -45.6486 C.2       8 UNK         0.5000 
     31 O          -1.4670  -19.9034  -46.4404 O.2       8 UNK        -0.5000 
     32 CA         -0.1953  -17.9137  -46.0460 C.3       8 UNK         0.1400 
     33 CB         -0.9120  -16.6025  -46.3896 C.3       8 UNK        -0.1800 
     34 N           0.8009  -17.6709  -45.0019 N.am      8 UNK        -0.5000 
     35 C           1.6498  -18.5941  -44.5276 C.2       7 UNK         0.5000 
     36 O           1.7322  -19.7391  -44.9672 O.2       7 UNK        -0.5000 
     37 CA          2.5129  -18.1899  -43.3224 C.3       7 UNK         0.1400 
     38 CB          3.7700  -17.4362  -43.7789 C.3       7 UNK        -0.1800 
     39 N           1.7581  -17.3799  -42.3663 N.am      7 UNK        -0.5000 
     40 C           0.7674  -17.8550  -41.5969 C.2       6 UNK         0.5000 
     41 O           0.4157  -19.0347  -41.5871 O.2       6 UNK        -0.5000 
     42 CA          0.0163  -16.8305  -40.7266 C.3       6 UNK         0.1400 
     43 CB          0.7795  -16.5636  -39.4209 C.3       6 UNK        -0.1800 
     44 N          -0.2119  -15.5644  -41.4253 N.am      6 UNK        -0.5000 
     45 C          -1.0177  -15.4250  -42.4875 C.2       5 UNK         0.5000 
     46 O          -1.6938  -16.3424  -42.9522 O.2       5 UNK        -0.5000 
     47 CA         -1.0357  -14.0442  -43.1735 C.3       5 UNK         0.1400 
     48 CB         -2.1193  -13.1494  -42.5558 C.3       5 UNK        -0.1800 
     49 N           0.2539  -13.3468  -43.1322 N.am      5 UNK        -0.5000 
     50 C           1.3901  -13.8037  -43.6777 C.2       4 UNK         0.5000 
     51 O           1.4653  -14.8800  -44.2730 O.2       4 UNK        -0.5000 
     52 CA          2.6274  -12.8993  -43.5326 C.3       4 UNK         0.1400 
     53 CB          3.8586  -13.4462  -44.2762 C.3       4 UNK        -0.1800 
     54 N           2.3172  -11.5742  -44.0572 N.am      4 UNK        -0.5000 
     55 C           2.1062  -10.4703  -43.3300 C.2       3 UNK         0.5000 
     56 O           2.1832  -10.4294  -42.1019 O.2       3 UNK        -0.5000 
     57 CA          1.6931   -9.2118  -44.1144 C.3       3 UNK         0.1400 
     58 CB          2.9187   -8.5437  -44.7566 C.3       3 UNK        -0.1800 
     59 N           0.7143   -9.5284  -45.1550 N.am      3 UNK        -0.5000 
     60 C          -0.5668   -9.8496  -44.9184 C.2       2 UNK         0.5000 
     61 O          -1.0909   -9.8067  -43.8057 O.2       2 UNK        -0.5000 
     62 CA         -1.3734  -10.3595  -46.1191 C.3       2 UNK         0.1400 
     63 CB         -1.7990   -9.2055  -47.0444 C.3       2 UNK        -0.1800 
     64 N          -0.5677  -11.3384  -46.8403 N.am      2 UNK        -0.5000 
     65 C          -0.9974  -12.2725  -47.6888 C.2       1 UNK         0.5000 
     66 O          -2.1761  -12.3844  -48.0299 O.2       1 UNK        -0.5000 
     67 C          -0.3570  -23.3642  -47.3703 C.2       11 UNK         0.5000 
     68 O          -0.3000  -24.4592  -47.9265 O.2       11 UNK        -0.5000 
     69 N          -1.4917  -22.6675  -47.2129 N.am      12 UNK        -0.5000 
     70 CA         -2.8066  -23.1049  -47.6829 C.3       12 UNK         0.1400 
     71 CB         -3.8374  -21.9948  -47.4257 C.3       12 UNK        -0.1800 
     72 C          -3.2560  -24.4378  -47.0563 C.2       12 UNK         0.5000 
     73 O          -3.7486  -25.3117  -47.7709 O.2       12 UNK        -0.5000 
     74 N          -3.0297  -24.5901  -45.7439 N.am      13 UNK        -0.5000 
     75 CA         -3.2862  -25.8199  -44.9954 C.3       13 UNK         0.1400 
     76 CB         -3.1094  -25.5533  -43.4929 C.3       13 UNK        -0.1800 
     77 C          -2.4017  -26.9957  -45.4513 C.2       13 UNK         0.5000 
     78 O          -2.9083  -28.1084  -45.5973 O.2       13 UNK        -0.5000 
     79 N          -1.1086  -26.7292  -45.6845 N.am      14 UNK        -0.5000 
     80 CA         -0.1339  -27.7097  -46.1660 C.3       14 UNK         0.1400 
     81 CB          1.2856  -27.1413  -46.0145 C.3       14 UNK        -0.1800 
     82 C          -0.3936  -28.1475  -47.6191 C.2       14 UNK         0.5000 
     83 O          -0.3086  -29.3392  -47.9190 O.2       14 UNK        -0.5000 
     84 N          -0.7127  -27.1812  -48.4902 N.am      15 UNK        -0.5000 
     85 CA         -1.0323  -27.4003  -49.9015 C.3       15 UNK         0.1400 
     86 CB         -0.9750  -26.0548  -50.6436 C.3       15 UNK        -0.1800 
     87 C          -2.4062  -28.0598  -50.1180 C.2       15 UNK         0.5000 
     88 O          -2.5966  -28.7249  -51.1369 O.2       15 UNK        -0.5000 
     89 N          -3.3330  -27.8405  -49.1727 N.am      16 UNK        -0.5000 
     90 CA         -4.7532  -28.2011  -49.2158 C.3       16 UNK         0.1400 
     91 CB         -4.9427  -29.7323  -49.2100 C.3       16 UNK        -0.1800 
     92 C          -5.4786  -27.4910  -50.3785 C.2       16 UNK         0.5000 
     93 O          -6.2558  -28.1111  -51.1073 O.2       16 UNK        -0.5000 
     94 N          -5.1825  -26.1970  -50.5390 N.am      17 UNK        -0.5000 
     95 CA         -5.6818  -25.3268  -51.5970 C.3       17 UNK         0.1400 
     96 CB         -4.7678  -25.4412  -52.8294 C.3       17 UNK        -0.1800 
     97 C          -5.7183  -23.8873  -51.0699 C.2       17 UNK         0.5000 
     98 O          -4.9950  -23.5651  -50.1262 O.2       17 UNK        -0.5000 
     99 N          -6.5581  -23.0452  -51.6813 N.am      18 UNK        -0.5000 
    100 CA        -6.7249  -21.6410  -51.3088 C.3       18 UNK         0.1400 
    101 CB        -7.9466  -21.0697  -52.0462 C.3       18 UNK        -0.1800 
    102 C         -5.4762  -20.7969  -51.6221 C.2       18 UNK         0.5000 
    103 O         -4.8623  -20.9742  -52.6765 O.2       18 UNK        -0.5000 
    104 N         -5.1752  -19.8398  -50.7340 N.am      19 UNK        -0.5000 
    105 CA        -4.1076  -18.8443  -50.8877 C.3       19 UNK         0.1400 
    106 CB        -4.0197  -18.0166  -49.5953 C.3       19 UNK        -0.1800 
    107 C         -4.3039  -17.9194  -52.1068 C.2       19 UNK         0.5000 
    108 O         -3.3252  -17.4462  -52.6850 O.2       19 UNK        -0.5000 
    109 N         -5.5680  -17.7191  -52.5050 N.am      20 UNK        -0.5000 
    110 CA        -6.0009  -16.9371  -53.6654 C.3       20 UNK         0.1400 
    111 CB        -7.5354  -16.8501  -53.6457 C.3       20 UNK        -0.1800 
    112 C         -5.5083  -17.4700  -55.0288 C.2       20 UNK         0.5000 
    113 O         -5.6160  -16.7504  -56.0226 O.2       20 UNK        -0.5000 
    114 N         -4.9758  -18.7013  -55.0640 N.am      21 UNK        -0.5000 
    115 CA        -4.3710  -19.3216  -56.2435 C.3       21 UNK         0.1400 
    116 CB        -4.0424  -20.7882  -55.9257 C.3       21 UNK        -0.1800 
    117 C         -3.1134  -18.5890  -56.7549 C.2       21 UNK         0.5000 
    118 O         -2.8558  -18.6178  -57.9595 O.2       21 UNK        -0.5000 
    119 N         -2.3647  -17.9421  -55.8517 N.am      22 UNK        -0.5000 
    120 CA        -1.1450  -17.1837  -56.1773 C.3       22 UNK         0.1400 
    121 C         -0.7699  -16.0640  -55.1655 C.2       22 UNK         0.5000 
    122 N         -1.4813  -15.8588  -54.0640 N.am      22 UNK        -0.7600 
    123 O          0.1811  -15.3245  -55.4034 O.2       22 UNK        -0.5000 
    124 C124        0.0649  -18.0804  -56.5784 C.3       23 UNK        -0.0398 
    125 S125        0.3806  -19.4999  -55.4718 S.3       23 UNK        -0.2404 
    126 C126        1.6303  -18.8503  -54.3177 C.3       23 UNK        -0.0205 
    127 H127        3.3819  -10.2152  -48.7893 H         1 UNK         0.0600 
    128 H128        3.2366  -11.4927  -50.0012 H         1 UNK         0.0600 
    129 H129        4.2941  -11.7168  -48.6041 H         1 UNK         0.0600 
    130 H130        1.3273  -12.6074  -49.8099 H         1 UNK         0.3000 
    131 H131        0.4411  -13.8014  -47.3734 H         1 UNK         0.0600 
    132 H132       -0.8684  -13.7519  -50.1419 H         1 UNK         0.0800 
    133 H133       -1.3958  -14.7426  -48.8063 H         1 UNK         0.0800 
    134 H134       -1.0844  -17.1930  -49.3375 H         1 UNK         0.0800 
    135 H135       -1.2906  -16.4277  -50.8974 H         1 UNK         0.0800 
    136 H136        0.5922  -16.9317  -52.6785 H         1 UNK         0.1150 
    137 H137        1.5707  -21.0998  -52.7926 H         1 UNK         0.1150 
    138 H138       -0.3110  -19.4303  -49.3184 H         1 UNK         0.1150 
    139 H139       -0.3088  -21.9208  -49.7891 H         1 UNK         0.0800 
    140 H140        0.5915  -22.5529  -51.1318 H         1 UNK         0.0800 
    141 H141        0.7182  -20.7974  -47.7610 H         1 UNK         0.0800 
    142 H142        2.3117  -21.1198  -47.1509 H         1 UNK         0.0800 
    143 H143        1.6882  -23.5363  -46.7738 H         1 UNK         0.0600 
    144 H144        0.8783  -21.3619  -45.1847 H         1 UNK         0.3000 
    145 H145       -0.4823  -23.2213  -42.4305 H         1 UNK         0.0600 
    146 H146        1.1764  -21.7807  -41.2842 H         1 UNK         0.0600 
    147 H147        1.9911  -23.0804  -42.1417 H         1 UNK         0.0600 
    148 H148        1.9922  -21.4541  -42.8115 H         1 UNK         0.0600 
    149 H149       -0.3017  -20.4250  -42.8536 H         1 UNK         0.3000 
    150 H150       -3.4843  -20.0107  -44.4921 H         1 UNK         0.0600 
    151 H151       -3.8476  -20.0746  -42.0189 H         1 UNK         0.0600 
    152 H152       -3.6974  -18.4249  -42.6060 H         1 UNK         0.0600 
    153 H153       -2.3491  -19.1870  -41.7667 H         1 UNK         0.0600 
    154 H154       -1.5027  -18.0971  -43.8466 H         1 UNK         0.3000 
    155 H155        0.3325  -18.2589  -46.9374 H         1 UNK         0.0600 
    156 H156       -0.1992  -15.8594  -46.7381 H         1 UNK         0.0600 
    157 H157       -1.6538  -16.7515  -47.1736 H         1 UNK         0.0600 
    158 H158       -1.4365  -16.1869  -45.5319 H         1 UNK         0.0600 
    159 H159        0.8467  -16.7325  -44.6171 H         1 UNK         0.3000 
    160 H160        2.8334  -19.1017  -42.8141 H         1 UNK         0.0600 
    161 H161        3.5209  -16.5648  -44.3835 H         1 UNK         0.0600 
    162 H162        4.4043  -18.0805  -44.3888 H         1 UNK         0.0600 
    163 H163        4.3658  -17.1022  -42.9294 H         1 UNK         0.0600 
    164 H164        1.9451  -16.3884  -42.3646 H         1 UNK         0.3000 
    165 H165       -0.9555  -17.2593  -40.4722 H         1 UNK         0.0600 
    166 H166        0.2181  -15.8976  -38.7654 H         1 UNK         0.0600 
    167 H167        0.9488  -17.4911  -38.8721 H         1 UNK         0.0600 
    168 H168        1.7537  -16.1097  -39.6068 H         1 UNK         0.0600 
    169 H169        0.3037  -14.7599  -41.1008 H         1 UNK         0.3000 
    170 H170       -1.2884  -14.2021  -44.2234 H         1 UNK         0.0600 
    171 H171       -3.0918  -13.6433  -42.5745 H         1 UNK         0.0600 
    172 H172       -1.8953  -12.9028  -41.5173 H         1 UNK         0.0600 
    173 H173       -2.2221  -12.2159  -43.1086 H         1 UNK         0.0600 
    174 H174        0.2691  -12.4485  -42.6700 H         1 UNK         0.3000 
    175 H175        2.8719  -12.8467  -42.4700 H         1 UNK         0.0600 
    176 H176        4.1867  -14.3908  -43.8437 H         1 UNK         0.0600 
    177 H177        3.6512  -13.6165  -45.3336 H         1 UNK         0.0600 
    178 H178        4.6979  -12.7540  -44.2088 H         1 UNK         0.0600 
    179 H179        2.2310  -11.5217  -45.0695 H         1 UNK         0.3000 
    180 H180        1.2444   -8.5049  -43.4131 H         1 UNK         0.0600 
    181 H181        3.3991   -9.1963  -45.4872 H         1 UNK         0.0600 
    182 H182        3.6644   -8.2898  -44.0021 H         1 UNK         0.0600 
    183 H183        2.6424   -7.6191  -45.2637 H         1 UNK         0.0600 
    184 H184        1.0647   -9.5663  -46.1009 H         1 UNK         0.3000 
    185 H185       -2.2672  -10.8557  -45.7349 H         1 UNK         0.0600 
    186 H186       -2.3636   -8.4524  -46.4933 H         1 UNK         0.0600 
    187 H187       -0.9379   -8.7096  -47.4936 H         1 UNK         0.0600 
    188 H188       -2.4381   -9.5610  -47.8527 H         1 UNK         0.0600 
    189 H189        0.4255  -11.3536  -46.6229 H         1 UNK         0.3000 
    190 H190       -1.4553  -21.7552  -46.7641 H         1 UNK         0.3000 
    191 H191       -2.7311  -23.2581  -48.7609 H         1 UNK         0.0600 
    192 H192       -3.8974  -21.7369  -46.3685 H         1 UNK         0.0600 
    193 H193       -4.8337  -22.3018  -47.7451 H         1 UNK         0.0600 
    194 H194       -3.5841  -21.0900  -47.9782 H         1 UNK         0.0600 
    195 H195       -2.6583  -23.8044  -45.2170 H         1 UNK         0.3000 
    196 H196       -4.3268  -26.1022  -45.1683 H         1 UNK         0.0600 
    197 H197       -3.3107  -26.4525  -42.9094 H         1 UNK         0.0600 
    198 H198       -3.7957  -24.7802  -43.1472 H         1 UNK         0.0600 
    199 H199       -2.0956  -25.2279  -43.2578 H         1 UNK         0.0600 
    200 H200       -0.7578  -25.7941  -45.4998 H         1 UNK         0.3000 
    201 H201       -0.2095  -28.5971  -45.5341 H         1 UNK         0.0600 
    202 H202        1.5084  -26.9131  -44.9721 H         1 UNK         0.0600 
    203 H203        1.4171  -26.2254  -46.5916 H         1 UNK         0.0600 
    204 H204        2.0330  -27.8574  -46.3580 H         1 UNK         0.0600 
    205 H205       -0.6988  -26.2121  -48.1752 H         1 UNK         0.3000 
    206 H206       -0.2737  -28.0600  -50.3276 H         1 UNK         0.0600 
    207 H207        0.0095  -25.5951  -50.5536 H         1 UNK         0.0600 
    208 H208       -1.1784  -26.1842  -51.7073 H         1 UNK         0.0600 
    209 H209       -1.7102  -25.3496  -50.2523 H         1 UNK         0.0600 
    210 H210       -3.0794  -27.2205  -48.4122 H         1 UNK         0.3000 
    211 H211       -5.1934  -27.8121  -48.2964 H         1 UNK         0.0600 
    212 H212       -4.5815  -30.1929  -50.1297 H         1 UNK         0.0600 
    213 H213       -5.9968  -29.9926  -49.1079 H         1 UNK         0.0600 
    214 H214       -4.4128  -30.1899  -48.3745 H         1 UNK         0.0600 
    215 H215       -4.5989  -25.7311  -49.8504 H         1 UNK         0.3000 
    216 H216       -6.6991  -25.6208  -51.8639 H         1 UNK         0.0600 
    217 H217       -3.7412  -25.1580  -52.5927 H         1 UNK         0.0600 
    218 H218       -5.1110  -24.7920  -53.6357 H         1 UNK         0.0600 
    219 H219       -4.7518  -26.4603  -53.2163 H         1 UNK         0.0600 
    220 H220       -7.0910  -23.3674  -52.4756 H         1 UNK         0.3000 
    221 H221       -6.9189  -21.5989  -50.2347 H         1 UNK         0.0600 
    222 H222       -8.8505  -21.6302  -51.8067 H         1 UNK         0.0600 
    223 H223       -7.8119  -21.0955  -53.1285 H         1 UNK         0.0600 
    224 H224       -8.1262  -20.0317  -51.7632 H         1 UNK         0.0600 
    225 H225       -5.7335  -19.7636  -49.8961 H         1 UNK         0.3000 
    226 H226       -3.1617  -19.3718  -51.0294 H         1 UNK         0.0600 
    227 H227       -3.6381  -18.6159  -48.7681 H         1 UNK         0.0600 
    228 H228       -3.3557  -17.1616  -49.7133 H         1 UNK         0.0600 
    229 H229       -4.9936  -17.6215  -49.3040 H         1 UNK         0.0600 
    230 H230       -6.3010  -18.1563  -51.9675 H         1 UNK         0.3000 
    231 H231       -5.5973  -15.9289  -53.5525 H         1 UNK         0.0600 
    232 H232       -7.9941  -17.8359  -53.7334 H         1 UNK         0.0600 
    233 H233       -7.9054  -16.2413  -54.4718 H         1 UNK         0.0600 
    234 H234       -7.8939  -16.3925  -52.7234 H         1 UNK         0.0600 
    235 H235       -4.9338  -19.2368  -54.2061 H         1 UNK         0.3000 
    236 H236       -5.1118  -19.3036  -57.0455 H         1 UNK         0.0600 
    237 H237       -4.9355  -21.3387  -55.6291 H         1 UNK         0.0600 
    238 H238       -3.6225  -21.2931  -56.7966 H         1 UNK         0.0600 
    239 H239       -3.3152  -20.8693  -55.1165 H         1 UNK         0.0600 
    240 H240       -2.6327  -17.9687  -54.8778 H         1 UNK         0.3000 
    241 H241       -1.3950  -16.6044  -57.0684 H         1 UNK         0.0600 
    242 H242       -1.2093  -15.0957  -53.4671 H         1 UNK         0.3800 
    243 H243       -2.2324  -16.4689  -53.7538 H         1 UNK         0.3800 
    244 H244        0.9772  -17.4950  -56.7029 H         1 UNK         0.0800 
    245 H245       -0.1275  -18.5000  -57.5663 H         1 UNK         0.0800 
    246 H246        2.5628  -19.4006  -54.4505 H         1 UNK         0.0800 
    247 H247        1.8554  -17.8055  -54.5366 H         1 UNK         0.0800 
@<TRIPOS>BOND
     1    1    2 1    
     2    1  127 1    
     3    1  128 1    
     4    1  129 1    
     5    2    3 2    
     6    2    4 am   BACKBONE|DICT|INTERRES
     7    4    5 1    
     8    4  130 1    
     9    5    6 1    
    10    5   65 1    
    11    5  131 1    
    12    6    7 1    
    13    6  132 1    
    14    6  133 1    
    15    7    8 1    
    16    8    9 1    
    17    8  134 1    
    18    8  135 1    
    19    9   10 ar   
    20    9   14 ar   
    21   10   11 ar   
    22   10  136 1    
    23   11   12 ar   
    24   11  126 1    
    25   12   13 ar   
    26   12  137 1    
    27   13   14 ar   
    28   13   15 1    
    29   14  138 1    
    30   15   16 1    
    31   15  139 1    
    32   15  140 1    
    33   16   17 1    
    34   17   18 1    
    35   17  141 1    
    36   17  142 1    
    37   18   19 1    
    38   18   67 1    
    39   18  143 1    
    40   19   20 am   BACKBONE|DICT|INTERRES
    41   19  144 1    
    42   20   21 2    
    43   20   22 1    
    44   22   23 1    
    45   22   24 1    
    46   22  145 1    
    47   23  146 1    
    48   23  147 1    
    49   23  148 1    
    50   24   25 am   BACKBONE|DICT|INTERRES
    51   24  149 1    
    52   25   26 2    
    53   25   27 1    
    54   27   28 1    
    55   27   29 1    
    56   27  150 1    
    57   28  151 1    
    58   28  152 1    
    59   28  153 1    
    60   29   30 am   BACKBONE|DICT|INTERRES
    61   29  154 1    
    62   30   31 2    
    63   30   32 1    
    64   32   33 1    
    65   32   34 1    
    66   32  155 1    
    67   33  156 1    
    68   33  157 1    
    69   33  158 1    
    70   34   35 am   BACKBONE|DICT|INTERRES
    71   34  159 1    
    72   35   36 2    
    73   35   37 1    
    74   37   38 1    
    75   37   39 1    
    76   37  160 1    
    77   38  161 1    
    78   38  162 1    
    79   38  163 1    
    80   39   40 am   BACKBONE|DICT|INTERRES
    81   39  164 1    
    82   40   41 2    
    83   40   42 1    
    84   42   43 1    
    85   42   44 1    
    86   42  165 1    
    87   43  166 1    
    88   43  167 1    
    89   43  168 1    
    90   44   45 am   BACKBONE|DICT|INTERRES
    91   44  169 1    
    92   45   46 2    
    93   45   47 1    
    94   47   48 1    
    95   47   49 1    
    96   47  170 1    
    97   48  171 1    
    98   48  172 1    
    99   48  173 1    
   100   49   50 am   BACKBONE|DICT|INTERRES
   101   49  174 1    
   102   50   51 2    
   103   50   52 1    
   104   52   53 1    
   105   52   54 1    
   106   52  175 1    
   107   53  176 1    
   108   53  177 1    
   109   53  178 1    
   110   54   55 am   BACKBONE|DICT|INTERRES
   111   54  179 1    
   112   55   56 2    
   113   55   57 1    
   114   57   58 1    
   115   57   59 1    
   116   57  180 1    
   117   58  181 1    
   118   58  182 1    
   119   58  183 1    
   120   59   60 am   BACKBONE|DICT|INTERRES
   121   59  184 1    
   122   60   61 2    
   123   60   62 1    
   124   62   63 1    
   125   62   64 1    
   126   62  185 1    
   127   63  186 1    
   128   63  187 1    
   129   63  188 1    
   130   64   65 am   BACKBONE|DICT|INTERRES
   131   64  189 1    
   132   65   66 2    
   133   67   68 2    
   134   67   69 am   BACKBONE|DICT|INTERRES
   135   69   70 1    
   136   69  190 1    
   137   70   71 1    
   138   70   72 1    
   139   70  191 1    
   140   71  192 1    
   141   71  193 1    
   142   71  194 1    
   143   72   73 2    
   144   72   74 am   BACKBONE|DICT|INTERRES
   145   74   75 1    
   146   74  195 1    
   147   75   76 1    
   148   75   77 1    
   149   75  196 1    
   150   76  197 1    
   151   76  198 1    
   152   76  199 1    
   153   77   78 2    
   154   77   79 am   BACKBONE|DICT|INTERRES
   155   79   80 1    
   156   79  200 1    
   157   80   81 1    
   158   80   82 1    
   159   80  201 1    
   160   81  202 1    
   161   81  203 1    
   162   81  204 1    
   163   82   83 2    
   164   82   84 am   BACKBONE|DICT|INTERRES
   165   84   85 1    
   166   84  205 1    
   167   85   86 1    
   168   85   87 1    
   169   85  206 1    
   170   86  207 1    
   171   86  208 1    
   172   86  209 1    
   173   87   88 2    
   174   87   89 am   BACKBONE|DICT|INTERRES
   175   89   90 1    
   176   89  210 1    
   177   90   91 1    
   178   90   92 1    
   179   90  211 1    
   180   91  212 1    
   181   91  213 1    
   182   91  214 1    
   183   92   93 2    
   184   92   94 am   BACKBONE|DICT|INTERRES
   185   94   95 1    
   186   94  215 1    
   187   95   96 1    
   188   95   97 1    
   189   95  216 1    
   190   96  217 1    
   191   96  218 1    
   192   96  219 1    
   193   97   98 2    
   194   97   99 am   BACKBONE|DICT|INTERRES
   195   99  100 1    
   196   99  220 1    
   197  100  101 1    
   198  100  102 1    
   199  100  221 1    
   200  101  222 1    
   201  101  223 1    
   202  101  224 1    
   203  102  103 2    
   204  102  104 am   BACKBONE|DICT|INTERRES
   205  104  105 1    
   206  104  225 1    
   207  105  106 1    
   208  105  107 1    
   209  105  226 1    
   210  106  227 1    
   211  106  228 1    
   212  106  229 1    
   213  107  108 2    
   214  107  109 am   BACKBONE|DICT|INTERRES
   215  109  110 1    
   216  109  230 1    
   217  110  111 1    
   218  110  112 1    
   219  110  231 1    
   220  111  232 1    
   221  111  233 1    
   222  111  234 1    
   223  112  113 2    
   224  112  114 am   BACKBONE|DICT|INTERRES
   225  114  115 1    
   226  114  235 1    
   227  115  116 1    
   228  115  117 1    
   229  115  236 1    
   230  116  237 1    
   231  116  238 1    
   232  116  239 1    
   233  117  118 2    
   234  117  119 am   BACKBONE|DICT|INTERRES
   235  119  120 1    
   236  119  240 1    
   237  120  121 1    
   238  120  124 1    
   239  120  241 1    
   240  121  122 am   BACKBONE|DICT|INTERRES
   241  121  123 2    
   242  122  242 1    
   243  122  243 1    
   244  124  125 1    
   245  124  244 1    
   246  124  245 1    
   247  125  126 1    
   248  126  246 1    
   249  126  247 1    
@<TRIPOS>SUBSTRUCTURE
     1 UNK         1 GROUP             0       ****    0 ROOT    
