@<TRIPOS>MOLECULE
3R540
247   249    1
SMALL
USER_CHARGES


@<TRIPOS>ATOM
      1 CA          0.9393   -9.7203  -52.0668 C.3       0 UNK        -0.1800 
      2 C           1.6735  -10.6534  -51.1143 C.2       0 UNK         0.5000 
      3 O           2.7144  -10.2810  -50.5728 O.2       0 UNK        -0.5000 
      4 N           1.1353  -11.8624  -50.9083 N.am      1 UNK        -0.5000 
      5 CA          1.7063  -12.8984  -50.0357 C.3       1 UNK         0.1400 
      6 C6          1.1093  -14.2937  -50.3307 C.3       23 UNK        -0.0398 
      7 S7          1.5175  -14.8879  -52.0071 S.3       23 UNK        -0.2404 
      8 C8          0.0894  -15.9574  -52.3767 C.3       23 UNK        -0.0205 
      9 C9         -0.1536  -16.9926  -51.2870 C.ar      23 UNK        -0.0193 
     10 C10        -1.2815  -16.8974  -50.4679 C.ar      23 UNK        -0.1150 
     11 C11        -1.4966  -17.8302  -49.4522 C.ar      23 UNK        -0.0193 
     12 C12        -0.5773  -18.8641  -49.2596 C.ar      23 UNK        -0.1150 
     13 C13         0.5640  -18.9708  -50.0646 C.ar      23 UNK        -0.0193 
     14 C14         0.7604  -18.0302  -51.0815 C.ar      23 UNK        -0.1150 
     15 C15         1.6297  -20.0460  -49.8406 C.3       23 UNK        -0.0205 
     16 S16         1.0063  -21.6496  -49.2291 S.3       23 UNK        -0.2404 
     17 C17         1.1024  -21.3774  -47.4255 C.3       23 UNK        -0.0398 
     18 CA          0.2372  -22.3231  -46.5584 C.3       11 UNK         0.1400 
     19 N           0.4441  -22.0404  -45.1349 N.am      11 UNK        -0.5000 
     20 C          -0.0077  -22.7875  -44.1185 C.2       10 UNK         0.5000 
     21 O          -0.6258  -23.8411  -44.2667 O.2       10 UNK        -0.5000 
     22 CA          0.2296  -22.2340  -42.7016 C.3       10 UNK         0.1400 
     23 CB          1.6706  -22.4990  -42.2406 C.3       10 UNK        -0.1800 
     24 N          -0.0620  -20.8016  -42.6227 N.am      10 UNK        -0.5000 
     25 C          -1.2913  -20.2782  -42.7376 C.2       9 UNK         0.5000 
     26 O          -2.3136  -20.9596  -42.8079 O.2       9 UNK        -0.5000 
     27 CA         -1.3998  -18.7436  -42.8209 C.3       9 UNK         0.1400 
     28 CB         -1.4558  -18.1269  -41.4156 C.3       9 UNK        -0.1800 
     29 N          -0.3057  -18.1347  -43.5777 N.am      9 UNK        -0.5000 
     30 C          -0.0769  -18.3172  -44.8848 C.2       8 UNK         0.5000 
     31 O          -0.7939  -19.0002  -45.6115 O.2       8 UNK        -0.5000 
     32 CA          1.2029  -17.6914  -45.4668 C.3       8 UNK         0.1400 
     33 CB          0.9944  -16.2202  -45.8437 C.3       8 UNK        -0.1800 
     34 N           2.3294  -17.8085  -44.5443 N.am      8 UNK        -0.5000 
     35 C           2.9517  -18.9609  -44.2644 C.2       7 UNK         0.5000 
     36 O           2.6504  -20.0410  -44.7739 O.2       7 UNK        -0.5000 
     37 CA          4.0715  -18.8966  -43.2104 C.3       7 UNK         0.1400 
     38 CB          5.3864  -18.4177  -43.8433 C.3       7 UNK        -0.1800 
     39 N           3.7291  -18.0284  -42.0816 N.am      7 UNK        -0.5000 
     40 C           2.7710  -18.3070  -41.1872 C.2       6 UNK         0.5000 
     41 O           2.0892  -19.3311  -41.2147 O.2       6 UNK        -0.5000 
     42 CA          2.5028  -17.2479  -40.1013 C.3       6 UNK         0.1400 
     43 CB          3.4926  -17.4071  -38.9375 C.3       6 UNK        -0.1800 
     44 N           2.5346  -15.8612  -40.5806 N.am      6 UNK        -0.5000 
     45 C           1.7566  -15.3686  -41.5536 C.2       5 UNK         0.5000 
     46 O           1.0181  -16.0613  -42.2535 O.2       5 UNK        -0.5000 
     47 CA          1.8371  -13.8547  -41.8111 C.3       5 UNK         0.1400 
     48 CB          2.8613  -13.5586  -42.9172 C.3       5 UNK        -0.1800 
     49 N           0.5312  -13.3181  -42.2011 N.am      5 UNK        -0.5000 
     50 C          -0.5161  -13.1973  -41.3698 C.2       4 UNK         0.5000 
     51 O          -0.4533  -13.4478  -40.1649 O.2       4 UNK        -0.5000 
     52 CA         -1.8561  -12.6989  -41.9541 C.3       4 UNK         0.1400 
     53 CB         -2.0609  -11.2111  -41.6286 C.3       4 UNK        -0.1800 
     54 N          -1.9734  -12.8807  -43.4003 N.am      4 UNK        -0.5000 
     55 C          -2.1561  -14.0553  -44.0176 C.2       3 UNK         0.5000 
     56 O          -2.3623  -15.1110  -43.4202 O.2       3 UNK        -0.5000 
     57 CA         -2.0969  -14.0628  -45.5624 C.3       3 UNK         0.1400 
     58 CB         -3.5057  -14.2280  -46.1539 C.3       3 UNK        -0.1800 
     59 N          -1.4536  -12.9004  -46.1955 N.am      3 UNK        -0.5000 
     60 C          -0.2203  -12.4340  -45.9495 C.2       2 UNK         0.5000 
     61 O           0.5223  -12.8917  -45.0819 O.2       2 UNK        -0.5000 
     62 CA          0.2437  -11.2583  -46.8306 C.3       2 UNK         0.1400 
     63 CB          1.3945  -10.4523  -46.1917 C.3       2 UNK        -0.1800 
     64 N           0.5996  -11.7025  -48.1825 N.am      2 UNK        -0.5000 
     65 C           1.5622  -12.5729  -48.5327 C.2       1 UNK         0.5000 
     66 O           2.3254  -13.1201  -47.7368 O.2       1 UNK        -0.5000 
     67 C          -1.2627  -22.3208  -46.9419 C.2       11 UNK         0.5000 
     68 O          -1.6831  -23.1703  -47.7273 O.2       11 UNK        -0.5000 
     69 N          -2.0617  -21.4333  -46.3300 N.am      12 UNK        -0.5000 
     70 CA         -3.5138  -21.3125  -46.5117 C.3       12 UNK         0.1400 
     71 CB         -4.0390  -20.1110  -45.7086 C.3       12 UNK        -0.1800 
     72 C          -4.3270  -22.5725  -46.1477 C.2       12 UNK         0.5000 
     73 O          -5.4749  -22.6830  -46.5780 O.2       12 UNK        -0.5000 
     74 N          -3.7379  -23.5076  -45.3867 N.am      13 UNK        -0.5000 
     75 CA         -4.3199  -24.8249  -45.1180 C.3       13 UNK         0.1400 
     76 CB         -3.5356  -25.5106  -43.9898 C.3       13 UNK        -0.1800 
     77 C          -4.3599  -25.7208  -46.3739 C.2       13 UNK         0.5000 
     78 O          -5.2537  -26.5604  -46.4882 O.2       13 UNK        -0.5000 
     79 N          -3.4062  -25.5154  -47.2921 N.am      14 UNK        -0.5000 
     80 CA         -3.3526  -26.1525  -48.6058 C.3       14 UNK         0.1400 
     81 CB         -1.8939  -26.5112  -48.9260 C.3       14 UNK        -0.1800 
     82 C          -3.9348  -25.2253  -49.6860 C.2       14 UNK         0.5000 
     83 O          -4.6553  -25.7018  -50.5645 O.2       14 UNK        -0.5000 
     84 N          -3.6151  -23.9237  -49.5957 N.am      15 UNK        -0.5000 
     85 CA         -4.0230  -22.8304  -50.4817 C.3       15 UNK         0.1400 
     86 CB         -5.4905  -22.4335  -50.2118 C.3       15 UNK        -0.1800 
     87 C          -3.7238  -23.1619  -51.9550 C.2       15 UNK         0.5000 
     88 O          -2.5514  -23.2325  -52.3229 O.2       15 UNK        -0.5000 
     89 N          -4.7722  -23.4192  -52.7501 N.am      16 UNK        -0.5000 
     90 CA         -4.7176  -23.7635  -54.1732 C.3       16 UNK         0.1400 
     91 CB         -6.1533  -23.9632  -54.6826 C.3       16 UNK        -0.1800 
     92 C          -3.8674  -25.0080  -54.5025 C.2       16 UNK         0.5000 
     93 O          -3.3740  -25.1216  -55.6249 O.2       16 UNK        -0.5000 
     94 N          -3.7073  -25.9165  -53.5297 N.am      17 UNK        -0.5000 
     95 CA         -2.8634  -27.1051  -53.6482 C.3       17 UNK         0.1400 
     96 CB         -3.3268  -28.1514  -52.6226 C.3       17 UNK        -0.1800 
     97 C          -1.3582  -26.8066  -53.4845 C.2       17 UNK         0.5000 
     98 O          -0.5457  -27.6499  -53.8670 O.2       17 UNK        -0.5000 
     99 N          -1.0069  -25.6422  -52.9200 N.am      18 UNK        -0.5000 
    100 CA         0.3718  -25.2201  -52.6683 C.3       18 UNK         0.1400 
    101 CB         0.5369  -24.8956  -51.1753 C.3       18 UNK        -0.1800 
    102 C          0.7729  -24.0100  -53.5264 C.2       18 UNK         0.5000 
    103 O          1.8833  -23.9946  -54.0601 O.2       18 UNK        -0.5000 
    104 N         -0.1169  -23.0183  -53.6406 N.am      19 UNK        -0.5000 
    105 CA         0.1218  -21.7493  -54.3187 C.3       19 UNK         0.1400 
    106 CB         0.9585  -20.8223  -53.4107 C.3       19 UNK        -0.1800 
    107 C         -1.2245  -21.1504  -54.7632 C.2       19 UNK         0.5000 
    108 O         -1.9778  -21.8220  -55.4698 O.2       19 UNK        -0.5000 
    109 N         -1.4964  -19.8971  -54.3777 N.am      20 UNK        -0.5000 
    110 CA        -2.7249  -19.1706  -54.6882 C.3       20 UNK         0.1400 
    111 CB        -2.5051  -17.6787  -54.3948 C.3       20 UNK        -0.1800 
    112 C         -3.9193  -19.6937  -53.8743 C.2       20 UNK         0.5000 
    113 O         -3.7544  -20.0871  -52.7179 O.2       20 UNK        -0.5000 
    114 N         -5.1153  -19.6270  -54.4705 N.am      21 UNK        -0.5000 
    115 CA        -6.3949  -19.9980  -53.8628 C.3       21 UNK         0.1400 
    116 CB        -7.4104  -20.2623  -54.9896 C.3       21 UNK        -0.1800 
    117 C         -6.8872  -18.9326  -52.8578 C.2       21 UNK         0.5000 
    118 O         -7.9474  -18.3353  -53.0518 O.2       21 UNK        -0.5000 
    119 N         -6.0855  -18.6913  -51.8157 N.am      22 UNK        -0.5000 
    120 CA        -6.3144  -17.6798  -50.7734 C.3       22 UNK         0.1400 
    121 C         -7.4230  -18.0199  -49.7314 C.2       22 UNK         0.5000 
    122 N         -7.9831  -19.2234  -49.7192 N.am      22 UNK        -0.7600 
    123 O         -7.7942  -17.1667  -48.9298 O.2       22 UNK        -0.5000 
    124 C124       -4.9814  -17.2567  -50.1052 C.3       23 UNK        -0.0398 
    125 S125       -4.1433  -18.6007  -49.1951 S.3       23 UNK        -0.2404 
    126 C126       -2.7010  -17.7109  -48.5347 C.3       23 UNK        -0.0205 
    127 H127        0.0388  -10.1816  -52.4732 H         1 UNK         0.0600 
    128 H128        1.5876   -9.4491  -52.9000 H         1 UNK         0.0600 
    129 H129        0.6490   -8.8068  -51.5478 H         1 UNK         0.0600 
    130 H130        0.2935  -12.1205  -51.4033 H         1 UNK         0.3000 
    131 H131        2.7789  -12.9473  -50.2375 H         1 UNK         0.0600 
    132 H132        1.4874  -15.0373  -49.6257 H         1 UNK         0.0800 
    133 H133        0.0258  -14.2730  -50.2023 H         1 UNK         0.0800 
    134 H134       -0.7939  -15.3341  -52.5238 H         1 UNK         0.0800 
    135 H135        0.2659  -16.4673  -53.3246 H         1 UNK         0.0800 
    136 H136       -1.9864  -16.0913  -50.6122 H         1 UNK         0.1150 
    137 H137       -0.7630  -19.5738  -48.4691 H         1 UNK         0.1150 
    138 H138        1.6413  -18.0890  -51.7054 H         1 UNK         0.1150 
    139 H139        2.1568  -20.2387  -50.7755 H         1 UNK         0.0800 
    140 H140        2.3805  -19.6582  -49.1510 H         1 UNK         0.0800 
    141 H141        2.1496  -21.4910  -47.1412 H         1 UNK         0.0800 
    142 H142        0.8562  -20.3414  -47.2035 H         1 UNK         0.0800 
    143 H143        0.5975  -23.3395  -46.7314 H         1 UNK         0.0600 
    144 H144        0.9829  -21.2084  -44.9182 H         1 UNK         0.3000 
    145 H145       -0.4447  -22.7578  -42.0208 H         1 UNK         0.0600 
    146 H146        1.8186  -22.1758  -41.2100 H         1 UNK         0.0600 
    147 H147        1.9052  -23.5632  -42.2847 H         1 UNK         0.0600 
    148 H148        2.3982  -21.9757  -42.8612 H         1 UNK         0.0600 
    149 H149        0.7262  -20.1793  -42.4793 H         1 UNK         0.3000 
    150 H150       -2.3320  -18.5025  -43.3361 H         1 UNK         0.0600 
    151 H151       -2.2903  -18.5334  -40.8431 H         1 UNK         0.0600 
    152 H152       -1.5900  -17.0459  -41.4654 H         1 UNK         0.0600 
    153 H153       -0.5428  -18.3244  -40.8539 H         1 UNK         0.0600 
    154 H154        0.2959  -17.4926  -43.0642 H         1 UNK         0.3000 
    155 H155        1.4576  -18.2302  -46.3813 H         1 UNK         0.0600 
    156 H156        1.9132  -15.7701  -46.2202 H         1 UNK         0.0600 
    157 H157        0.6598  -15.6295  -44.9903 H         1 UNK         0.0600 
    158 H158        0.2489  -16.1304  -46.6339 H         1 UNK         0.0600 
    159 H159        2.5864  -16.9778  -44.0321 H         1 UNK         0.3000 
    160 H160        4.2262  -19.9082  -42.8286 H         1 UNK         0.0600 
    161 H161        5.3056  -17.3981  -44.2221 H         1 UNK         0.0600 
    162 H162        5.6719  -19.0572  -44.6796 H         1 UNK         0.0600 
    163 H163        6.2034  -18.4443  -43.1219 H         1 UNK         0.0600 
    164 H164        4.2396  -17.1624  -41.9919 H         1 UNK         0.3000 
    165 H165        1.4984  -17.4310  -39.7146 H         1 UNK         0.0600 
    166 H166        4.5158  -17.1885  -39.2454 H         1 UNK         0.0600 
    167 H167        3.2407  -16.7422  -38.1110 H         1 UNK         0.0600 
    168 H168        3.4774  -18.4260  -38.5481 H         1 UNK         0.0600 
    169 H169        3.1311  -15.2276  -40.0684 H         1 UNK         0.3000 
    170 H170        2.1562  -13.3523  -40.8957 H         1 UNK         0.0600 
    171 H171        3.8610  -13.8786  -42.6214 H         1 UNK         0.0600 
    172 H172        2.6130  -14.0760  -43.8451 H         1 UNK         0.0600 
    173 H173        2.9112  -12.4915  -43.1347 H         1 UNK         0.0600 
    174 H174        0.4025  -13.1398  -43.1937 H         1 UNK         0.3000 
    175 H175       -2.6542  -13.2667  -41.4713 H         1 UNK         0.0600 
    176 H176       -3.0355  -10.8623  -41.9706 H         1 UNK         0.0600 
    177 H177       -2.0142  -11.0359  -40.5529 H         1 UNK         0.0600 
    178 H178       -1.2969  -10.5885  -42.0959 H         1 UNK         0.0600 
    179 H179       -1.8093  -12.0665  -43.9726 H         1 UNK         0.3000 
    180 H180       -1.5216  -14.9427  -45.8451 H         1 UNK         0.0600 
    181 H181       -3.4694  -14.3500  -47.2366 H         1 UNK         0.0600 
    182 H182       -4.0009  -15.1112  -45.7478 H         1 UNK         0.0600 
    183 H183       -4.1366  -13.3664  -45.9324 H         1 UNK         0.0600 
    184 H184       -1.9903  -12.4523  -46.9239 H         1 UNK         0.3000 
    185 H185       -0.6048  -10.5806  -46.9359 H         1 UNK         0.0600 
    186 H186        1.6737   -9.6035  -46.8159 H         1 UNK         0.0600 
    187 H187        1.0979  -10.0584  -45.2189 H         1 UNK         0.0600 
    188 H188        2.2866  -11.0597  -46.0359 H         1 UNK         0.0600 
    189 H189        0.0366  -11.3194  -48.9285 H         1 UNK         0.3000 
    190 H190       -1.6252  -20.7194  -45.7536 H         1 UNK         0.3000 
    191 H191       -3.6829  -21.1158  -47.5717 H         1 UNK         0.0600 
    192 H192       -5.0716  -19.8886  -45.9802 H         1 UNK         0.0600 
    193 H193       -3.4585  -19.2097  -45.8913 H         1 UNK         0.0600 
    194 H194       -4.0215  -20.3041  -44.6369 H         1 UNK         0.0600 
    195 H195       -2.7959  -23.3467  -45.0533 H         1 UNK         0.3000 
    196 H196       -5.3472  -24.6799  -44.7774 H         1 UNK         0.0600 
    197 H197       -4.0078  -26.4516  -43.7051 H         1 UNK         0.0600 
    198 H198       -3.4925  -24.8842  -43.0985 H         1 UNK         0.0600 
    199 H199       -2.5127  -25.7378  -44.2915 H         1 UNK         0.0600 
    200 H200       -2.7355  -24.7716  -47.1333 H         1 UNK         0.3000 
    201 H201       -3.9359  -27.0756  -48.6058 H         1 UNK         0.0600 
    202 H202       -1.5102  -27.2519  -48.2245 H         1 UNK         0.0600 
    203 H203       -1.2457  -25.6365  -48.8716 H         1 UNK         0.0600 
    204 H204       -1.7974  -26.9305  -49.9275 H         1 UNK         0.0600 
    205 H205       -2.9411  -23.6570  -48.8803 H         1 UNK         0.3000 
    206 H206       -3.3971  -21.9722  -50.2306 H         1 UNK         0.0600 
    207 H207       -5.6115  -22.0745  -49.1905 H         1 UNK         0.0600 
    208 H208       -5.8039  -21.6212  -50.8681 H         1 UNK         0.0600 
    209 H209       -6.1784  -23.2681  -50.3502 H         1 UNK         0.0600 
    210 H210       -5.6899  -23.4057  -52.3314 H         1 UNK         0.3000 
    211 H211       -4.2802  -22.9125  -54.6974 H         1 UNK         0.0600 
    212 H212       -6.6285  -24.8249  -54.2118 H         1 UNK         0.0600 
    213 H213       -6.1651  -24.1301  -55.7605 H         1 UNK         0.0600 
    214 H214       -6.7749  -23.0921  -54.4825 H         1 UNK         0.0600 
    215 H215       -4.1458  -25.7549  -52.6290 H         1 UNK         0.3000 
    216 H216       -3.0016  -27.5328  -54.6435 H         1 UNK         0.0600 
    217 H217       -2.7449  -29.0698  -52.7096 H         1 UNK         0.0600 
    218 H218       -4.3735  -28.4153  -52.7750 H         1 UNK         0.0600 
    219 H219       -3.2193  -27.7915  -51.6003 H         1 UNK         0.0600 
    220 H220       -1.7304  -24.9717  -52.6815 H         1 UNK         0.3000 
    221 H221        1.0709  -26.0241  -52.9071 H         1 UNK         0.0600 
    222 H222        0.4418  -25.7966  -50.5708 H         1 UNK         0.0600 
    223 H223        1.5217  -24.4738  -50.9693 H         1 UNK         0.0600 
    224 H224       -0.2070  -24.1753  -50.8311 H         1 UNK         0.0600 
    225 H225       -1.0281  -23.1036  -53.1899 H         1 UNK         0.3000 
    226 H226        0.6872  -21.9382  -55.2333 H         1 UNK         0.0600 
    227 H227        0.4348  -20.6142  -52.4777 H         1 UNK         0.0600 
    228 H228        1.9163  -21.2761  -53.1565 H         1 UNK         0.0600 
    229 H229        1.1797  -19.8724  -53.8987 H         1 UNK         0.0600 
    230 H230       -0.8520  -19.4371  -53.7525 H         1 UNK         0.3000 
    231 H231       -2.9377  -19.2918  -55.7525 H         1 UNK         0.0600 
    232 H232       -3.3832  -17.0923  -54.6681 H         1 UNK         0.0600 
    233 H233       -1.6616  -17.2825  -54.9605 H         1 UNK         0.0600 
    234 H234       -2.3142  -17.5043  -53.3352 H         1 UNK         0.0600 
    235 H235       -5.1689  -19.2464  -55.4043 H         1 UNK         0.3000 
    236 H236       -6.2609  -20.9287  -53.3090 H         1 UNK         0.0600 
    237 H237       -7.6133  -19.3610  -55.5696 H         1 UNK         0.0600 
    238 H238       -7.0490  -21.0247  -55.6796 H         1 UNK         0.0600 
    239 H239       -8.3602  -20.6145  -54.5850 H         1 UNK         0.0600 
    240 H240       -5.2100  -19.2041  -51.7576 H         1 UNK         0.3000 
    241 H241       -6.6875  -16.7920  -51.2878 H         1 UNK         0.0600 
    242 H242       -8.7032  -19.4283  -49.0448 H         1 UNK         0.3800 
    243 H243       -7.6921  -19.9287  -50.3747 H         1 UNK         0.3800 
    244 H244       -4.2981  -16.8836  -50.8689 H         1 UNK         0.0800 
    245 H245       -5.1508  -16.4219  -49.4230 H         1 UNK         0.0800 
    246 H246       -2.9455  -16.6625  -48.3599 H         1 UNK         0.0800 
    247 H247       -2.4476  -18.1214  -47.5587 H         1 UNK         0.0800 
@<TRIPOS>BOND
     1    1    2 1    
     2    1  127 1    
     3    1  128 1    
     4    1  129 1    
     5    2    3 2    
     6    2    4 am   BACKBONE|DICT|INTERRES
     7    4    5 1    
     8    4  130 1    
     9    5    6 1    
    10    5   65 1    
    11    5  131 1    
    12    6    7 1    
    13    6  132 1    
    14    6  133 1    
    15    7    8 1    
    16    8    9 1    
    17    8  134 1    
    18    8  135 1    
    19    9   10 ar   
    20    9   14 ar   
    21   10   11 ar   
    22   10  136 1    
    23   11   12 ar   
    24   11  126 1    
    25   12   13 ar   
    26   12  137 1    
    27   13   14 ar   
    28   13   15 1    
    29   14  138 1    
    30   15   16 1    
    31   15  139 1    
    32   15  140 1    
    33   16   17 1    
    34   17   18 1    
    35   17  141 1    
    36   17  142 1    
    37   18   19 1    
    38   18   67 1    
    39   18  143 1    
    40   19   20 am   BACKBONE|DICT|INTERRES
    41   19  144 1    
    42   20   21 2    
    43   20   22 1    
    44   22   23 1    
    45   22   24 1    
    46   22  145 1    
    47   23  146 1    
    48   23  147 1    
    49   23  148 1    
    50   24   25 am   BACKBONE|DICT|INTERRES
    51   24  149 1    
    52   25   26 2    
    53   25   27 1    
    54   27   28 1    
    55   27   29 1    
    56   27  150 1    
    57   28  151 1    
    58   28  152 1    
    59   28  153 1    
    60   29   30 am   BACKBONE|DICT|INTERRES
    61   29  154 1    
    62   30   31 2    
    63   30   32 1    
    64   32   33 1    
    65   32   34 1    
    66   32  155 1    
    67   33  156 1    
    68   33  157 1    
    69   33  158 1    
    70   34   35 am   BACKBONE|DICT|INTERRES
    71   34  159 1    
    72   35   36 2    
    73   35   37 1    
    74   37   38 1    
    75   37   39 1    
    76   37  160 1    
    77   38  161 1    
    78   38  162 1    
    79   38  163 1    
    80   39   40 am   BACKBONE|DICT|INTERRES
    81   39  164 1    
    82   40   41 2    
    83   40   42 1    
    84   42   43 1    
    85   42   44 1    
    86   42  165 1    
    87   43  166 1    
    88   43  167 1    
    89   43  168 1    
    90   44   45 am   BACKBONE|DICT|INTERRES
    91   44  169 1    
    92   45   46 2    
    93   45   47 1    
    94   47   48 1    
    95   47   49 1    
    96   47  170 1    
    97   48  171 1    
    98   48  172 1    
    99   48  173 1    
   100   49   50 am   BACKBONE|DICT|INTERRES
   101   49  174 1    
   102   50   51 2    
   103   50   52 1    
   104   52   53 1    
   105   52   54 1    
   106   52  175 1    
   107   53  176 1    
   108   53  177 1    
   109   53  178 1    
   110   54   55 am   BACKBONE|DICT|INTERRES
   111   54  179 1    
   112   55   56 2    
   113   55   57 1    
   114   57   58 1    
   115   57   59 1    
   116   57  180 1    
   117   58  181 1    
   118   58  182 1    
   119   58  183 1    
   120   59   60 am   BACKBONE|DICT|INTERRES
   121   59  184 1    
   122   60   61 2    
   123   60   62 1    
   124   62   63 1    
   125   62   64 1    
   126   62  185 1    
   127   63  186 1    
   128   63  187 1    
   129   63  188 1    
   130   64   65 am   BACKBONE|DICT|INTERRES
   131   64  189 1    
   132   65   66 2    
   133   67   68 2    
   134   67   69 am   BACKBONE|DICT|INTERRES
   135   69   70 1    
   136   69  190 1    
   137   70   71 1    
   138   70   72 1    
   139   70  191 1    
   140   71  192 1    
   141   71  193 1    
   142   71  194 1    
   143   72   73 2    
   144   72   74 am   BACKBONE|DICT|INTERRES
   145   74   75 1    
   146   74  195 1    
   147   75   76 1    
   148   75   77 1    
   149   75  196 1    
   150   76  197 1    
   151   76  198 1    
   152   76  199 1    
   153   77   78 2    
   154   77   79 am   BACKBONE|DICT|INTERRES
   155   79   80 1    
   156   79  200 1    
   157   80   81 1    
   158   80   82 1    
   159   80  201 1    
   160   81  202 1    
   161   81  203 1    
   162   81  204 1    
   163   82   83 2    
   164   82   84 am   BACKBONE|DICT|INTERRES
   165   84   85 1    
   166   84  205 1    
   167   85   86 1    
   168   85   87 1    
   169   85  206 1    
   170   86  207 1    
   171   86  208 1    
   172   86  209 1    
   173   87   88 2    
   174   87   89 am   BACKBONE|DICT|INTERRES
   175   89   90 1    
   176   89  210 1    
   177   90   91 1    
   178   90   92 1    
   179   90  211 1    
   180   91  212 1    
   181   91  213 1    
   182   91  214 1    
   183   92   93 2    
   184   92   94 am   BACKBONE|DICT|INTERRES
   185   94   95 1    
   186   94  215 1    
   187   95   96 1    
   188   95   97 1    
   189   95  216 1    
   190   96  217 1    
   191   96  218 1    
   192   96  219 1    
   193   97   98 2    
   194   97   99 am   BACKBONE|DICT|INTERRES
   195   99  100 1    
   196   99  220 1    
   197  100  101 1    
   198  100  102 1    
   199  100  221 1    
   200  101  222 1    
   201  101  223 1    
   202  101  224 1    
   203  102  103 2    
   204  102  104 am   BACKBONE|DICT|INTERRES
   205  104  105 1    
   206  104  225 1    
   207  105  106 1    
   208  105  107 1    
   209  105  226 1    
   210  106  227 1    
   211  106  228 1    
   212  106  229 1    
   213  107  108 2    
   214  107  109 am   BACKBONE|DICT|INTERRES
   215  109  110 1    
   216  109  230 1    
   217  110  111 1    
   218  110  112 1    
   219  110  231 1    
   220  111  232 1    
   221  111  233 1    
   222  111  234 1    
   223  112  113 2    
   224  112  114 am   BACKBONE|DICT|INTERRES
   225  114  115 1    
   226  114  235 1    
   227  115  116 1    
   228  115  117 1    
   229  115  236 1    
   230  116  237 1    
   231  116  238 1    
   232  116  239 1    
   233  117  118 2    
   234  117  119 am   BACKBONE|DICT|INTERRES
   235  119  120 1    
   236  119  240 1    
   237  120  121 1    
   238  120  124 1    
   239  120  241 1    
   240  121  122 am   BACKBONE|DICT|INTERRES
   241  121  123 2    
   242  122  242 1    
   243  122  243 1    
   244  124  125 1    
   245  124  244 1    
   246  124  245 1    
   247  125  126 1    
   248  126  246 1    
   249  126  247 1    
@<TRIPOS>SUBSTRUCTURE
     1 UNK         1 GROUP             0       ****    0 ROOT    
