@<TRIPOS>MOLECULE
3R540
247   249    1
SMALL
USER_CHARGES


@<TRIPOS>ATOM
      1 CA          1.3585  -16.9075  -48.9688 C.3       0 UNK        -0.1800 
      2 C           1.6370  -15.4126  -48.9645 C.2       0 UNK         0.5000 
      3 O           2.0461  -14.8578  -49.9831 O.2       0 UNK        -0.5000 
      4 N           1.4530  -14.7714  -47.8029 N.am      1 UNK        -0.5000 
      5 CA          1.6294  -13.3361  -47.5282 C.3       1 UNK         0.1400 
      6 C6          0.5994  -12.4364  -48.2605 C.3       23 UNK        -0.0398 
      7 S7         -1.0583  -12.6173  -47.5193 S.3       23 UNK        -0.2404 
      8 C8         -2.1121  -12.9425  -48.9637 C.3       23 UNK        -0.0205 
      9 C9         -1.9325  -14.3447  -49.5249 C.ar      23 UNK        -0.0193 
     10 C10        -1.3668  -14.5244  -50.7899 C.ar      23 UNK        -0.1150 
     11 C11        -1.2818  -15.7998  -51.3529 C.ar      23 UNK        -0.0193 
     12 C12        -1.7530  -16.9016  -50.6344 C.ar      23 UNK        -0.1150 
     13 C13        -2.3150  -16.7385  -49.3652 C.ar      23 UNK        -0.0193 
     14 C14        -2.3961  -15.4561  -48.8126 C.ar      23 UNK        -0.1150 
     15 C15        -2.9120  -17.9328  -48.6348 C.3       23 UNK        -0.0205 
     16 S16        -1.6871  -19.2238  -48.2495 S.3       23 UNK        -0.2404 
     17 C17        -2.8214  -20.4837  -47.5771 C.3       23 UNK        -0.0398 
     18 CA         -2.1117  -21.7269  -46.9809 C.3       11 UNK         0.1400 
     19 N          -1.1815  -21.3662  -45.9013 N.am      11 UNK        -0.5000 
     20 C          -0.1651  -22.1159  -45.4466 C.2       10 UNK         0.5000 
     21 O           0.1268  -23.2121  -45.9257 O.2       10 UNK        -0.5000 
     22 CA          0.6464  -21.5956  -44.2435 C.3       10 UNK         0.1400 
     23 CB          2.1008  -21.3002  -44.6439 C.3       10 UNK        -0.1800 
     24 N           0.0562  -20.4099  -43.6209 N.am      10 UNK        -0.5000 
     25 C          -0.9771  -20.4388  -42.7661 C.2       9 UNK         0.5000 
     26 O          -1.5194  -21.4804  -42.3955 O.2       9 UNK        -0.5000 
     27 CA         -1.5070  -19.0906  -42.2366 C.3       9 UNK         0.1400 
     28 CB         -1.0210  -18.8570  -40.7979 C.3       9 UNK        -0.1800 
     29 N          -1.1318  -17.9396  -43.0601 N.am      9 UNK        -0.5000 
     30 C          -1.5666  -17.7117  -44.3076 C.2       8 UNK         0.5000 
     31 O          -2.3798  -18.4326  -44.8841 O.2       8 UNK        -0.5000 
     32 CA         -0.9426  -16.5118  -45.0489 C.3       8 UNK         0.1400 
     33 CB         -1.6925  -15.2180  -44.7057 C.3       8 UNK        -0.1800 
     34 N           0.4843  -16.3439  -44.7502 N.am      8 UNK        -0.5000 
     35 C           1.4240  -17.2538  -45.0473 C.2       7 UNK         0.5000 
     36 O           1.1880  -18.2893  -45.6634 O.2       7 UNK        -0.5000 
     37 CA          2.8541  -16.9858  -44.5561 C.3       7 UNK         0.1400 
     38 CB          3.6297  -16.1288  -45.5626 C.3       7 UNK        -0.1800 
     39 N           2.8615  -16.3354  -43.2477 N.am      7 UNK        -0.5000 
     40 C           2.7790  -16.9968  -42.0855 C.2       6 UNK         0.5000 
     41 O           2.7454  -18.2243  -41.9969 O.2       6 UNK        -0.5000 
     42 CA          2.6961  -16.1433  -40.8063 C.3       6 UNK         0.1400 
     43 CB          4.1026  -15.8334  -40.2728 C.3       6 UNK        -0.1800 
     44 N           1.9621  -14.8909  -40.9996 N.am      6 UNK        -0.5000 
     45 C           0.6485  -14.8210  -41.2591 C.2       5 UNK         0.5000 
     46 O          -0.0781  -15.8078  -41.3634 O.2       5 UNK        -0.5000 
     47 CA          0.0474  -13.4215  -41.4875 C.3       5 UNK         0.1400 
     48 CB         -0.4344  -12.8232  -40.1578 C.3       5 UNK        -0.1800 
     49 N           0.9501  -12.4724  -42.1423 N.am      5 UNK        -0.5000 
     50 C           1.5628  -12.6558  -43.3194 C.2       4 UNK         0.5000 
     51 O           1.4776  -13.6967  -43.9772 O.2       4 UNK        -0.5000 
     52 CA          2.4373  -11.4995  -43.8509 C.3       4 UNK         0.1400 
     53 CB          2.5917  -10.3123  -42.8736 C.3       4 UNK        -0.1800 
     54 N           3.7524  -11.9747  -44.2869 N.am      4 UNK        -0.5000 
     55 C           4.6564  -12.6419  -43.5515 C.2       3 UNK         0.5000 
     56 O           4.4983  -12.9175  -42.3610 O.2       3 UNK        -0.5000 
     57 CA          5.9273  -13.1073  -44.2886 C.3       3 UNK         0.1400 
     58 CB          6.5952  -14.3140  -43.6029 C.3       3 UNK        -0.1800 
     59 N           5.5939  -13.4595  -45.6686 N.am      3 UNK        -0.5000 
     60 C           6.1276  -12.9277  -46.7738 C.2       2 UNK         0.5000 
     61 O           7.0611  -12.1250  -46.7729 O.2       2 UNK        -0.5000 
     62 CA          5.4786  -13.3460  -48.1098 C.3       2 UNK         0.1400 
     63 CB          6.2119  -14.5575  -48.7047 C.3       2 UNK        -0.1800 
     64 N           4.0496  -13.6654  -47.9998 N.am      2 UNK        -0.5000 
     65 C           3.0802  -12.8060  -47.6516 C.2       1 UNK         0.5000 
     66 O           3.3113  -11.6342  -47.3507 O.2       1 UNK        -0.5000 
     67 C          -3.1355  -22.7987  -46.5220 C.2       11 UNK         0.5000 
     68 O          -4.3454  -22.5992  -46.6458 O.2       11 UNK        -0.5000 
     69 N          -2.6343  -23.9119  -45.9757 N.am      12 UNK        -0.5000 
     70 CA         -3.4003  -25.0825  -45.5552 C.3       12 UNK         0.1400 
     71 CB         -2.5073  -25.9308  -44.6353 C.3       12 UNK        -0.1800 
     72 C          -3.8658  -25.9162  -46.7618 C.2       12 UNK         0.5000 
     73 O          -3.3544  -25.7420  -47.8697 O.2       12 UNK        -0.5000 
     74 N          -4.7892  -26.8579  -46.5255 N.am      13 UNK        -0.5000 
     75 CA         -5.2877  -27.8023  -47.5339 C.3       13 UNK         0.1400 
     76 CB         -6.3818  -28.6833  -46.9139 C.3       13 UNK        -0.1800 
     77 C          -4.1735  -28.6703  -48.1541 C.2       13 UNK         0.5000 
     78 O          -4.1800  -28.9012  -49.3633 O.2       13 UNK        -0.5000 
     79 N          -3.1953  -29.0615  -47.3249 N.am      14 UNK        -0.5000 
     80 CA         -1.9826  -29.7814  -47.7236 C.3       14 UNK         0.1400 
     81 CB         -1.2765  -30.2933  -46.4587 C.3       14 UNK        -0.1800 
     82 C          -1.0099  -28.9401  -48.5781 C.2       14 UNK         0.5000 
     83 O          -0.1798  -29.5138  -49.2835 O.2       14 UNK        -0.5000 
     84 N          -1.1352  -27.6074  -48.5151 N.am      15 UNK        -0.5000 
     85 CA         -0.3760  -26.6403  -49.3095 C.3       15 UNK         0.1400 
     86 CB          0.0216  -25.4624  -48.4032 C.3       15 UNK        -0.1800 
     87 C          -1.1710  -26.1563  -50.5413 C.2       15 UNK         0.5000 
     88 O          -0.7376  -25.2080  -51.1965 O.2       15 UNK        -0.5000 
     89 N          -2.3049  -26.8137  -50.8350 N.am      16 UNK        -0.5000 
     90 CA         -3.2494  -26.5381  -51.9177 C.3       16 UNK         0.1400 
     91 CB         -2.5906  -26.7239  -53.3009 C.3       16 UNK        -0.1800 
     92 C          -3.9351  -25.1697  -51.7507 C.2       16 UNK         0.5000 
     93 O          -3.7558  -24.2739  -52.5768 O.2       16 UNK        -0.5000 
     94 N          -4.7461  -25.0458  -50.6907 N.am      17 UNK        -0.5000 
     95 CA         -5.5519  -23.8634  -50.3561 C.3       17 UNK         0.1400 
     96 CB         -6.4092  -24.1704  -49.1189 C.3       17 UNK        -0.1800 
     97 C          -6.4541  -23.3524  -51.5006 C.2       17 UNK         0.5000 
     98 O          -6.6729  -22.1466  -51.6079 O.2       17 UNK        -0.5000 
     99 N          -6.9387  -24.2743  -52.3453 N.am      18 UNK        -0.5000 
    100 CA        -7.7308  -23.9779  -53.5400 C.3       18 UNK         0.1400 
    101 CB        -8.3971  -25.2722  -54.0308 C.3       18 UNK        -0.1800 
    102 C         -6.9084  -23.3331  -54.6742 C.2       18 UNK         0.5000 
    103 O         -7.4616  -22.5481  -55.4450 O.2       18 UNK        -0.5000 
    104 N         -5.6119  -23.6661  -54.7593 N.am      19 UNK        -0.5000 
    105 CA        -4.6682  -23.0658  -55.7042 C.3       19 UNK         0.1400 
    106 CB        -3.5052  -24.0346  -55.9675 C.3       19 UNK        -0.1800 
    107 C         -4.1502  -21.7134  -55.1863 C.2       19 UNK         0.5000 
    108 O         -3.9444  -20.7959  -55.9812 O.2       19 UNK        -0.5000 
    109 N         -4.0092  -21.5881  -53.8591 N.am      20 UNK        -0.5000 
    110 CA        -3.6538  -20.3698  -53.1244 C.3       20 UNK         0.1400 
    111 CB        -3.1446  -20.7744  -51.7295 C.3       20 UNK        -0.1800 
    112 C         -4.8104  -19.3421  -53.0548 C.2       20 UNK         0.5000 
    113 O         -5.0508  -18.7420  -52.0048 O.2       20 UNK        -0.5000 
    114 N         -5.4973  -19.1348  -54.1871 N.am      21 UNK        -0.5000 
    115 CA        -6.6456  -18.2407  -54.3677 C.3       21 UNK         0.1400 
    116 CB        -7.2416  -18.4847  -55.7624 C.3       21 UNK        -0.1800 
    117 C         -6.3172  -16.7473  -54.1664 C.2       21 UNK         0.5000 
    118 O         -7.2287  -15.9453  -53.9592 O.2       21 UNK        -0.5000 
    119 N         -5.0230  -16.4119  -54.2036 N.am      22 UNK        -0.5000 
    120 CA        -4.4430  -15.1395  -53.7552 C.3       22 UNK         0.1400 
    121 C         -4.6377  -14.8278  -52.2406 C.2       22 UNK         0.5000 
    122 N         -4.9529  -15.7986  -51.3899 N.am      22 UNK        -0.7600 
    123 O         -4.5312  -13.6719  -51.8399 O.2       22 UNK        -0.5000 
    124 C124       -2.9559  -15.0066  -54.1937 C.3       23 UNK        -0.0398 
    125 S125       -1.9472  -16.5197  -53.9519 S.3       23 UNK        -0.2404 
    126 C126       -0.6931  -15.9902  -52.7409 C.3       23 UNK        -0.0205 
    127 H127        2.2626  -17.4624  -48.7198 H         1 UNK         0.0600 
    128 H128        0.5853  -17.1662  -48.2453 H         1 UNK         0.0600 
    129 H129        1.0203  -17.2312  -49.9526 H         1 UNK         0.0600 
    130 H130        1.0929  -15.2993  -47.0215 H         1 UNK         0.3000 
    131 H131        1.4248  -13.2390  -46.4637 H         1 UNK         0.0600 
    132 H132        0.5730  -12.6588  -49.3277 H         1 UNK         0.0800 
    133 H133        0.8601  -11.3799  -48.1793 H         1 UNK         0.0800 
    134 H134       -3.1549  -12.8172  -48.6693 H         1 UNK         0.0800 
    135 H135       -1.9233  -12.1867  -49.7277 H         1 UNK         0.0800 
    136 H136       -1.0167  -13.6679  -51.3479 H         1 UNK         0.1150 
    137 H137       -1.7001  -17.8857  -51.0755 H         1 UNK         0.1150 
    138 H138       -2.8500  -15.3131  -47.8422 H         1 UNK         0.1150 
    139 H139       -3.3889  -17.6153  -47.7061 H         1 UNK         0.0800 
    140 H140       -3.7000  -18.3582  -49.2587 H         1 UNK         0.0800 
    141 H141       -3.4876  -20.7840  -48.3883 H         1 UNK         0.0800 
    142 H142       -3.4522  -20.0122  -46.8213 H         1 UNK         0.0800 
    143 H143       -1.5299  -22.1832  -47.7847 H         1 UNK         0.0600 
    144 H144       -1.3567  -20.4743  -45.4568 H         1 UNK         0.3000 
    145 H145        0.6688  -22.3961  -43.5011 H         1 UNK         0.0600 
    146 H146        2.6580  -20.8493  -43.8223 H         1 UNK         0.0600 
    147 H147        2.6172  -22.2198  -44.9213 H         1 UNK         0.0600 
    148 H148        2.1597  -20.6309  -45.5012 H         1 UNK         0.0600 
    149 H149        0.4265  -19.5162  -43.9167 H         1 UNK         0.3000 
    150 H150       -2.5970  -19.1533  -42.2228 H         1 UNK         0.0600 
    151 H151       -1.2815  -19.6966  -40.1522 H         1 UNK         0.0600 
    152 H152       -1.4780  -17.9657  -40.3678 H         1 UNK         0.0600 
    153 H153        0.0619  -18.7322  -40.7564 H         1 UNK         0.0600 
    154 H154       -0.5186  -17.2575  -42.6237 H         1 UNK         0.3000 
    155 H155       -1.0396  -16.6907  -46.1221 H         1 UNK         0.0600 
    156 H156       -1.2101  -14.3482  -45.1494 H         1 UNK         0.0600 
    157 H157       -1.7438  -15.0585  -43.6292 H         1 UNK         0.0600 
    158 H158       -2.7161  -15.2530  -45.0801 H         1 UNK         0.0600 
    159 H159        0.7574  -15.4913  -44.2704 H         1 UNK         0.3000 
    160 H160        3.3611  -17.9510  -44.4859 H         1 UNK         0.0600 
    161 H161        3.2524  -15.1076  -45.5847 H         1 UNK         0.0600 
    162 H162        3.5546  -16.5400  -46.5700 H         1 UNK         0.0600 
    163 H163        4.6885  -16.1028  -45.3092 H         1 UNK         0.0600 
    164 H164        2.8128  -15.3248  -43.2336 H         1 UNK         0.3000 
    165 H165        2.1673  -16.7299  -40.0518 H         1 UNK         0.0600 
    166 H166        4.6851  -15.2488  -40.9855 H         1 UNK         0.0600 
    167 H167        4.0567  -15.2746  -39.3380 H         1 UNK         0.0600 
    168 H168        4.6555  -16.7526  -40.0749 H         1 UNK         0.0600 
    169 H169        2.5011  -14.0360  -40.9751 H         1 UNK         0.3000 
    170 H170       -0.8206  -13.5396  -42.1371 H         1 UNK         0.0600 
    171 H171       -1.1293  -13.4974  -39.6549 H         1 UNK         0.0600 
    172 H172        0.3961  -12.6385  -39.4752 H         1 UNK         0.0600 
    173 H173       -0.9572  -11.8796  -40.3151 H         1 UNK         0.0600 
    174 H174        1.0994  -11.5970  -41.6622 H         1 UNK         0.3000 
    175 H175        1.9331  -11.1291  -44.7445 H         1 UNK         0.0600 
    176 H176        3.2088   -9.5281  -43.3125 H         1 UNK         0.0600 
    177 H177        1.6267   -9.8605  -42.6408 H         1 UNK         0.0600 
    178 H178        3.0598  -10.6098  -41.9345 H         1 UNK         0.0600 
    179 H179        3.9630  -11.8096  -45.2637 H         1 UNK         0.3000 
    180 H180        6.6266  -12.2692  -44.2669 H         1 UNK         0.0600 
    181 H181        5.9071  -15.1531  -43.4979 H         1 UNK         0.0600 
    182 H182        6.9435  -14.0512  -42.6034 H         1 UNK         0.0600 
    183 H183        7.4620  -14.6581  -44.1671 H         1 UNK         0.0600 
    184 H184        4.8260  -14.1037  -45.7847 H         1 UNK         0.3000 
    185 H185        5.5807  -12.5076  -48.8018 H         1 UNK         0.0600 
    186 H186        5.8169  -14.8139  -49.6880 H         1 UNK         0.0600 
    187 H187        7.2757  -14.3494  -48.8274 H         1 UNK         0.0600 
    188 H188        6.1206  -15.4370  -48.0658 H         1 UNK         0.0600 
    189 H189        3.7727  -14.5965  -48.2740 H         1 UNK         0.3000 
    190 H190       -1.6227  -23.9872  -45.9292 H         1 UNK         0.3000 
    191 H191       -4.2792  -24.7505  -44.9989 H         1 UNK         0.0600 
    192 H192       -2.1673  -25.3522  -43.7760 H         1 UNK         0.0600 
    193 H193       -3.0443  -26.7970  -44.2471 H         1 UNK         0.0600 
    194 H194       -1.6239  -26.2985  -45.1598 H         1 UNK         0.0600 
    195 H195       -5.1673  -26.9534  -45.5938 H         1 UNK         0.3000 
    196 H196       -5.7376  -27.2198  -48.3402 H         1 UNK         0.0600 
    197 H197       -6.7821  -29.3836  -47.6483 H         1 UNK         0.0600 
    198 H198       -7.2160  -28.0808  -46.5538 H         1 UNK         0.0600 
    199 H199       -6.0025  -29.2681  -46.0751 H         1 UNK         0.0600 
    200 H200       -3.2721  -28.8167  -46.3487 H         1 UNK         0.3000 
    201 H201       -2.2819  -30.6438  -48.3229 H         1 UNK         0.0600 
    202 H202       -1.9265  -30.9521  -45.8825 H         1 UNK         0.0600 
    203 H203       -0.9684  -29.4723  -45.8099 H         1 UNK         0.0600 
    204 H204       -0.3822  -30.8639  -46.7131 H         1 UNK         0.0600 
    205 H205       -1.8860  -27.2101  -47.9634 H         1 UNK         0.3000 
    206 H206        0.5415  -27.1015  -49.6800 H         1 UNK         0.0600 
    207 H207       -0.8478  -24.8911  -48.0792 H         1 UNK         0.0600 
    208 H208        0.5474  -25.8056  -47.5121 H         1 UNK         0.0600 
    209 H209        0.6864  -24.7724  -48.9239 H         1 UNK         0.0600 
    210 H210       -2.5798  -27.5627  -50.2127 H         1 UNK         0.3000 
    211 H211       -4.0347  -27.2909  -51.8341 H         1 UNK         0.0600 
    212 H212       -1.8121  -25.9843  -53.4894 H         1 UNK         0.0600 
    213 H213       -3.3293  -26.6267  -54.0971 H         1 UNK         0.0600 
    214 H214       -2.1422  -27.7129  -53.3936 H         1 UNK         0.0600 
    215 H215       -4.7693  -25.8013  -50.0217 H         1 UNK         0.3000 
    216 H216       -4.8585  -23.0626  -50.0963 H         1 UNK         0.0600 
    217 H217       -5.7886  -24.3910  -48.2528 H         1 UNK         0.0600 
    218 H218       -7.0712  -25.0208  -49.2860 H         1 UNK         0.0600 
    219 H219       -7.0317  -23.3154  -48.8518 H         1 UNK         0.0600 
    220 H220       -6.7209  -25.2444  -52.1730 H         1 UNK         0.3000 
    221 H221       -8.5180  -23.2738  -53.2620 H         1 UNK         0.0600 
    222 H222       -7.6588  -26.0256  -54.3082 H         1 UNK         0.0600 
    223 H223       -9.0424  -25.6996  -53.2631 H         1 UNK         0.0600 
    224 H224       -9.0183  -25.0832  -54.9073 H         1 UNK         0.0600 
    225 H225       -5.2082  -24.2564  -54.0427 H         1 UNK         0.3000 
    226 H226       -5.1784  -22.8904  -56.6538 H         1 UNK         0.0600 
    227 H227       -3.8670  -25.0015  -56.3175 H         1 UNK         0.0600 
    228 H228       -2.8394  -23.6389  -56.7353 H         1 UNK         0.0600 
    229 H229       -2.9046  -24.2031  -55.0738 H         1 UNK         0.0600 
    230 H230       -4.1676  -22.4155  -53.2943 H         1 UNK         0.3000 
    231 H231       -2.8299  -19.8837  -53.6506 H         1 UNK         0.0600 
    232 H232       -3.9425  -21.2033  -51.1250 H         1 UNK         0.0600 
    233 H233       -2.7550  -19.9140  -51.1873 H         1 UNK         0.0600 
    234 H234       -2.3404  -21.5076  -51.7949 H         1 UNK         0.0600 
    235 H235       -5.1888  -19.6438  -55.0091 H         1 UNK         0.3000 
    236 H236       -7.3945  -18.5105  -53.6206 H         1 UNK         0.0600 
    237 H237       -8.1232  -17.8637  -55.9266 H         1 UNK         0.0600 
    238 H238       -6.5242  -18.2538  -56.5509 H         1 UNK         0.0600 
    239 H239       -7.5499  -19.5237  -55.8826 H         1 UNK         0.0600 
    240 H240       -4.3525  -17.1451  -54.3817 H         1 UNK         0.3000 
    241 H241       -4.9956  -14.3546  -54.2750 H         1 UNK         0.0600 
    242 H242       -5.0123  -16.7653  -51.6917 H         1 UNK         0.3800 
    243 H243       -5.0663  -15.5732  -50.4162 H         1 UNK         0.3800 
    244 H244       -2.9276  -14.7819  -55.2605 H         1 UNK         0.0800 
    245 H245       -2.4759  -14.1531  -53.7116 H         1 UNK         0.0800 
    246 H246        0.0881  -16.7498  -52.6888 H         1 UNK         0.0800 
    247 H247       -0.2076  -15.0783  -53.0918 H         1 UNK         0.0800 
@<TRIPOS>BOND
     1    1    2 1    
     2    1  127 1    
     3    1  128 1    
     4    1  129 1    
     5    2    3 2    
     6    2    4 am   BACKBONE|DICT|INTERRES
     7    4    5 1    
     8    4  130 1    
     9    5    6 1    
    10    5   65 1    
    11    5  131 1    
    12    6    7 1    
    13    6  132 1    
    14    6  133 1    
    15    7    8 1    
    16    8    9 1    
    17    8  134 1    
    18    8  135 1    
    19    9   10 ar   
    20    9   14 ar   
    21   10   11 ar   
    22   10  136 1    
    23   11   12 ar   
    24   11  126 1    
    25   12   13 ar   
    26   12  137 1    
    27   13   14 ar   
    28   13   15 1    
    29   14  138 1    
    30   15   16 1    
    31   15  139 1    
    32   15  140 1    
    33   16   17 1    
    34   17   18 1    
    35   17  141 1    
    36   17  142 1    
    37   18   19 1    
    38   18   67 1    
    39   18  143 1    
    40   19   20 am   BACKBONE|DICT|INTERRES
    41   19  144 1    
    42   20   21 2    
    43   20   22 1    
    44   22   23 1    
    45   22   24 1    
    46   22  145 1    
    47   23  146 1    
    48   23  147 1    
    49   23  148 1    
    50   24   25 am   BACKBONE|DICT|INTERRES
    51   24  149 1    
    52   25   26 2    
    53   25   27 1    
    54   27   28 1    
    55   27   29 1    
    56   27  150 1    
    57   28  151 1    
    58   28  152 1    
    59   28  153 1    
    60   29   30 am   BACKBONE|DICT|INTERRES
    61   29  154 1    
    62   30   31 2    
    63   30   32 1    
    64   32   33 1    
    65   32   34 1    
    66   32  155 1    
    67   33  156 1    
    68   33  157 1    
    69   33  158 1    
    70   34   35 am   BACKBONE|DICT|INTERRES
    71   34  159 1    
    72   35   36 2    
    73   35   37 1    
    74   37   38 1    
    75   37   39 1    
    76   37  160 1    
    77   38  161 1    
    78   38  162 1    
    79   38  163 1    
    80   39   40 am   BACKBONE|DICT|INTERRES
    81   39  164 1    
    82   40   41 2    
    83   40   42 1    
    84   42   43 1    
    85   42   44 1    
    86   42  165 1    
    87   43  166 1    
    88   43  167 1    
    89   43  168 1    
    90   44   45 am   BACKBONE|DICT|INTERRES
    91   44  169 1    
    92   45   46 2    
    93   45   47 1    
    94   47   48 1    
    95   47   49 1    
    96   47  170 1    
    97   48  171 1    
    98   48  172 1    
    99   48  173 1    
   100   49   50 am   BACKBONE|DICT|INTERRES
   101   49  174 1    
   102   50   51 2    
   103   50   52 1    
   104   52   53 1    
   105   52   54 1    
   106   52  175 1    
   107   53  176 1    
   108   53  177 1    
   109   53  178 1    
   110   54   55 am   BACKBONE|DICT|INTERRES
   111   54  179 1    
   112   55   56 2    
   113   55   57 1    
   114   57   58 1    
   115   57   59 1    
   116   57  180 1    
   117   58  181 1    
   118   58  182 1    
   119   58  183 1    
   120   59   60 am   BACKBONE|DICT|INTERRES
   121   59  184 1    
   122   60   61 2    
   123   60   62 1    
   124   62   63 1    
   125   62   64 1    
   126   62  185 1    
   127   63  186 1    
   128   63  187 1    
   129   63  188 1    
   130   64   65 am   BACKBONE|DICT|INTERRES
   131   64  189 1    
   132   65   66 2    
   133   67   68 2    
   134   67   69 am   BACKBONE|DICT|INTERRES
   135   69   70 1    
   136   69  190 1    
   137   70   71 1    
   138   70   72 1    
   139   70  191 1    
   140   71  192 1    
   141   71  193 1    
   142   71  194 1    
   143   72   73 2    
   144   72   74 am   BACKBONE|DICT|INTERRES
   145   74   75 1    
   146   74  195 1    
   147   75   76 1    
   148   75   77 1    
   149   75  196 1    
   150   76  197 1    
   151   76  198 1    
   152   76  199 1    
   153   77   78 2    
   154   77   79 am   BACKBONE|DICT|INTERRES
   155   79   80 1    
   156   79  200 1    
   157   80   81 1    
   158   80   82 1    
   159   80  201 1    
   160   81  202 1    
   161   81  203 1    
   162   81  204 1    
   163   82   83 2    
   164   82   84 am   BACKBONE|DICT|INTERRES
   165   84   85 1    
   166   84  205 1    
   167   85   86 1    
   168   85   87 1    
   169   85  206 1    
   170   86  207 1    
   171   86  208 1    
   172   86  209 1    
   173   87   88 2    
   174   87   89 am   BACKBONE|DICT|INTERRES
   175   89   90 1    
   176   89  210 1    
   177   90   91 1    
   178   90   92 1    
   179   90  211 1    
   180   91  212 1    
   181   91  213 1    
   182   91  214 1    
   183   92   93 2    
   184   92   94 am   BACKBONE|DICT|INTERRES
   185   94   95 1    
   186   94  215 1    
   187   95   96 1    
   188   95   97 1    
   189   95  216 1    
   190   96  217 1    
   191   96  218 1    
   192   96  219 1    
   193   97   98 2    
   194   97   99 am   BACKBONE|DICT|INTERRES
   195   99  100 1    
   196   99  220 1    
   197  100  101 1    
   198  100  102 1    
   199  100  221 1    
   200  101  222 1    
   201  101  223 1    
   202  101  224 1    
   203  102  103 2    
   204  102  104 am   BACKBONE|DICT|INTERRES
   205  104  105 1    
   206  104  225 1    
   207  105  106 1    
   208  105  107 1    
   209  105  226 1    
   210  106  227 1    
   211  106  228 1    
   212  106  229 1    
   213  107  108 2    
   214  107  109 am   BACKBONE|DICT|INTERRES
   215  109  110 1    
   216  109  230 1    
   217  110  111 1    
   218  110  112 1    
   219  110  231 1    
   220  111  232 1    
   221  111  233 1    
   222  111  234 1    
   223  112  113 2    
   224  112  114 am   BACKBONE|DICT|INTERRES
   225  114  115 1    
   226  114  235 1    
   227  115  116 1    
   228  115  117 1    
   229  115  236 1    
   230  116  237 1    
   231  116  238 1    
   232  116  239 1    
   233  117  118 2    
   234  117  119 am   BACKBONE|DICT|INTERRES
   235  119  120 1    
   236  119  240 1    
   237  120  121 1    
   238  120  124 1    
   239  120  241 1    
   240  121  122 am   BACKBONE|DICT|INTERRES
   241  121  123 2    
   242  122  242 1    
   243  122  243 1    
   244  124  125 1    
   245  124  244 1    
   246  124  245 1    
   247  125  126 1    
   248  126  246 1    
   249  126  247 1    
@<TRIPOS>SUBSTRUCTURE
     1 UNK         1 GROUP             0       ****    0 ROOT    
