@<TRIPOS>MOLECULE
3R540
247   249    1
SMALL
USER_CHARGES


@<TRIPOS>ATOM
      1 CA          0.8181  -15.0490  -49.7681 C.3       0 UNK        -0.1800 
      2 C           2.2188  -14.5918  -49.3897 C.2       0 UNK         0.5000 
      3 O           2.4171  -13.4215  -49.0643 O.2       0 UNK        -0.5000 
      4 N           3.1845  -15.5208  -49.4140 N.am      1 UNK        -0.5000 
      5 CA          4.6174  -15.3016  -49.1576 C.3       1 UNK         0.1400 
      6 C6          5.4333  -16.6072  -49.3572 C.3       23 UNK        -0.0398 
      7 S7          5.8617  -17.0062  -51.0887 S.3       23 UNK        -0.2404 
      8 C8          4.2655  -17.0951  -51.9738 C.3       23 UNK        -0.0205 
      9 C9          3.2411  -18.0905  -51.4275 C.ar      23 UNK        -0.0193 
     10 C10         1.8902  -17.8711  -51.7087 C.ar      23 UNK        -0.1150 
     11 C11         0.9087  -18.7610  -51.2661 C.ar      23 UNK        -0.0193 
     12 C12         1.2821  -19.8803  -50.5180 C.ar      23 UNK        -0.1150 
     13 C13         2.6300  -20.1183  -50.2304 C.ar      23 UNK        -0.0193 
     14 C14         3.6030  -19.2281  -50.6952 C.ar      23 UNK        -0.1150 
     15 C15         3.0469  -21.3621  -49.4612 C.3       23 UNK        -0.0205 
     16 S16         3.4448  -21.0193  -47.7145 S.3       23 UNK        -0.2404 
     17 C17         1.8183  -20.6396  -46.9770 C.3       23 UNK        -0.0398 
     18 CA          1.0822  -21.8983  -46.4449 C.3       11 UNK         0.1400 
     19 N           0.2152  -21.5978  -45.3013 N.am      11 UNK        -0.5000 
     20 C          -0.4315  -22.5151  -44.5657 C.2       10 UNK         0.5000 
     21 O          -0.2958  -23.7305  -44.7124 O.2       10 UNK        -0.5000 
     22 CA         -1.4423  -21.9859  -43.5291 C.3       10 UNK         0.1400 
     23 CB         -0.7394  -21.5778  -42.2259 C.3       10 UNK        -0.1800 
     24 N          -2.2357  -20.8649  -44.0403 N.am      10 UNK        -0.5000 
     25 C          -3.0977  -20.9630  -45.0626 C.2       9 UNK         0.5000 
     26 O          -3.3562  -22.0192  -45.6376 O.2       9 UNK        -0.5000 
     27 CA         -3.7417  -19.6620  -45.5703 C.3       9 UNK         0.1400 
     28 CB         -4.9694  -19.2833  -44.7304 C.3       9 UNK        -0.1800 
     29 N          -2.8005  -18.5435  -45.6268 N.am      9 UNK        -0.5000 
     30 C          -1.7211  -18.4980  -46.4212 C.2       8 UNK         0.5000 
     31 O          -1.4492  -19.3641  -47.2494 O.2       8 UNK        -0.5000 
     32 CA         -0.7523  -17.3199  -46.2275 C.3       8 UNK         0.1400 
     33 CB         -1.2472  -16.0776  -46.9804 C.3       8 UNK        -0.1800 
     34 N          -0.5468  -16.9986  -44.8160 N.am      8 UNK        -0.5000 
     35 C           0.0085  -17.8256  -43.9190 C.2       7 UNK         0.5000 
     36 O           0.4845  -18.9217  -44.2120 O.2       7 UNK        -0.5000 
     37 CA         -0.0293  -17.3869  -42.4443 C.3       7 UNK         0.1400 
     38 CB          1.1469  -16.4709  -42.0919 C.3       7 UNK        -0.1800 
     39 N          -1.2788  -16.7106  -42.1084 N.am      7 UNK        -0.5000 
     40 C          -2.4510  -17.3366  -41.9500 C.2       6 UNK         0.5000 
     41 O          -2.5954  -18.5550  -42.0544 O.2       6 UNK        -0.5000 
     42 CA         -3.6677  -16.4384  -41.6623 C.3       6 UNK         0.1400 
     43 CB         -3.7442  -16.0893  -40.1685 C.3       6 UNK        -0.1800 
     44 N          -3.6579  -15.2034  -42.4517 N.am      6 UNK        -0.5000 
     45 C          -3.7947  -15.1711  -43.7839 C.2       5 UNK         0.5000 
     46 O          -3.9231  -16.1770  -44.4788 O.2       5 UNK        -0.5000 
     47 CA         -3.7441  -13.7909  -44.4609 C.3       5 UNK         0.1400 
     48 CB         -5.1081  -13.0918  -44.3644 C.3       5 UNK        -0.1800 
     49 N          -2.6972  -12.9003  -43.9494 N.am      5 UNK        -0.5000 
     50 C          -1.3856  -13.1692  -43.9776 C.2       4 UNK         0.5000 
     51 O          -0.9117  -14.2619  -44.2947 O.2       4 UNK        -0.5000 
     52 CA         -0.4305  -12.0315  -43.6070 C.3       4 UNK         0.1400 
     53 CB          0.1311  -12.2163  -42.1881 C.3       4 UNK        -0.1800 
     54 N           0.6549  -12.0530  -44.5805 N.am      4 UNK        -0.5000 
     55 C           1.3213  -10.9889  -45.0412 C.2       3 UNK         0.5000 
     56 O           1.1266   -9.8417  -44.6345 O.2       3 UNK        -0.5000 
     57 CA          2.3565  -11.2469  -46.1619 C.3       3 UNK         0.1400 
     58 CB          3.4697  -10.1791  -46.2069 C.3       3 UNK        -0.1800 
     59 N           2.9325  -12.5982  -46.1510 N.am      3 UNK        -0.5000 
     60 C           3.6663  -13.1598  -45.1759 C.2       2 UNK         0.5000 
     61 O           3.9599  -12.5903  -44.1244 O.2       2 UNK        -0.5000 
     62 CA          4.1430  -14.6108  -45.3917 C.3       2 UNK         0.1400 
     63 CB          3.3323  -15.5734  -44.5169 C.3       2 UNK        -0.1800 
     64 N           4.0494  -15.0652  -46.7778 N.am      2 UNK        -0.5000 
     65 C           4.9002  -14.7224  -47.7532 C.2       1 UNK         0.5000 
     66 O           5.8726  -13.9859  -47.5833 O.2       1 UNK        -0.5000 
     67 C           0.2907  -22.5971  -47.5675 C.2       11 UNK         0.5000 
     68 O           0.7004  -23.6571  -48.0404 O.2       11 UNK        -0.5000 
     69 N          -0.8482  -22.0043  -47.9496 N.am      12 UNK        -0.5000 
     70 CA         -1.7461  -22.5021  -48.9866 C.3       12 UNK         0.1400 
     71 CB         -2.8840  -21.5011  -49.2080 C.3       12 UNK        -0.1800 
     72 C          -2.3074  -23.9012  -48.6927 C.2       12 UNK         0.5000 
     73 O          -2.3692  -24.7210  -49.6059 O.2       12 UNK        -0.5000 
     74 N          -2.6554  -24.1697  -47.4275 N.am      13 UNK        -0.5000 
     75 CA         -3.1130  -25.4766  -46.9542 C.3       13 UNK         0.1400 
     76 CB         -3.5576  -25.3633  -45.4883 C.3       13 UNK        -0.1800 
     77 C          -2.0565  -26.5863  -47.1200 C.2       13 UNK         0.5000 
     78 O          -2.4153  -27.7143  -47.4595 O.2       13 UNK        -0.5000 
     79 N          -0.7775  -26.2444  -46.9107 N.am      14 UNK        -0.5000 
     80 CA          0.3583  -27.1401  -47.1307 C.3       14 UNK         0.1400 
     81 CB          1.5798  -26.6154  -46.3601 C.3       14 UNK        -0.1800 
     82 C           0.6823  -27.3130  -48.6272 C.2       14 UNK         0.5000 
     83 O           0.9957  -28.4235  -49.0574 O.2       14 UNK        -0.5000 
     84 N           0.5926  -26.2170  -49.3927 N.am      15 UNK        -0.5000 
     85 CA          0.8670  -26.1673  -50.8316 C.3       15 UNK         0.1400 
     86 CB          1.1112  -24.7037  -51.2326 C.3       15 UNK        -0.1800 
     87 C          -0.2409  -26.7822  -51.7126 C.2       15 UNK         0.5000 
     88 O           0.0102  -27.0357  -52.8914 O.2       15 UNK        -0.5000 
     89 N          -1.4369  -26.9836  -51.1409 N.am      16 UNK        -0.5000 
     90 CA         -2.6896  -27.3810  -51.7951 C.3       16 UNK         0.1400 
     91 CB         -2.5779  -28.7771  -52.4434 C.3       16 UNK        -0.1800 
     92 C          -3.2129  -26.2898  -52.7559 C.2       16 UNK         0.5000 
     93 O          -3.6875  -26.5907  -53.8530 O.2       16 UNK        -0.5000 
     94 N          -3.1106  -25.0357  -52.3062 N.am      17 UNK        -0.5000 
     95 CA         -3.6103  -23.8284  -52.9580 C.3       17 UNK         0.1400 
     96 CB         -2.4772  -22.7884  -52.9301 C.3       17 UNK        -0.1800 
     97 C          -4.8625  -23.3223  -52.2122 C.2       17 UNK         0.5000 
     98 O          -5.2128  -23.8627  -51.1589 O.2       17 UNK        -0.5000 
     99 N          -5.5286  -22.2947  -52.7572 N.am      18 UNK        -0.5000 
    100 CA        -6.6870  -21.6565  -52.1213 C.3       18 UNK         0.1400 
    101 CB        -7.4111  -20.7627  -53.1392 C.3       18 UNK        -0.1800 
    102 C         -6.2592  -20.8373  -50.8899 C.2       18 UNK         0.5000 
    103 O         -5.2575  -20.1241  -50.9622 O.2       18 UNK        -0.5000 
    104 N         -7.0175  -20.9437  -49.7909 N.am      19 UNK        -0.5000 
    105 CA        -6.7333  -20.3037  -48.5034 C.3       19 UNK         0.1400 
    106 CB        -7.8167  -20.6991  -47.4882 C.3       19 UNK        -0.1800 
    107 C         -6.6090  -18.7717  -48.6155 C.2       19 UNK         0.5000 
    108 O         -7.6035  -18.0996  -48.8937 O.2       19 UNK        -0.5000 
    109 N         -5.3773  -18.2681  -48.4514 N.am      20 UNK        -0.5000 
    110 CA        -4.9188  -16.8743  -48.5437 C.3       20 UNK         0.1400 
    111 CB        -5.6525  -15.9665  -47.5391 C.3       20 UNK        -0.1800 
    112 C         -4.9589  -16.2796  -49.9664 C.2       20 UNK         0.5000 
    113 O         -4.0422  -15.5459  -50.3360 O.2       20 UNK        -0.5000 
    114 N         -5.9978  -16.6124  -50.7417 N.am      21 UNK        -0.5000 
    115 CA        -6.1988  -16.1974  -52.1306 C.3       21 UNK         0.1400 
    116 CB        -7.6329  -16.5555  -52.5489 C.3       21 UNK        -0.1800 
    117 C         -5.1869  -16.8198  -53.1114 C.2       21 UNK         0.5000 
    118 O         -4.9014  -16.2183  -54.1484 O.2       21 UNK        -0.5000 
    119 N         -4.6676  -18.0066  -52.7716 N.am      22 UNK        -0.5000 
    120 CA        -3.7047  -18.8195  -53.5267 C.3       22 UNK         0.1400 
    121 C         -4.2945  -19.4271  -54.8313 C.2       22 UNK         0.5000 
    122 N         -4.7901  -18.6136  -55.7527 N.am      22 UNK        -0.7600 
    123 O         -4.3435  -20.6437  -54.9897 O.2       22 UNK        -0.5000 
    124 C124       -2.3495  -18.0902  -53.7532 C.3       23 UNK        -0.0398 
    125 S125       -0.9127  -19.1186  -53.3019 S.3       23 UNK        -0.2404 
    126 C126       -0.5468  -18.5097  -51.6230 C.3       23 UNK        -0.0205 
    127 H127        0.6477  -14.8927  -50.8330 H         1 UNK         0.0600 
    128 H128        0.0701  -14.4788  -49.2176 H         1 UNK         0.0600 
    129 H129        0.6708  -16.1061  -49.5460 H         1 UNK         0.0600 
    130 H130        2.9416  -16.4616  -49.6917 H         1 UNK         0.3000 
    131 H131        4.9672  -14.5568  -49.8754 H         1 UNK         0.0600 
    132 H132        6.3945  -16.5444  -48.8424 H         1 UNK         0.0800 
    133 H133        4.9231  -17.4570  -48.9013 H         1 UNK         0.0800 
    134 H134        4.4733  -17.3670  -53.0093 H         1 UNK         0.0800 
    135 H135        3.8363  -16.0929  -52.0111 H         1 UNK         0.0800 
    136 H136        1.5981  -17.0109  -52.2952 H         1 UNK         0.1150 
    137 H137        0.5262  -20.5741  -50.1784 H         1 UNK         0.1150 
    138 H138        4.6430  -19.4346  -50.4877 H         1 UNK         0.1150 
    139 H139        2.2784  -22.1300  -49.5309 H         1 UNK         0.0800 
    140 H140        3.9308  -21.7912  -49.9354 H         1 UNK         0.0800 
    141 H141        1.2074  -20.0596  -47.6700 H         1 UNK         0.0800 
    142 H142        2.0263  -19.9629  -46.1476 H         1 UNK         0.0800 
    143 H143        1.8290  -22.6074  -46.0810 H         1 UNK         0.0600 
    144 H144        0.0933  -20.6171  -45.0658 H         1 UNK         0.3000 
    145 H145       -2.1323  -22.7999  -43.2969 H         1 UNK         0.0600 
    146 H146       -1.4584  -21.2405  -41.4791 H         1 UNK         0.0600 
    147 H147       -0.1958  -22.4208  -41.7979 H         1 UNK         0.0600 
    148 H148       -0.0215  -20.7740  -42.3854 H         1 UNK         0.0600 
    149 H149       -2.1140  -19.9679  -43.5847 H         1 UNK         0.3000 
    150 H150       -4.0840  -19.8531  -46.5861 H         1 UNK         0.0600 
    151 H151       -5.6792  -20.1098  -44.6801 H         1 UNK         0.0600 
    152 H152       -5.4940  -18.4315  -45.1628 H         1 UNK         0.0600 
    153 H153       -4.6949  -19.0227  -43.7085 H         1 UNK         0.0600 
    154 H154       -3.0006  -17.7512  -45.0218 H         1 UNK         0.3000 
    155 H155        0.2125  -17.6105  -46.6486 H         1 UNK         0.0600 
    156 H156       -2.2001  -15.7223  -46.5892 H         1 UNK         0.0600 
    157 H157       -0.5300  -15.2605  -46.9036 H         1 UNK         0.0600 
    158 H158       -1.3882  -16.2930  -48.0402 H         1 UNK         0.0600 
    159 H159       -0.8615  -16.0801  -44.5112 H         1 UNK         0.3000 
    160 H160        0.0535  -18.2861  -41.8300 H         1 UNK         0.0600 
    161 H161        1.1067  -15.5353  -42.6496 H         1 UNK         0.0600 
    162 H162        2.0963  -16.9598  -42.3119 H         1 UNK         0.0600 
    163 H163        1.1494  -16.2252  -41.0299 H         1 UNK         0.0600 
    164 H164       -1.2558  -15.7028  -42.0603 H         1 UNK         0.3000 
    165 H165       -4.5648  -17.0027  -41.9264 H         1 UNK         0.0600 
    166 H166       -4.6474  -15.5223  -39.9422 H         1 UNK         0.0600 
    167 H167       -3.7675  -16.9929  -39.5578 H         1 UNK         0.0600 
    168 H168       -2.8863  -15.4975  -39.8469 H         1 UNK         0.0600 
    169 H169       -3.5456  -14.3337  -41.9518 H         1 UNK         0.3000 
    170 H170       -3.5333  -13.9607  -45.5186 H         1 UNK         0.0600 
    171 H171       -5.9018  -13.7288  -44.7578 H         1 UNK         0.0600 
    172 H172       -5.3643  -12.8463  -43.3331 H         1 UNK         0.0600 
    173 H173       -5.1199  -12.1680  -44.9430 H         1 UNK         0.0600 
    174 H174       -2.9990  -11.9819  -43.6573 H         1 UNK         0.3000 
    175 H175       -0.9672  -11.0823  -43.6672 H         1 UNK         0.0600 
    176 H176        0.6861  -13.1502  -42.0930 H         1 UNK         0.0600 
    177 H177        0.8052  -11.4013  -41.9241 H         1 UNK         0.0600 
    178 H178       -0.6699  -12.2300  -41.4483 H         1 UNK         0.0600 
    179 H179        0.8364  -12.9629  -44.9831 H         1 UNK         0.3000 
    180 H180        1.8004  -11.1727  -47.0975 H         1 UNK         0.0600 
    181 H181        4.0311  -10.1387  -45.2732 H         1 UNK         0.0600 
    182 H182        3.0541   -9.1859  -46.3809 H         1 UNK         0.0600 
    183 H183        4.1743  -10.3793  -47.0142 H         1 UNK         0.0600 
    184 H184        2.7738  -13.1342  -46.9971 H         1 UNK         0.3000 
    185 H185        5.1876  -14.6624  -45.0772 H         1 UNK         0.0600 
    186 H186        3.4181  -15.2956  -43.4660 H         1 UNK         0.0600 
    187 H187        2.2744  -15.5620  -44.7826 H         1 UNK         0.0600 
    188 H188        3.6927  -16.5980  -44.6115 H         1 UNK         0.0600 
    189 H189        3.2764  -15.6719  -47.0074 H         1 UNK         0.3000 
    190 H190       -1.1011  -21.1099  -47.5334 H         1 UNK         0.3000 
    191 H191       -1.1639  -22.5665  -49.9060 H         1 UNK         0.0600 
    192 H192       -3.4584  -21.3435  -48.2975 H         1 UNK         0.0600 
    193 H193       -3.5734  -21.8669  -49.9665 H         1 UNK         0.0600 
    194 H194       -2.5097  -20.5353  -49.5455 H         1 UNK         0.0600 
    195 H195       -2.6383  -23.4172  -46.7444 H         1 UNK         0.3000 
    196 H196       -3.9822  -25.7574  -47.5526 H         1 UNK         0.0600 
    197 H197       -3.9159  -26.3224  -45.1124 H         1 UNK         0.0600 
    198 H198       -4.3714  -24.6465  -45.3782 H         1 UNK         0.0600 
    199 H199       -2.7392  -25.0414  -44.8436 H         1 UNK         0.0600 
    200 H200       -0.5641  -25.2927  -46.6396 H         1 UNK         0.3000 
    201 H201        0.1070  -28.1237  -46.7279 H         1 UNK         0.0600 
    202 H202        1.3671  -26.5341  -45.2940 H         1 UNK         0.0600 
    203 H203        1.8922  -25.6324  -46.7128 H         1 UNK         0.0600 
    204 H204        2.4300  -27.2892  -46.4728 H         1 UNK         0.0600 
    205 H205        0.3928  -25.3293  -48.9394 H         1 UNK         0.3000 
    206 H206        1.7836  -26.7287  -51.0241 H         1 UNK         0.0600 
    207 H207        1.9356  -24.2727  -50.6649 H         1 UNK         0.0600 
    208 H208        1.3680  -24.6225  -52.2895 H         1 UNK         0.0600 
    209 H209        0.2269  -24.0897  -51.0629 H         1 UNK         0.0600 
    210 H210       -1.5393  -26.6562  -50.1882 H         1 UNK         0.3000 
    211 H211       -3.4292  -27.4541  -50.9964 H         1 UNK         0.0600 
    212 H212       -1.9174  -28.7749  -53.3105 H         1 UNK         0.0600 
    213 H213       -3.5542  -29.1263  -52.7814 H         1 UNK         0.0600 
    214 H214       -2.1987  -29.5119  -51.7332 H         1 UNK         0.0600 
    215 H215       -2.7949  -24.9083  -51.3459 H         1 UNK         0.3000 
    216 H216       -3.8821  -24.0348  -53.9950 H         1 UNK         0.0600 
    217 H217       -2.7331  -21.9018  -53.5044 H         1 UNK         0.0600 
    218 H218       -1.5608  -23.1917  -53.3615 H         1 UNK         0.0600 
    219 H219       -2.2507  -22.4617  -51.9178 H         1 UNK         0.0600 
    220 H220       -5.1666  -21.8515  -53.5960 H         1 UNK         0.3000 
    221 H221       -7.3787  -22.4402  -51.8050 H         1 UNK         0.0600 
    222 H222       -6.7928  -19.9241  -53.4571 H         1 UNK         0.0600 
    223 H223       -7.6960  -21.3252  -54.0284 H         1 UNK         0.0600 
    224 H224       -8.3239  -20.3473  -52.7104 H         1 UNK         0.0600 
    225 H225       -7.8399  -21.5281  -49.8225 H         1 UNK         0.3000 
    226 H226       -5.7854  -20.7071  -48.1443 H         1 UNK         0.0600 
    227 H227       -7.8387  -21.7780  -47.3340 H         1 UNK         0.0600 
    228 H228       -7.6296  -20.2370  -46.5179 H         1 UNK         0.0600 
    229 H229       -8.8092  -20.3857  -47.8148 H         1 UNK         0.0600 
    230 H230       -4.6273  -18.9335  -48.3378 H         1 UNK         0.3000 
    231 H231       -3.8691  -16.8992  -48.2493 H         1 UNK         0.0600 
    232 H232       -5.1924  -14.9785  -47.5019 H         1 UNK         0.0600 
    233 H233       -5.6143  -16.3802  -46.5324 H         1 UNK         0.0600 
    234 H234       -6.7009  -15.8275  -47.8034 H         1 UNK         0.0600 
    235 H235       -6.7170  -17.1952  -50.3235 H         1 UNK         0.3000 
    236 H236       -6.0841  -15.1127  -52.1812 H         1 UNK         0.0600 
    237 H237       -8.3650  -16.0558  -51.9143 H         1 UNK         0.0600 
    238 H238       -7.8301  -16.2478  -53.5767 H         1 UNK         0.0600 
    239 H239       -7.8130  -17.6295  -52.4864 H         1 UNK         0.0600 
    240 H240       -4.9934  -18.4509  -51.9187 H         1 UNK         0.3000 
    241 H241       -3.5204  -19.6665  -52.8653 H         1 UNK         0.0600 
    242 H242       -4.8178  -17.6165  -55.5689 H         1 UNK         0.3800 
    243 H243       -5.1907  -18.9895  -56.5973 H         1 UNK         0.3800 
    244 H244       -2.2312  -17.7719  -54.7904 H         1 UNK         0.0800 
    245 H245       -2.3042  -17.1658  -53.1768 H         1 UNK         0.0800 
    246 H246       -0.7476  -17.4399  -51.5519 H         1 UNK         0.0800 
    247 H247       -1.2113  -18.9954  -50.9073 H         1 UNK         0.0800 
@<TRIPOS>BOND
     1    1    2 1    
     2    1  127 1    
     3    1  128 1    
     4    1  129 1    
     5    2    3 2    
     6    2    4 am   BACKBONE|DICT|INTERRES
     7    4    5 1    
     8    4  130 1    
     9    5    6 1    
    10    5   65 1    
    11    5  131 1    
    12    6    7 1    
    13    6  132 1    
    14    6  133 1    
    15    7    8 1    
    16    8    9 1    
    17    8  134 1    
    18    8  135 1    
    19    9   10 ar   
    20    9   14 ar   
    21   10   11 ar   
    22   10  136 1    
    23   11   12 ar   
    24   11  126 1    
    25   12   13 ar   
    26   12  137 1    
    27   13   14 ar   
    28   13   15 1    
    29   14  138 1    
    30   15   16 1    
    31   15  139 1    
    32   15  140 1    
    33   16   17 1    
    34   17   18 1    
    35   17  141 1    
    36   17  142 1    
    37   18   19 1    
    38   18   67 1    
    39   18  143 1    
    40   19   20 am   BACKBONE|DICT|INTERRES
    41   19  144 1    
    42   20   21 2    
    43   20   22 1    
    44   22   23 1    
    45   22   24 1    
    46   22  145 1    
    47   23  146 1    
    48   23  147 1    
    49   23  148 1    
    50   24   25 am   BACKBONE|DICT|INTERRES
    51   24  149 1    
    52   25   26 2    
    53   25   27 1    
    54   27   28 1    
    55   27   29 1    
    56   27  150 1    
    57   28  151 1    
    58   28  152 1    
    59   28  153 1    
    60   29   30 am   BACKBONE|DICT|INTERRES
    61   29  154 1    
    62   30   31 2    
    63   30   32 1    
    64   32   33 1    
    65   32   34 1    
    66   32  155 1    
    67   33  156 1    
    68   33  157 1    
    69   33  158 1    
    70   34   35 am   BACKBONE|DICT|INTERRES
    71   34  159 1    
    72   35   36 2    
    73   35   37 1    
    74   37   38 1    
    75   37   39 1    
    76   37  160 1    
    77   38  161 1    
    78   38  162 1    
    79   38  163 1    
    80   39   40 am   BACKBONE|DICT|INTERRES
    81   39  164 1    
    82   40   41 2    
    83   40   42 1    
    84   42   43 1    
    85   42   44 1    
    86   42  165 1    
    87   43  166 1    
    88   43  167 1    
    89   43  168 1    
    90   44   45 am   BACKBONE|DICT|INTERRES
    91   44  169 1    
    92   45   46 2    
    93   45   47 1    
    94   47   48 1    
    95   47   49 1    
    96   47  170 1    
    97   48  171 1    
    98   48  172 1    
    99   48  173 1    
   100   49   50 am   BACKBONE|DICT|INTERRES
   101   49  174 1    
   102   50   51 2    
   103   50   52 1    
   104   52   53 1    
   105   52   54 1    
   106   52  175 1    
   107   53  176 1    
   108   53  177 1    
   109   53  178 1    
   110   54   55 am   BACKBONE|DICT|INTERRES
   111   54  179 1    
   112   55   56 2    
   113   55   57 1    
   114   57   58 1    
   115   57   59 1    
   116   57  180 1    
   117   58  181 1    
   118   58  182 1    
   119   58  183 1    
   120   59   60 am   BACKBONE|DICT|INTERRES
   121   59  184 1    
   122   60   61 2    
   123   60   62 1    
   124   62   63 1    
   125   62   64 1    
   126   62  185 1    
   127   63  186 1    
   128   63  187 1    
   129   63  188 1    
   130   64   65 am   BACKBONE|DICT|INTERRES
   131   64  189 1    
   132   65   66 2    
   133   67   68 2    
   134   67   69 am   BACKBONE|DICT|INTERRES
   135   69   70 1    
   136   69  190 1    
   137   70   71 1    
   138   70   72 1    
   139   70  191 1    
   140   71  192 1    
   141   71  193 1    
   142   71  194 1    
   143   72   73 2    
   144   72   74 am   BACKBONE|DICT|INTERRES
   145   74   75 1    
   146   74  195 1    
   147   75   76 1    
   148   75   77 1    
   149   75  196 1    
   150   76  197 1    
   151   76  198 1    
   152   76  199 1    
   153   77   78 2    
   154   77   79 am   BACKBONE|DICT|INTERRES
   155   79   80 1    
   156   79  200 1    
   157   80   81 1    
   158   80   82 1    
   159   80  201 1    
   160   81  202 1    
   161   81  203 1    
   162   81  204 1    
   163   82   83 2    
   164   82   84 am   BACKBONE|DICT|INTERRES
   165   84   85 1    
   166   84  205 1    
   167   85   86 1    
   168   85   87 1    
   169   85  206 1    
   170   86  207 1    
   171   86  208 1    
   172   86  209 1    
   173   87   88 2    
   174   87   89 am   BACKBONE|DICT|INTERRES
   175   89   90 1    
   176   89  210 1    
   177   90   91 1    
   178   90   92 1    
   179   90  211 1    
   180   91  212 1    
   181   91  213 1    
   182   91  214 1    
   183   92   93 2    
   184   92   94 am   BACKBONE|DICT|INTERRES
   185   94   95 1    
   186   94  215 1    
   187   95   96 1    
   188   95   97 1    
   189   95  216 1    
   190   96  217 1    
   191   96  218 1    
   192   96  219 1    
   193   97   98 2    
   194   97   99 am   BACKBONE|DICT|INTERRES
   195   99  100 1    
   196   99  220 1    
   197  100  101 1    
   198  100  102 1    
   199  100  221 1    
   200  101  222 1    
   201  101  223 1    
   202  101  224 1    
   203  102  103 2    
   204  102  104 am   BACKBONE|DICT|INTERRES
   205  104  105 1    
   206  104  225 1    
   207  105  106 1    
   208  105  107 1    
   209  105  226 1    
   210  106  227 1    
   211  106  228 1    
   212  106  229 1    
   213  107  108 2    
   214  107  109 am   BACKBONE|DICT|INTERRES
   215  109  110 1    
   216  109  230 1    
   217  110  111 1    
   218  110  112 1    
   219  110  231 1    
   220  111  232 1    
   221  111  233 1    
   222  111  234 1    
   223  112  113 2    
   224  112  114 am   BACKBONE|DICT|INTERRES
   225  114  115 1    
   226  114  235 1    
   227  115  116 1    
   228  115  117 1    
   229  115  236 1    
   230  116  237 1    
   231  116  238 1    
   232  116  239 1    
   233  117  118 2    
   234  117  119 am   BACKBONE|DICT|INTERRES
   235  119  120 1    
   236  119  240 1    
   237  120  121 1    
   238  120  124 1    
   239  120  241 1    
   240  121  122 am   BACKBONE|DICT|INTERRES
   241  121  123 2    
   242  122  242 1    
   243  122  243 1    
   244  124  125 1    
   245  124  244 1    
   246  124  245 1    
   247  125  126 1    
   248  126  246 1    
   249  126  247 1    
@<TRIPOS>SUBSTRUCTURE
     1 UNK         1 GROUP             0       ****    0 ROOT    
