@<TRIPOS>MOLECULE
3R540
247   249    1
SMALL
USER_CHARGES


@<TRIPOS>ATOM
      1 CA          6.8294  -14.2947  -47.7932 C.3       0 UNK        -0.1800 
      2 C           6.8544  -15.7324  -48.2924 C.2       0 UNK         0.5000 
      3 O           7.8977  -16.3836  -48.2380 O.2       0 UNK        -0.5000 
      4 N           5.7087  -16.2291  -48.7758 N.am      1 UNK        -0.5000 
      5 CA          5.5294  -17.5994  -49.2779 C.3       1 UNK         0.1400 
      6 C6          4.2255  -17.7418  -50.0976 C.3       23 UNK        -0.0398 
      7 S7          4.1927  -16.7024  -51.6012 S.3       23 UNK        -0.2404 
      8 C8          2.7258  -15.6415  -51.3206 C.3       23 UNK        -0.0205 
      9 C9          1.3760  -16.3548  -51.1799 C.ar      23 UNK        -0.0193 
     10 C10         0.2581  -15.5949  -50.8171 C.ar      23 UNK        -0.1150 
     11 C11        -0.9897  -16.1962  -50.6200 C.ar      23 UNK        -0.0193 
     12 C12        -1.1152  -17.5783  -50.7735 C.ar      23 UNK        -0.1150 
     13 C13        -0.0142  -18.3502  -51.1488 C.ar      23 UNK        -0.0193 
     14 C14         1.2157  -17.7326  -51.3772 C.ar      23 UNK        -0.1150 
     15 C15        -0.1359  -19.8595  -51.2693 C.3       23 UNK        -0.0205 
     16 S16         0.6694  -20.7084  -49.8771 S.3       23 UNK        -0.2404 
     17 C17        -0.2186  -19.9892  -48.4533 C.3       23 UNK        -0.0398 
     18 CA         -0.3072  -20.9447  -47.2406 C.3       11 UNK         0.1400 
     19 N          -0.3768  -20.1989  -45.9823 N.am      11 UNK        -0.5000 
     20 C           0.0213  -20.6634  -44.7908 C.2       10 UNK         0.5000 
     21 O           0.4615  -21.7999  -44.6148 O.2       10 UNK        -0.5000 
     22 CA         -0.1522  -19.7105  -43.5946 C.3       10 UNK         0.1400 
     23 CB          0.9401  -18.6339  -43.5790 C.3       10 UNK        -0.1800 
     24 N          -1.4608  -19.0593  -43.5958 N.am      10 UNK        -0.5000 
     25 C          -2.6207  -19.6941  -43.3826 C.2       9 UNK         0.5000 
     26 O          -2.7041  -20.8945  -43.1285 O.2       9 UNK        -0.5000 
     27 CA         -3.9011  -18.8517  -43.5020 C.3       9 UNK         0.1400 
     28 CB         -4.1663  -18.0833  -42.1993 C.3       9 UNK        -0.1800 
     29 N          -3.8316  -17.9157  -44.6248 N.am      9 UNK        -0.5000 
     30 C          -3.9292  -18.2815  -45.9110 C.2       8 UNK         0.5000 
     31 O          -4.1208  -19.4382  -46.2786 O.2       8 UNK        -0.5000 
     32 CA         -3.7526  -17.1792  -46.9703 C.3       8 UNK         0.1400 
     33 CB         -5.0984  -16.5189  -47.2997 C.3       8 UNK        -0.1800 
     34 N          -2.7896  -16.1515  -46.5717 N.am      8 UNK        -0.5000 
     35 C          -1.4759  -16.3744  -46.4366 C.2       7 UNK         0.5000 
     36 O          -0.9453  -17.4675  -46.6259 O.2       7 UNK        -0.5000 
     37 CA         -0.6203  -15.1925  -45.9538 C.3       7 UNK         0.1400 
     38 CB         -0.2745  -14.2547  -47.1191 C.3       7 UNK        -0.1800 
     39 N          -1.2304  -14.4233  -44.8633 N.am      7 UNK        -0.5000 
     40 C          -1.5361  -14.9337  -43.6640 C.2       6 UNK         0.5000 
     41 O          -1.4366  -16.1319  -43.3865 O.2       6 UNK        -0.5000 
     42 CA         -1.9509  -13.9505  -42.5629 C.3       6 UNK         0.1400 
     43 CB         -3.4032  -14.1622  -42.1097 C.3       6 UNK        -0.1800 
     44 N          -1.0304  -14.2234  -41.4722 N.am      6 UNK        -0.5000 
     45 C          -0.4390  -13.3200  -40.6839 C.2       5 UNK         0.5000 
     46 O          -0.8251  -12.1592  -40.5450 O.2       5 UNK        -0.5000 
     47 CA          0.8765  -13.7904  -40.0266 C.3       5 UNK         0.1400 
     48 CB          0.5994  -14.6362  -38.7746 C.3       5 UNK        -0.1800 
     49 N           1.6757  -14.5708  -40.9800 N.am      5 UNK        -0.5000 
     50 C           2.1920  -14.0729  -42.1116 C.2       4 UNK         0.5000 
     51 O           2.3145  -12.8657  -42.3272 O.2       4 UNK        -0.5000 
     52 CA          2.5630  -15.0961  -43.2029 C.3       4 UNK         0.1400 
     53 CB          2.8397  -14.4347  -44.5655 C.3       4 UNK        -0.1800 
     54 N           3.7007  -15.9453  -42.8698 N.am      4 UNK        -0.5000 
     55 C           3.7469  -16.9282  -41.9654 C.2       3 UNK         0.5000 
     56 O           2.8379  -17.1704  -41.1691 O.2       3 UNK        -0.5000 
     57 CA          4.9978  -17.8333  -42.0350 C.3       3 UNK         0.1400 
     58 CB          5.0777  -18.8187  -40.8557 C.3       3 UNK        -0.1800 
     59 N           5.0358  -18.5957  -43.2898 N.am      3 UNK        -0.5000 
     60 C           5.3031  -18.0913  -44.5026 C.2       2 UNK         0.5000 
     61 O           5.6407  -16.9165  -44.6861 O.2       2 UNK        -0.5000 
     62 CA          5.1409  -19.0336  -45.7095 C.3       2 UNK         0.1400 
     63 CB          3.7920  -19.7849  -45.7038 C.3       2 UNK        -0.1800 
     64 N           5.2414  -18.2286  -46.9203 N.am      2 UNK        -0.5000 
     65 C           5.5419  -18.6568  -48.1497 C.2       1 UNK         0.5000 
     66 O           5.8029  -19.8301  -48.4186 O.2       1 UNK        -0.5000 
     67 C          -1.4359  -21.9927  -47.3937 C.2       11 UNK         0.5000 
     68 O          -1.4352  -22.7386  -48.3755 O.2       11 UNK        -0.5000 
     69 N          -2.3671  -22.0776  -46.4307 N.am      12 UNK        -0.5000 
     70 CA         -3.4003  -23.1163  -46.3702 C.3       12 UNK         0.1400 
     71 CB         -4.3994  -22.8144  -45.2450 C.3       12 UNK        -0.1800 
     72 C          -2.8027  -24.5238  -46.1927 C.2       12 UNK         0.5000 
     73 O          -3.2927  -25.4749  -46.7999 O.2       12 UNK        -0.5000 
     74 N          -1.7292  -24.6208  -45.3978 N.am      13 UNK        -0.5000 
     75 CA         -0.9737  -25.8553  -45.1927 C.3       13 UNK         0.1400 
     76 CB         -0.1668  -25.7325  -43.8911 C.3       13 UNK        -0.1800 
     77 C          -0.0397  -26.1799  -46.3739 C.2       13 UNK         0.5000 
     78 O           0.2196  -27.3554  -46.6337 O.2       13 UNK        -0.5000 
     79 N           0.4672  -25.1381  -47.0473 N.am      14 UNK        -0.5000 
     80 CA          1.4684  -25.2538  -48.1053 C.3       14 UNK         0.1400 
     81 CB          2.2865  -23.9558  -48.1793 C.3       14 UNK        -0.1800 
     82 C           0.8605  -25.5887  -49.4771 C.2       14 UNK         0.5000 
     83 O           1.3812  -26.4715  -50.1607 O.2       14 UNK        -0.5000 
     84 N          -0.2017  -24.8726  -49.8714 N.am      15 UNK        -0.5000 
     85 CA         -0.7634  -24.9337  -51.2242 C.3       15 UNK         0.1400 
     86 CB          0.0173  -23.9764  -52.1477 C.3       15 UNK        -0.1800 
     87 C          -2.2755  -24.6535  -51.2529 C.2       15 UNK         0.5000 
     88 O          -2.7905  -24.2286  -52.2896 O.2       15 UNK        -0.5000 
     89 N          -2.9682  -24.8635  -50.1227 N.am      16 UNK        -0.5000 
     90 CA         -4.4114  -24.6520  -49.9396 C.3       16 UNK         0.1400 
     91 CB         -5.2127  -25.7097  -50.7278 C.3       16 UNK        -0.1800 
     92 C          -4.8548  -23.2075  -50.2581 C.2       16 UNK         0.5000 
     93 O          -5.9098  -23.0087  -50.8595 O.2       16 UNK        -0.5000 
     94 N          -4.0109  -22.2281  -49.8949 N.am      17 UNK        -0.5000 
     95 CA         -4.1528  -20.7974  -50.1975 C.3       17 UNK         0.1400 
     96 CB         -5.3722  -20.1902  -49.4741 C.3       17 UNK        -0.1800 
     97 C          -4.1522  -20.5201  -51.7165 C.2       17 UNK         0.5000 
     98 O          -4.9312  -19.6969  -52.1994 O.2       17 UNK        -0.5000 
     99 N          -3.2751  -21.2413  -52.4317 N.am      18 UNK        -0.5000 
    100 CA        -3.1059  -21.2624  -53.8868 C.3       18 UNK         0.1400 
    101 CB        -2.6868  -19.8755  -54.4215 C.3       18 UNK        -0.1800 
    102 C         -4.3561  -21.8380  -54.5769 C.2       18 UNK         0.5000 
    103 O         -4.8946  -21.2245  -55.4972 O.2       18 UNK        -0.5000 
    104 N         -4.8240  -22.9903  -54.0722 N.am      19 UNK        -0.5000 
    105 CA        -6.0823  -23.6577  -54.4332 C.3       19 UNK         0.1400 
    106 CB        -5.9885  -24.2662  -55.8474 C.3       19 UNK        -0.1800 
    107 C         -7.3024  -22.7267  -54.2495 C.2       19 UNK         0.5000 
    108 O         -8.1367  -22.5970  -55.1466 O.2       19 UNK        -0.5000 
    109 N         -7.3357  -22.0608  -53.0878 N.am      20 UNK        -0.5000 
    110 CA        -8.2909  -21.0528  -52.6224 C.3       20 UNK         0.1400 
    111 CB        -9.7178  -21.6335  -52.5539 C.3       20 UNK        -0.1800 
    112 C         -8.2552  -19.7037  -53.3727 C.2       20 UNK         0.5000 
    113 O         -9.0167  -18.8084  -53.0014 O.2       20 UNK        -0.5000 
    114 N         -7.3804  -19.5369  -54.3773 N.am      21 UNK        -0.5000 
    115 CA        -7.2878  -18.3226  -55.1961 C.3       21 UNK         0.1400 
    116 CB        -6.3641  -18.5685  -56.3973 C.3       21 UNK        -0.1800 
    117 C         -6.8289  -17.0768  -54.4154 C.2       21 UNK         0.5000 
    118 O         -7.2214  -15.9662  -54.7763 O.2       21 UNK        -0.5000 
    119 N         -6.0335  -17.2789  -53.3575 N.am      22 UNK        -0.5000 
    120 CA        -5.6172  -16.2321  -52.4131 C.3       22 UNK         0.1400 
    121 C         -6.6314  -15.9992  -51.2505 C.2       22 UNK         0.5000 
    122 N         -7.7553  -16.7052  -51.1828 N.am      22 UNK        -0.7600 
    123 O         -6.4091  -15.1460  -50.3972 O.2       22 UNK        -0.5000 
    124 C124       -4.1712  -16.4859  -51.9064 C.3       23 UNK        -0.0398 
    125 S125       -3.2338  -14.9380  -51.6518 S.3       23 UNK        -0.2404 
    126 C126       -2.1940  -15.3569  -50.2196 C.3       23 UNK        -0.0205 
    127 H127        5.8511  -13.8338  -47.9316 H         1 UNK         0.0600 
    128 H128        7.5659  -13.6972  -48.3305 H         1 UNK         0.0600 
    129 H129        7.0719  -14.2640  -46.7308 H         1 UNK         0.0600 
    130 H130        4.8919  -15.6375  -48.8173 H         1 UNK         0.3000 
    131 H131        6.3698  -17.8289  -49.9367 H         1 UNK         0.0600 
    132 H132        4.0956  -18.7754  -50.4250 H         1 UNK         0.0800 
    133 H133        3.3611  -17.5154  -49.4708 H         1 UNK         0.0800 
    134 H134        2.9039  -15.0420  -50.4268 H         1 UNK         0.0800 
    135 H135        2.6554  -14.9387  -52.1517 H         1 UNK         0.0800 
    136 H136        0.3623  -14.5279  -50.6772 H         1 UNK         0.1150 
    137 H137       -2.0678  -18.0539  -50.5951 H         1 UNK         0.1150 
    138 H138        2.0478  -18.3520  -51.6738 H         1 UNK         0.1150 
    139 H139       -1.1803  -20.1563  -51.3036 H         1 UNK         0.0800 
    140 H140        0.3138  -20.1929  -52.2055 H         1 UNK         0.0800 
    141 H141       -1.2086  -19.6382  -48.7451 H         1 UNK         0.0800 
    142 H142        0.3452  -19.0952  -48.1837 H         1 UNK         0.0800 
    143 H143        0.6254  -21.5096  -47.2054 H         1 UNK         0.0600 
    144 H144       -0.7079  -19.2389  -46.0527 H         1 UNK         0.3000 
    145 H145       -0.0649  -20.2979  -42.6781 H         1 UNK         0.0600 
    146 H146        0.7991  -17.9569  -42.7370 H         1 UNK         0.0600 
    147 H147        1.9278  -19.0818  -43.4722 H         1 UNK         0.0600 
    148 H148        0.9383  -18.0355  -44.4908 H         1 UNK         0.0600 
    149 H149       -1.4738  -18.0544  -43.7438 H         1 UNK         0.3000 
    150 H150       -4.7392  -19.5313  -43.6715 H         1 UNK         0.0600 
    151 H151       -5.0504  -17.4510  -42.2822 H         1 UNK         0.0600 
    152 H152       -4.3356  -18.7735  -41.3720 H         1 UNK         0.0600 
    153 H153       -3.3212  -17.4521  -41.9255 H         1 UNK         0.0600 
    154 H154       -3.6182  -16.9541  -44.4054 H         1 UNK         0.3000 
    155 H155       -3.3800  -17.6590  -47.8781 H         1 UNK         0.0600 
    156 H156       -5.5251  -16.0161  -46.4311 H         1 UNK         0.0600 
    157 H157       -5.8236  -17.2589  -47.6413 H         1 UNK         0.0600 
    158 H158       -4.9914  -15.7816  -48.0953 H         1 UNK         0.0600 
    159 H159       -3.1513  -15.2299  -46.3741 H         1 UNK         0.3000 
    160 H160        0.3129  -15.6139  -45.5756 H         1 UNK         0.0600 
    161 H161       -1.1606  -13.7540  -47.5101 H         1 UNK         0.0600 
    162 H162        0.1851  -14.8063  -47.9402 H         1 UNK         0.0600 
    163 H163        0.4345  -13.4863  -46.8114 H         1 UNK         0.0600 
    164 H164       -1.3338  -13.4303  -45.0167 H         1 UNK         0.3000 
    165 H165       -1.8232  -12.9265  -42.9207 H         1 UNK         0.0600 
    166 H166       -3.6805  -13.4386  -41.3431 H         1 UNK         0.0600 
    167 H167       -4.0958  -14.0378  -42.9429 H         1 UNK         0.0600 
    168 H168       -3.5579  -15.1573  -41.6945 H         1 UNK         0.0600 
    169 H169       -0.6368  -15.1547  -41.5114 H         1 UNK         0.3000 
    170 H170        1.4481  -12.9080  -39.7319 H         1 UNK         0.0600 
    171 H171        0.0135  -14.0736  -38.0466 H         1 UNK         0.0600 
    172 H172        0.0441  -15.5442  -39.0133 H         1 UNK         0.0600 
    173 H173        1.5285  -14.9311  -38.2864 H         1 UNK         0.0600 
    174 H174        1.7175  -15.5768  -40.8456 H         1 UNK         0.3000 
    175 H175        1.6917  -15.7406  -43.3316 H         1 UNK         0.0600 
    176 H176        3.7406  -13.8206  -44.5385 H         1 UNK         0.0600 
    177 H177        2.9685  -15.1827  -45.3483 H         1 UNK         0.0600 
    178 H178        2.0124  -13.7907  -44.8659 H         1 UNK         0.0600 
    179 H179        4.4932  -15.8823  -43.5016 H         1 UNK         0.3000 
    180 H180        5.8760  -17.1857  -41.9893 H         1 UNK         0.0600 
    181 H181        4.2388  -19.5159  -40.8539 H         1 UNK         0.0600 
    182 H182        5.0666  -18.2885  -39.9025 H         1 UNK         0.0600 
    183 H183        5.9982  -19.4015  -40.8908 H         1 UNK         0.0600 
    184 H184        4.7568  -19.5633  -43.2218 H         1 UNK         0.3000 
    185 H185        5.9630  -19.7514  -45.6831 H         1 UNK         0.0600 
    186 H186        3.6795  -20.4119  -44.8192 H         1 UNK         0.0600 
    187 H187        2.9506  -19.0921  -45.7334 H         1 UNK         0.0600 
    188 H188        3.7023  -20.4439  -46.5676 H         1 UNK         0.0600 
    189 H189        5.1388  -17.2345  -46.7599 H         1 UNK         0.3000 
    190 H190       -2.3434  -21.4151  -45.6682 H         1 UNK         0.3000 
    191 H191       -3.9495  -23.0968  -47.3103 H         1 UNK         0.0600 
    192 H192       -4.8274  -21.8178  -45.3463 H         1 UNK         0.0600 
    193 H193       -5.2271  -23.5244  -45.2630 H         1 UNK         0.0600 
    194 H194       -3.9344  -22.8856  -44.2619 H         1 UNK         0.0600 
    195 H195       -1.3857  -23.7901  -44.9356 H         1 UNK         0.3000 
    196 H196       -1.6744  -26.6858  -45.0817 H         1 UNK         0.0600 
    197 H197        0.4019  -26.6427  -43.6960 H         1 UNK         0.0600 
    198 H198       -0.8222  -25.5699  -43.0353 H         1 UNK         0.0600 
    199 H199        0.5419  -24.9041  -43.9329 H         1 UNK         0.0600 
    200 H200        0.1884  -24.2083  -46.7766 H         1 UNK         0.3000 
    201 H201        2.1591  -26.0584  -47.8425 H         1 UNK         0.0600 
    202 H202        2.7291  -23.7072  -47.2145 H         1 UNK         0.0600 
    203 H203        1.6752  -23.1135  -48.4977 H         1 UNK         0.0600 
    204 H204        3.1022  -24.0519  -48.8968 H         1 UNK         0.0600 
    205 H205       -0.5732  -24.1445  -49.2649 H         1 UNK         0.3000 
    206 H206       -0.6536  -25.9475  -51.6140 H         1 UNK         0.0600 
    207 H207        1.0828  -24.2058  -52.1500 H         1 UNK         0.0600 
    208 H208       -0.3271  -24.0506  -53.1799 H         1 UNK         0.0600 
    209 H209       -0.1000  -22.9390  -51.8348 H         1 UNK         0.0600 
    210 H210       -2.4694  -25.2049  -49.3125 H         1 UNK         0.3000 
    211 H211       -4.6299  -24.8067  -48.8846 H         1 UNK         0.0600 
    212 H212       -5.0818  -25.6012  -51.8045 H         1 UNK         0.0600 
    213 H213       -6.2801  -25.6309  -50.5182 H         1 UNK         0.0600 
    214 H214       -4.9046  -26.7187  -50.4541 H         1 UNK         0.0600 
    215 H215       -3.1492  -22.4973  -49.4306 H         1 UNK         0.3000 
    216 H216       -3.2636  -20.3112  -49.7970 H         1 UNK         0.0600 
    217 H217       -5.3813  -19.1036  -49.5678 H         1 UNK         0.0600 
    218 H218       -5.3556  -20.4258  -48.4107 H         1 UNK         0.0600 
    219 H219       -6.3134  -20.5594  -49.8799 H         1 UNK         0.0600 
    220 H220       -2.7575  -21.9580  -51.9421 H         1 UNK         0.3000 
    221 H221       -2.2902  -21.9566  -54.0944 H         1 UNK         0.0600 
    222 H222       -3.4800  -19.1358  -54.3122 H         1 UNK         0.0600 
    223 H223       -1.8059  -19.5003  -53.9010 H         1 UNK         0.0600 
    224 H224       -2.4397  -19.9289  -55.4822 H         1 UNK         0.0600 
    225 H225       -4.2860  -23.4280  -53.3295 H         1 UNK         0.3000 
    226 H226       -6.2129  -24.4784  -53.7269 H         1 UNK         0.0600 
    227 H227       -5.1312  -24.9339  -55.9318 H         1 UNK         0.0600 
    228 H228       -6.8793  -24.8507  -56.0800 H         1 UNK         0.0600 
    229 H229       -5.8920  -23.4979  -56.6150 H         1 UNK         0.0600 
    230 H230       -6.6185  -22.2921  -52.4029 H         1 UNK         0.3000 
    231 H231       -7.9867  -20.8239  -51.6007 H         1 UNK         0.0600 
    232 H232      -10.1253  -21.8300  -53.5457 H         1 UNK         0.0600 
    233 H233      -10.3982  -20.9419  -52.0557 H         1 UNK         0.0600 
    234 H234       -9.7371  -22.5664  -51.9904 H         1 UNK         0.0600 
    235 H235       -6.7499  -20.2933  -54.6137 H         1 UNK         0.3000 
    236 H236       -8.2881  -18.1154  -55.5819 H         1 UNK         0.0600 
    237 H237       -6.6665  -19.4534  -56.9577 H         1 UNK         0.0600 
    238 H238       -6.3884  -17.7226  -57.0853 H         1 UNK         0.0600 
    239 H239       -5.3281  -18.7028  -56.0855 H         1 UNK         0.0600 
    240 H240       -5.7663  -18.2288  -53.1090 H         1 UNK         0.3000 
    241 H241       -5.6045  -15.2914  -52.9665 H         1 UNK         0.0600 
    242 H242       -8.3985  -16.5273  -50.4284 H         1 UNK         0.3800 
    243 H243       -7.9981  -17.3848  -51.8935 H         1 UNK         0.3800 
    244 H244       -4.1826  -17.0853  -50.9950 H         1 UNK         0.0800 
    245 H245       -3.6077  -17.0692  -52.6365 H         1 UNK         0.0800 
    246 H246       -2.7870  -15.8746  -49.4667 H         1 UNK         0.0800 
    247 H247       -1.8619  -14.4277  -49.7558 H         1 UNK         0.0800 
@<TRIPOS>BOND
     1    1    2 1    
     2    1  127 1    
     3    1  128 1    
     4    1  129 1    
     5    2    3 2    
     6    2    4 am   BACKBONE|DICT|INTERRES
     7    4    5 1    
     8    4  130 1    
     9    5    6 1    
    10    5   65 1    
    11    5  131 1    
    12    6    7 1    
    13    6  132 1    
    14    6  133 1    
    15    7    8 1    
    16    8    9 1    
    17    8  134 1    
    18    8  135 1    
    19    9   10 ar   
    20    9   14 ar   
    21   10   11 ar   
    22   10  136 1    
    23   11   12 ar   
    24   11  126 1    
    25   12   13 ar   
    26   12  137 1    
    27   13   14 ar   
    28   13   15 1    
    29   14  138 1    
    30   15   16 1    
    31   15  139 1    
    32   15  140 1    
    33   16   17 1    
    34   17   18 1    
    35   17  141 1    
    36   17  142 1    
    37   18   19 1    
    38   18   67 1    
    39   18  143 1    
    40   19   20 am   BACKBONE|DICT|INTERRES
    41   19  144 1    
    42   20   21 2    
    43   20   22 1    
    44   22   23 1    
    45   22   24 1    
    46   22  145 1    
    47   23  146 1    
    48   23  147 1    
    49   23  148 1    
    50   24   25 am   BACKBONE|DICT|INTERRES
    51   24  149 1    
    52   25   26 2    
    53   25   27 1    
    54   27   28 1    
    55   27   29 1    
    56   27  150 1    
    57   28  151 1    
    58   28  152 1    
    59   28  153 1    
    60   29   30 am   BACKBONE|DICT|INTERRES
    61   29  154 1    
    62   30   31 2    
    63   30   32 1    
    64   32   33 1    
    65   32   34 1    
    66   32  155 1    
    67   33  156 1    
    68   33  157 1    
    69   33  158 1    
    70   34   35 am   BACKBONE|DICT|INTERRES
    71   34  159 1    
    72   35   36 2    
    73   35   37 1    
    74   37   38 1    
    75   37   39 1    
    76   37  160 1    
    77   38  161 1    
    78   38  162 1    
    79   38  163 1    
    80   39   40 am   BACKBONE|DICT|INTERRES
    81   39  164 1    
    82   40   41 2    
    83   40   42 1    
    84   42   43 1    
    85   42   44 1    
    86   42  165 1    
    87   43  166 1    
    88   43  167 1    
    89   43  168 1    
    90   44   45 am   BACKBONE|DICT|INTERRES
    91   44  169 1    
    92   45   46 2    
    93   45   47 1    
    94   47   48 1    
    95   47   49 1    
    96   47  170 1    
    97   48  171 1    
    98   48  172 1    
    99   48  173 1    
   100   49   50 am   BACKBONE|DICT|INTERRES
   101   49  174 1    
   102   50   51 2    
   103   50   52 1    
   104   52   53 1    
   105   52   54 1    
   106   52  175 1    
   107   53  176 1    
   108   53  177 1    
   109   53  178 1    
   110   54   55 am   BACKBONE|DICT|INTERRES
   111   54  179 1    
   112   55   56 2    
   113   55   57 1    
   114   57   58 1    
   115   57   59 1    
   116   57  180 1    
   117   58  181 1    
   118   58  182 1    
   119   58  183 1    
   120   59   60 am   BACKBONE|DICT|INTERRES
   121   59  184 1    
   122   60   61 2    
   123   60   62 1    
   124   62   63 1    
   125   62   64 1    
   126   62  185 1    
   127   63  186 1    
   128   63  187 1    
   129   63  188 1    
   130   64   65 am   BACKBONE|DICT|INTERRES
   131   64  189 1    
   132   65   66 2    
   133   67   68 2    
   134   67   69 am   BACKBONE|DICT|INTERRES
   135   69   70 1    
   136   69  190 1    
   137   70   71 1    
   138   70   72 1    
   139   70  191 1    
   140   71  192 1    
   141   71  193 1    
   142   71  194 1    
   143   72   73 2    
   144   72   74 am   BACKBONE|DICT|INTERRES
   145   74   75 1    
   146   74  195 1    
   147   75   76 1    
   148   75   77 1    
   149   75  196 1    
   150   76  197 1    
   151   76  198 1    
   152   76  199 1    
   153   77   78 2    
   154   77   79 am   BACKBONE|DICT|INTERRES
   155   79   80 1    
   156   79  200 1    
   157   80   81 1    
   158   80   82 1    
   159   80  201 1    
   160   81  202 1    
   161   81  203 1    
   162   81  204 1    
   163   82   83 2    
   164   82   84 am   BACKBONE|DICT|INTERRES
   165   84   85 1    
   166   84  205 1    
   167   85   86 1    
   168   85   87 1    
   169   85  206 1    
   170   86  207 1    
   171   86  208 1    
   172   86  209 1    
   173   87   88 2    
   174   87   89 am   BACKBONE|DICT|INTERRES
   175   89   90 1    
   176   89  210 1    
   177   90   91 1    
   178   90   92 1    
   179   90  211 1    
   180   91  212 1    
   181   91  213 1    
   182   91  214 1    
   183   92   93 2    
   184   92   94 am   BACKBONE|DICT|INTERRES
   185   94   95 1    
   186   94  215 1    
   187   95   96 1    
   188   95   97 1    
   189   95  216 1    
   190   96  217 1    
   191   96  218 1    
   192   96  219 1    
   193   97   98 2    
   194   97   99 am   BACKBONE|DICT|INTERRES
   195   99  100 1    
   196   99  220 1    
   197  100  101 1    
   198  100  102 1    
   199  100  221 1    
   200  101  222 1    
   201  101  223 1    
   202  101  224 1    
   203  102  103 2    
   204  102  104 am   BACKBONE|DICT|INTERRES
   205  104  105 1    
   206  104  225 1    
   207  105  106 1    
   208  105  107 1    
   209  105  226 1    
   210  106  227 1    
   211  106  228 1    
   212  106  229 1    
   213  107  108 2    
   214  107  109 am   BACKBONE|DICT|INTERRES
   215  109  110 1    
   216  109  230 1    
   217  110  111 1    
   218  110  112 1    
   219  110  231 1    
   220  111  232 1    
   221  111  233 1    
   222  111  234 1    
   223  112  113 2    
   224  112  114 am   BACKBONE|DICT|INTERRES
   225  114  115 1    
   226  114  235 1    
   227  115  116 1    
   228  115  117 1    
   229  115  236 1    
   230  116  237 1    
   231  116  238 1    
   232  116  239 1    
   233  117  118 2    
   234  117  119 am   BACKBONE|DICT|INTERRES
   235  119  120 1    
   236  119  240 1    
   237  120  121 1    
   238  120  124 1    
   239  120  241 1    
   240  121  122 am   BACKBONE|DICT|INTERRES
   241  121  123 2    
   242  122  242 1    
   243  122  243 1    
   244  124  125 1    
   245  124  244 1    
   246  124  245 1    
   247  125  126 1    
   248  126  246 1    
   249  126  247 1    
@<TRIPOS>SUBSTRUCTURE
     1 UNK         1 GROUP             0       ****    0 ROOT    
