@<TRIPOS>MOLECULE
3R540
247   249    1
SMALL
USER_CHARGES


@<TRIPOS>ATOM
      1 CA         -0.3682  -13.3139  -49.2947 C.3       0 UNK        -0.1800 
      2 C           0.7602  -13.0416  -48.3092 C.2       0 UNK         0.5000 
      3 O           0.5718  -13.2044  -47.1059 O.2       0 UNK        -0.5000 
      4 N           1.9261  -12.6231  -48.8213 N.am      1 UNK        -0.5000 
      5 CA          3.1518  -12.3036  -48.0688 C.3       1 UNK         0.1400 
      6 C6          3.7846  -13.5175  -47.3333 C.3       23 UNK        -0.0398 
      7 S7          4.0839  -14.9408  -48.4363 S.3       23 UNK        -0.2404 
      8 C8          2.9517  -16.1636  -47.7101 C.3       23 UNK        -0.0205 
      9 C9          2.5208  -17.2043  -48.7273 C.ar      23 UNK        -0.0193 
     10 C10         1.6080  -16.8595  -49.7264 C.ar      23 UNK        -0.1150 
     11 C11         1.1831  -17.8090  -50.6573 C.ar      23 UNK        -0.0193 
     12 C12         1.6683  -19.1174  -50.5782 C.ar      23 UNK        -0.1150 
     13 C13         2.5821  -19.4748  -49.5821 C.ar      23 UNK        -0.0193 
     14 C14         3.0089  -18.5122  -48.6617 C.ar      23 UNK        -0.1150 
     15 C15         3.1216  -20.8956  -49.5087 C.3       23 UNK        -0.0205 
     16 S16         2.5035  -21.7898  -48.0501 S.3       23 UNK        -0.2404 
     17 C17         0.7259  -21.9161  -48.4304 C.3       23 UNK        -0.0398 
     18 CA          0.0249  -22.9252  -47.4920 C.3       11 UNK         0.1400 
     19 N          -0.0757  -22.4402  -46.1107 N.am      11 UNK        -0.5000 
     20 C          -0.4645  -23.1916  -45.0707 C.2       10 UNK         0.5000 
     21 O          -0.7338  -24.3882  -45.1607 O.2       10 UNK        -0.5000 
     22 CA         -0.6446  -22.4830  -43.7162 C.3       10 UNK         0.1400 
     23 CB          0.7043  -22.2848  -43.0097 C.3       10 UNK        -0.1800 
     24 N          -1.3419  -21.2028  -43.8466 N.am      10 UNK        -0.5000 
     25 C          -2.6091  -21.0768  -44.2671 C.2       9 UNK         0.5000 
     26 O          -3.3390  -22.0352  -44.5192 O.2       9 UNK        -0.5000 
     27 CA         -3.1372  -19.6478  -44.4948 C.3       9 UNK         0.1400 
     28 CB         -3.6319  -19.0290  -43.1796 C.3       9 UNK        -0.1800 
     29 N          -2.1439  -18.7682  -45.1114 N.am      9 UNK        -0.5000 
     30 C          -1.6135  -18.9503  -46.3298 C.2       8 UNK         0.5000 
     31 O          -1.9486  -19.8554  -47.0927 O.2       8 UNK        -0.5000 
     32 CA         -0.4724  -17.9996  -46.7334 C.3       8 UNK         0.1400 
     33 CB         -1.0276  -16.6588  -47.2357 C.3       8 UNK        -0.1800 
     34 N           0.4664  -17.7777  -45.6297 N.am      8 UNK        -0.5000 
     35 C           1.2390  -18.7420  -45.1069 C.2       7 UNK         0.5000 
     36 O           1.2818  -19.8892  -45.5467 O.2       7 UNK        -0.5000 
     37 CA          2.0390  -18.3962  -43.8390 C.3       7 UNK         0.1400 
     38 CB          3.4033  -17.7783  -44.1759 C.3       7 UNK        -0.1800 
     39 N           1.2920  -17.5073  -42.9500 N.am      7 UNK        -0.5000 
     40 C           0.2553  -17.9109  -42.2000 C.2       6 UNK         0.5000 
     41 O          -0.1323  -19.0776  -42.1522 O.2       6 UNK        -0.5000 
     42 CA         -0.5037  -16.8323  -41.4021 C.3       6 UNK         0.1400 
     43 CB          0.1224  -16.6511  -40.0117 C.3       6 UNK        -0.1800 
     44 N          -0.5449  -15.5386  -42.0836 N.am      6 UNK        -0.5000 
     45 C          -1.1303  -15.3156  -43.2688 C.2       5 UNK         0.5000 
     46 O          -1.7783  -16.1689  -43.8737 O.2       5 UNK        -0.5000 
     47 CA         -0.9143  -13.9302  -43.9088 C.3       5 UNK         0.1400 
     48 CB         -2.1324  -13.0268  -43.6711 C.3       5 UNK        -0.1800 
     49 N           0.2900  -13.2423  -43.4344 N.am      5 UNK        -0.5000 
     50 C           1.5487  -13.6688  -43.6023 C.2       4 UNK         0.5000 
     51 O           1.8304  -14.7283  -44.1647 O.2       4 UNK        -0.5000 
     52 CA          2.6612  -12.7855  -42.9980 C.3       4 UNK         0.1400 
     53 CB          4.0744  -13.2136  -43.4308 C.3       4 UNK        -0.1800 
     54 N           2.4726  -11.3619  -43.2930 N.am      4 UNK        -0.5000 
     55 C           1.6870  -10.5308  -42.5923 C.2       3 UNK         0.5000 
     56 O           0.9970  -10.9015  -41.6419 O.2       3 UNK        -0.5000 
     57 CA          1.6401   -9.0503  -43.0173 C.3       3 UNK         0.1400 
     58 CB          2.5836   -8.2125  -42.1408 C.3       3 UNK        -0.1800 
     59 N           1.9828   -8.8335  -44.4218 N.am      3 UNK        -0.5000 
     60 C           1.2029   -9.1593  -45.4604 C.2       2 UNK         0.5000 
     61 O           0.0844   -9.6616  -45.3434 O.2       2 UNK        -0.5000 
     62 CA          1.7635   -8.8878  -46.8723 C.3       2 UNK         0.1400 
     63 CB          2.9485   -7.8956  -46.9020 C.3       2 UNK        -0.1800 
     64 N           2.1212  -10.1307  -47.5605 N.am      2 UNK        -0.5000 
     65 C           2.9756  -11.0776  -47.1403 C.2       1 UNK         0.5000 
     66 O           3.6100  -11.0029  -46.0853 O.2       1 UNK        -0.5000 
     67 C          -1.3416  -23.3538  -48.0629 C.2       11 UNK         0.5000 
     68 O          -1.4004  -24.3535  -48.7785 O.2       11 UNK        -0.5000 
     69 N          -2.4147  -22.6255  -47.7281 N.am      12 UNK        -0.5000 
     70 CA         -3.7908  -22.9737  -48.0844 C.3       12 UNK         0.1400 
     71 CB         -4.7232  -21.7957  -47.7676 C.3       12 UNK        -0.1800 
     72 C          -4.2651  -24.2656  -47.3962 C.2       12 UNK         0.5000 
     73 O          -4.8514  -25.1218  -48.0578 O.2       12 UNK        -0.5000 
     74 N          -3.9656  -24.4055  -46.0969 N.am      13 UNK        -0.5000 
     75 CA         -4.2594  -25.5970  -45.2962 C.3       13 UNK         0.1400 
     76 CB         -3.9840  -25.2986  -43.8147 C.3       13 UNK        -0.1800 
     77 C          -3.4766  -26.8416  -45.7586 C.2       13 UNK         0.5000 
     78 O          -4.0344  -27.9392  -45.7783 O.2       13 UNK        -0.5000 
     79 N          -2.2115  -26.6431  -46.1523 N.am      14 UNK        -0.5000 
     80 CA         -1.3294  -27.6693  -46.7139 C.3       14 UNK         0.1400 
     81 CB          0.1227  -27.1732  -46.6220 C.3       14 UNK        -0.1800 
     82 C          -1.6664  -28.0510  -48.1704 C.2       14 UNK         0.5000 
     83 O          -1.1185  -29.0339  -48.6707 O.2       14 UNK        -0.5000 
     84 N          -2.5305  -27.2624  -48.8267 N.am      15 UNK        -0.5000 
     85 CA         -2.9352  -27.3490  -50.2336 C.3       15 UNK         0.1400 
     86 CB         -3.6575  -28.6792  -50.5322 C.3       15 UNK        -0.1800 
     87 C          -1.7864  -27.0457  -51.2216 C.2       15 UNK         0.5000 
     88 O          -1.8227  -27.4970  -52.3678 O.2       15 UNK        -0.5000 
     89 N          -0.7979  -26.2614  -50.7699 N.am      16 UNK        -0.5000 
     90 CA          0.2519  -25.6734  -51.6018 C.3       16 UNK         0.1400 
     91 CB          1.4451  -25.2814  -50.7163 C.3       16 UNK        -0.1800 
     92 C          -0.2895  -24.4573  -52.3757 C.2       16 UNK         0.5000 
     93 O           0.0565  -24.2697  -53.5422 O.2       16 UNK        -0.5000 
     94 N          -1.1727  -23.6932  -51.7215 N.am      17 UNK        -0.5000 
     95 CA         -2.0865  -22.7465  -52.3505 C.3       17 UNK         0.1400 
     96 CB         -2.2278  -21.5101  -51.4504 C.3       17 UNK        -0.1800 
     97 C          -3.4394  -23.4523  -52.5250 C.2       17 UNK         0.5000 
     98 O          -3.8263  -24.2464  -51.6628 O.2       17 UNK        -0.5000 
     99 N          -4.1531  -23.1517  -53.6148 N.am      18 UNK        -0.5000 
    100 CA        -5.4552  -23.7369  -53.9357 C.3       18 UNK         0.1400 
    101 CB        -5.6441  -23.7361  -55.4625 C.3       18 UNK        -0.1800 
    102 C         -6.5745  -22.9994  -53.1776 C.2       18 UNK         0.5000 
    103 O         -7.3898  -22.3012  -53.7835 O.2       18 UNK        -0.5000 
    104 N         -6.5543  -23.1394  -51.8452 N.am      19 UNK        -0.5000 
    105 CA        -7.3917  -22.4407  -50.8701 C.3       19 UNK         0.1400 
    106 CB        -8.8632  -22.9019  -50.9751 C.3       19 UNK        -0.1800 
    107 C         -7.1881  -20.9158  -50.9819 C.2       19 UNK         0.5000 
    108 O         -6.0971  -20.4348  -50.6747 O.2       19 UNK        -0.5000 
    109 N         -8.2161  -20.1904  -51.4397 N.am      20 UNK        -0.5000 
    110 CA        -8.1769  -18.7474  -51.6775 C.3       20 UNK         0.1400 
    111 CB        -9.6152  -18.2322  -51.8398 C.3       20 UNK        -0.1800 
    112 C         -7.3201  -18.3428  -52.8945 C.2       20 UNK         0.5000 
    113 O         -6.8503  -17.2046  -52.9420 O.2       20 UNK        -0.5000 
    114 N         -7.1298  -19.2575  -53.8567 N.am      21 UNK        -0.5000 
    115 CA        -6.3061  -19.0434  -55.0438 C.3       21 UNK         0.1400 
    116 CB        -6.8391  -19.8986  -56.2050 C.3       21 UNK        -0.1800 
    117 C         -4.8306  -19.3286  -54.7138 C.2       21 UNK         0.5000 
    118 O         -4.3482  -20.4471  -54.9062 O.2       21 UNK        -0.5000 
    119 N         -4.1524  -18.3043  -54.1858 N.am      22 UNK        -0.5000 
    120 CA        -2.7262  -18.3342  -53.8246 C.3       22 UNK         0.1400 
    121 C         -1.7521  -18.3177  -55.0416 C.2       22 UNK         0.5000 
    122 N         -2.1919  -17.9539  -56.2404 N.am      22 UNK        -0.7600 
    123 O         -0.5813  -18.6564  -54.9031 O.2       22 UNK        -0.5000 
    124 C124       -2.3872  -17.2233  -52.7876 C.3       23 UNK        -0.0398 
    125 S125       -1.4920  -17.8507  -51.3272 S.3       23 UNK        -0.2404 
    126 C126        0.2169  -17.4141  -51.7593 C.3       23 UNK        -0.0205 
    127 H127       -0.0559  -13.1467  -50.3257 H         1 UNK         0.0600 
    128 H128       -1.2134  -12.6587  -49.0847 H         1 UNK         0.0600 
    129 H129       -0.7084  -14.3452  -49.2087 H         1 UNK         0.0600 
    130 H130        2.0066  -12.5203  -49.8232 H         1 UNK         0.3000 
    131 H131        3.8738  -11.9818  -48.8208 H         1 UNK         0.0600 
    132 H132        3.1598  -13.8205  -46.4921 H         1 UNK         0.0800 
    133 H133        4.7490  -13.2380  -46.9062 H         1 UNK         0.0800 
    134 H134        3.4491  -16.6378  -46.8659 H         1 UNK         0.0800 
    135 H135        2.0657  -15.6702  -47.3106 H         1 UNK         0.0800 
    136 H136        1.2337  -15.8475  -49.7804 H         1 UNK         0.1150 
    137 H137        1.3360  -19.8537  -51.2967 H         1 UNK         0.1150 
    138 H138        3.7110  -18.7887  -47.8877 H         1 UNK         0.1150 
    139 H139        2.8719  -21.4570  -50.4104 H         1 UNK         0.0800 
    140 H140        4.2109  -20.8602  -49.4634 H         1 UNK         0.0800 
    141 H141        0.2698  -20.9281  -48.3504 H         1 UNK         0.0800 
    142 H142        0.6274  -22.2172  -49.4751 H         1 UNK         0.0800 
    143 H143        0.6349  -23.8306  -47.4655 H         1 UNK         0.0600 
    144 H144        0.1930  -21.4735  -45.9484 H         1 UNK         0.3000 
    145 H145       -1.2587  -23.1288  -43.0852 H         1 UNK         0.0600 
    146 H146        0.5734  -21.8229  -42.0311 H         1 UNK         0.0600 
    147 H147        1.2041  -23.2416  -42.8537 H         1 UNK         0.0600 
    148 H148        1.3789  -21.6564  -43.5896 H         1 UNK         0.0600 
    149 H149       -0.8215  -20.3697  -43.5953 H         1 UNK         0.3000 
    150 H150       -3.9866  -19.7126  -45.1774 H         1 UNK         0.0600 
    151 H151       -4.4178  -19.6399  -42.7339 H         1 UNK         0.0600 
    152 H152       -4.0452  -18.0334  -43.3423 H         1 UNK         0.0600 
    153 H153       -2.8298  -18.9426  -42.4472 H         1 UNK         0.0600 
    154 H154       -1.8546  -17.9561  -44.5732 H         1 UNK         0.3000 
    155 H155        0.0777  -18.4665  -47.5532 H         1 UNK         0.0600 
    156 H156       -1.6565  -16.1689  -46.4932 H         1 UNK         0.0600 
    157 H157       -1.6323  -16.8045  -48.1317 H         1 UNK         0.0600 
    158 H158       -0.2254  -15.9714  -47.4954 H         1 UNK         0.0600 
    159 H159        0.4644  -16.8653  -45.1969 H         1 UNK         0.3000 
    160 H160        2.2289  -19.3324  -43.3097 H         1 UNK         0.0600 
    161 H161        3.3041  -16.7867  -44.6130 H         1 UNK         0.0600 
    162 H162        3.9511  -18.4003  -44.8851 H         1 UNK         0.0600 
    163 H163        4.0200  -17.6836  -43.2821 H         1 UNK         0.0600 
    164 H164        1.5206  -16.5218  -42.9975 H         1 UNK         0.3000 
    165 H165       -1.5318  -17.1759  -41.2730 H         1 UNK         0.0600 
    166 H166        1.1469  -16.2823  -40.0756 H         1 UNK         0.0600 
    167 H167       -0.4518  -15.9472  -39.4089 H         1 UNK         0.0600 
    168 H168        0.1470  -17.5971  -39.4690 H         1 UNK         0.0600 
    169 H169       -0.0406  -14.7790  -41.6515 H         1 UNK         0.3000 
    170 H170       -0.8074  -14.0858  -44.9837 H         1 UNK         0.0600 
    171 H171       -3.0456  -13.4972  -44.0384 H         1 UNK         0.0600 
    172 H172       -2.2744  -12.8133  -42.6110 H         1 UNK         0.0600 
    173 H173       -2.0241  -12.0764  -44.1946 H         1 UNK         0.0600 
    174 H174        0.1529  -12.3739  -42.9319 H         1 UNK         0.3000 
    175 H175        2.6085  -12.9285  -41.9168 H         1 UNK         0.0600 
    176 H176        4.2630  -14.2598  -43.1866 H         1 UNK         0.0600 
    177 H177        4.2228  -13.0943  -44.5019 H         1 UNK         0.0600 
    178 H178        4.8358  -12.6218  -42.9226 H         1 UNK         0.0600 
    179 H179        2.9461  -11.0110  -44.1193 H         1 UNK         0.3000 
    180 H180        0.6203   -8.6949  -42.8550 H         1 UNK         0.0600 
    181 H181        2.5054   -7.1515  -42.3786 H         1 UNK         0.0600 
    182 H182        2.3389   -8.3259  -41.0837 H         1 UNK         0.0600 
    183 H183        3.6247   -8.5110  -42.2706 H         1 UNK         0.0600 
    184 H184        2.8976   -8.4506  -44.6116 H         1 UNK         0.3000 
    185 H185        0.9478   -8.4400  -47.4418 H         1 UNK         0.0600 
    186 H186        3.2287   -7.6596  -47.9286 H         1 UNK         0.0600 
    187 H187        2.6848   -6.9536  -46.4192 H         1 UNK         0.0600 
    188 H188        3.8354   -8.2891  -46.4045 H         1 UNK         0.0600 
    189 H189        1.6211  -10.3102  -48.4194 H         1 UNK         0.3000 
    190 H190       -2.2791  -21.7629  -47.2082 H         1 UNK         0.3000 
    191 H191       -3.8301  -23.1498  -49.1604 H         1 UNK         0.0600 
    192 H192       -5.7552  -22.0308  -48.0261 H         1 UNK         0.0600 
    193 H193       -4.4393  -20.9084  -48.3342 H         1 UNK         0.0600 
    194 H194       -4.7061  -21.5362  -46.7103 H         1 UNK         0.0600 
    195 H195       -3.5231  -23.6294  -45.6117 H         1 UNK         0.3000 
    196 H196       -5.3234  -25.8166  -45.4051 H         1 UNK         0.0600 
    197 H197       -4.2233  -26.1608  -43.1911 H         1 UNK         0.0600 
    198 H198       -4.5893  -24.4633  -43.4621 H         1 UNK         0.0600 
    199 H199       -2.9372  -25.0480  -43.6418 H         1 UNK         0.0600 
    200 H200       -1.8024  -25.7216  -46.0202 H         1 UNK         0.3000 
    201 H201       -1.4215  -28.5733  -46.1086 H         1 UNK         0.0600 
    202 H202        0.2749  -26.2704  -47.2144 H         1 UNK         0.0600 
    203 H203        0.8208  -27.9272  -46.9877 H         1 UNK         0.0600 
    204 H204        0.3991  -26.9490  -45.5916 H         1 UNK         0.0600 
    205 H205       -2.9113  -26.4718  -48.3231 H         1 UNK         0.3000 
    206 H206       -3.6648  -26.5510  -50.3728 H         1 UNK         0.0600 
    207 H207       -4.4564  -28.8633  -49.8139 H         1 UNK         0.0600 
    208 H208       -4.1120  -28.6613  -51.5233 H         1 UNK         0.0600 
    209 H209       -2.9754  -29.5291  -50.5032 H         1 UNK         0.0600 
    210 H210       -0.8997  -25.8747  -49.8364 H         1 UNK         0.3000 
    211 H211        0.5919  -26.4161  -52.3266 H         1 UNK         0.0600 
    212 H212        1.1641  -24.5564  -49.9532 H         1 UNK         0.0600 
    213 H213        2.2444  -24.8385  -51.3118 H         1 UNK         0.0600 
    214 H214        1.8604  -26.1528  -50.2098 H         1 UNK         0.0600 
    215 H215       -1.4309  -23.9814  -50.7840 H         1 UNK         0.3000 
    216 H216       -1.7161  -22.4325  -53.3287 H         1 UNK         0.0600 
    217 H217       -3.0321  -20.8597  -51.7947 H         1 UNK         0.0600 
    218 H218       -1.3073  -20.9266  -51.4413 H         1 UNK         0.0600 
    219 H219       -2.4582  -21.7770  -50.4215 H         1 UNK         0.0600 
    220 H220       -3.8512  -22.3971  -54.2218 H         1 UNK         0.3000 
    221 H221       -5.4781  -24.7792  -53.6097 H         1 UNK         0.0600 
    222 H222       -5.5096  -22.7428  -55.8878 H         1 UNK         0.0600 
    223 H223       -4.9242  -24.3985  -55.9431 H         1 UNK         0.0600 
    224 H224       -6.6400  -24.0853  -55.7380 H         1 UNK         0.0600 
    225 H225       -5.7875  -23.6807  -51.4589 H         1 UNK         0.3000 
    226 H226       -7.0274  -22.7318  -49.8848 H         1 UNK         0.0600 
    227 H227       -8.9425  -23.9769  -50.8132 H         1 UNK         0.0600 
    228 H228       -9.4803  -22.4190  -50.2163 H         1 UNK         0.0600 
    229 H229       -9.3029  -22.6858  -51.9491 H         1 UNK         0.0600 
    230 H230       -9.0670  -20.6697  -51.6959 H         1 UNK         0.3000 
    231 H231       -7.7412  -18.2685  -50.7980 H         1 UNK         0.0600 
    232 H232       -9.6290  -17.1516  -51.9891 H         1 UNK         0.0600 
    233 H233      -10.2130  -18.4435  -50.9530 H         1 UNK         0.0600 
    234 H234      -10.1116  -18.6882  -52.6974 H         1 UNK         0.0600 
    235 H235       -7.4816  -20.1995  -53.7224 H         1 UNK         0.3000 
    236 H236       -6.3845  -18.0008  -55.3601 H         1 UNK         0.0600 
    237 H237       -6.8928  -20.9537  -55.9466 H         1 UNK         0.0600 
    238 H238       -7.8403  -19.5805  -56.4954 H         1 UNK         0.0600 
    239 H239       -6.2003  -19.8067  -57.0842 H         1 UNK         0.0600 
    240 H240       -4.6441  -17.4374  -54.0167 H         1 UNK         0.3000 
    241 H241       -2.5587  -19.3020  -53.3534 H         1 UNK         0.0600 
    242 H242       -3.1503  -17.6764  -56.3772 H         1 UNK         0.3800 
    243 H243       -1.5551  -17.9562  -57.0218 H         1 UNK         0.3800 
    244 H244       -3.3011  -16.7717  -52.3989 H         1 UNK         0.0800 
    245 H245       -1.8380  -16.3940  -53.2375 H         1 UNK         0.0800 
    246 H246        0.5033  -17.9134  -52.6845 H         1 UNK         0.0800 
    247 H247        0.2820  -16.3422  -51.9524 H         1 UNK         0.0800 
@<TRIPOS>BOND
     1    1    2 1    
     2    1  127 1    
     3    1  128 1    
     4    1  129 1    
     5    2    3 2    
     6    2    4 am   BACKBONE|DICT|INTERRES
     7    4    5 1    
     8    4  130 1    
     9    5    6 1    
    10    5   65 1    
    11    5  131 1    
    12    6    7 1    
    13    6  132 1    
    14    6  133 1    
    15    7    8 1    
    16    8    9 1    
    17    8  134 1    
    18    8  135 1    
    19    9   10 ar   
    20    9   14 ar   
    21   10   11 ar   
    22   10  136 1    
    23   11   12 ar   
    24   11  126 1    
    25   12   13 ar   
    26   12  137 1    
    27   13   14 ar   
    28   13   15 1    
    29   14  138 1    
    30   15   16 1    
    31   15  139 1    
    32   15  140 1    
    33   16   17 1    
    34   17   18 1    
    35   17  141 1    
    36   17  142 1    
    37   18   19 1    
    38   18   67 1    
    39   18  143 1    
    40   19   20 am   BACKBONE|DICT|INTERRES
    41   19  144 1    
    42   20   21 2    
    43   20   22 1    
    44   22   23 1    
    45   22   24 1    
    46   22  145 1    
    47   23  146 1    
    48   23  147 1    
    49   23  148 1    
    50   24   25 am   BACKBONE|DICT|INTERRES
    51   24  149 1    
    52   25   26 2    
    53   25   27 1    
    54   27   28 1    
    55   27   29 1    
    56   27  150 1    
    57   28  151 1    
    58   28  152 1    
    59   28  153 1    
    60   29   30 am   BACKBONE|DICT|INTERRES
    61   29  154 1    
    62   30   31 2    
    63   30   32 1    
    64   32   33 1    
    65   32   34 1    
    66   32  155 1    
    67   33  156 1    
    68   33  157 1    
    69   33  158 1    
    70   34   35 am   BACKBONE|DICT|INTERRES
    71   34  159 1    
    72   35   36 2    
    73   35   37 1    
    74   37   38 1    
    75   37   39 1    
    76   37  160 1    
    77   38  161 1    
    78   38  162 1    
    79   38  163 1    
    80   39   40 am   BACKBONE|DICT|INTERRES
    81   39  164 1    
    82   40   41 2    
    83   40   42 1    
    84   42   43 1    
    85   42   44 1    
    86   42  165 1    
    87   43  166 1    
    88   43  167 1    
    89   43  168 1    
    90   44   45 am   BACKBONE|DICT|INTERRES
    91   44  169 1    
    92   45   46 2    
    93   45   47 1    
    94   47   48 1    
    95   47   49 1    
    96   47  170 1    
    97   48  171 1    
    98   48  172 1    
    99   48  173 1    
   100   49   50 am   BACKBONE|DICT|INTERRES
   101   49  174 1    
   102   50   51 2    
   103   50   52 1    
   104   52   53 1    
   105   52   54 1    
   106   52  175 1    
   107   53  176 1    
   108   53  177 1    
   109   53  178 1    
   110   54   55 am   BACKBONE|DICT|INTERRES
   111   54  179 1    
   112   55   56 2    
   113   55   57 1    
   114   57   58 1    
   115   57   59 1    
   116   57  180 1    
   117   58  181 1    
   118   58  182 1    
   119   58  183 1    
   120   59   60 am   BACKBONE|DICT|INTERRES
   121   59  184 1    
   122   60   61 2    
   123   60   62 1    
   124   62   63 1    
   125   62   64 1    
   126   62  185 1    
   127   63  186 1    
   128   63  187 1    
   129   63  188 1    
   130   64   65 am   BACKBONE|DICT|INTERRES
   131   64  189 1    
   132   65   66 2    
   133   67   68 2    
   134   67   69 am   BACKBONE|DICT|INTERRES
   135   69   70 1    
   136   69  190 1    
   137   70   71 1    
   138   70   72 1    
   139   70  191 1    
   140   71  192 1    
   141   71  193 1    
   142   71  194 1    
   143   72   73 2    
   144   72   74 am   BACKBONE|DICT|INTERRES
   145   74   75 1    
   146   74  195 1    
   147   75   76 1    
   148   75   77 1    
   149   75  196 1    
   150   76  197 1    
   151   76  198 1    
   152   76  199 1    
   153   77   78 2    
   154   77   79 am   BACKBONE|DICT|INTERRES
   155   79   80 1    
   156   79  200 1    
   157   80   81 1    
   158   80   82 1    
   159   80  201 1    
   160   81  202 1    
   161   81  203 1    
   162   81  204 1    
   163   82   83 2    
   164   82   84 am   BACKBONE|DICT|INTERRES
   165   84   85 1    
   166   84  205 1    
   167   85   86 1    
   168   85   87 1    
   169   85  206 1    
   170   86  207 1    
   171   86  208 1    
   172   86  209 1    
   173   87   88 2    
   174   87   89 am   BACKBONE|DICT|INTERRES
   175   89   90 1    
   176   89  210 1    
   177   90   91 1    
   178   90   92 1    
   179   90  211 1    
   180   91  212 1    
   181   91  213 1    
   182   91  214 1    
   183   92   93 2    
   184   92   94 am   BACKBONE|DICT|INTERRES
   185   94   95 1    
   186   94  215 1    
   187   95   96 1    
   188   95   97 1    
   189   95  216 1    
   190   96  217 1    
   191   96  218 1    
   192   96  219 1    
   193   97   98 2    
   194   97   99 am   BACKBONE|DICT|INTERRES
   195   99  100 1    
   196   99  220 1    
   197  100  101 1    
   198  100  102 1    
   199  100  221 1    
   200  101  222 1    
   201  101  223 1    
   202  101  224 1    
   203  102  103 2    
   204  102  104 am   BACKBONE|DICT|INTERRES
   205  104  105 1    
   206  104  225 1    
   207  105  106 1    
   208  105  107 1    
   209  105  226 1    
   210  106  227 1    
   211  106  228 1    
   212  106  229 1    
   213  107  108 2    
   214  107  109 am   BACKBONE|DICT|INTERRES
   215  109  110 1    
   216  109  230 1    
   217  110  111 1    
   218  110  112 1    
   219  110  231 1    
   220  111  232 1    
   221  111  233 1    
   222  111  234 1    
   223  112  113 2    
   224  112  114 am   BACKBONE|DICT|INTERRES
   225  114  115 1    
   226  114  235 1    
   227  115  116 1    
   228  115  117 1    
   229  115  236 1    
   230  116  237 1    
   231  116  238 1    
   232  116  239 1    
   233  117  118 2    
   234  117  119 am   BACKBONE|DICT|INTERRES
   235  119  120 1    
   236  119  240 1    
   237  120  121 1    
   238  120  124 1    
   239  120  241 1    
   240  121  122 am   BACKBONE|DICT|INTERRES
   241  121  123 2    
   242  122  242 1    
   243  122  243 1    
   244  124  125 1    
   245  124  244 1    
   246  124  245 1    
   247  125  126 1    
   248  126  246 1    
   249  126  247 1    
@<TRIPOS>SUBSTRUCTURE
     1 UNK         1 GROUP             0       ****    0 ROOT    
