@<TRIPOS>MOLECULE
3R540
247   249    1
SMALL
USER_CHARGES


@<TRIPOS>ATOM
      1 CA         -0.9308   -9.8987  -45.3287 C.3       0 UNK        -0.1800 
      2 C           0.2607  -10.6322  -45.9282 C.2       0 UNK         0.5000 
      3 O           0.6000  -11.7151  -45.4579 O.2       0 UNK        -0.5000 
      4 N           0.8812  -10.0428  -46.9599 N.am      1 UNK        -0.5000 
      5 CA          2.0736  -10.5156  -47.6792 C.3       1 UNK         0.1400 
      6 C6          1.8628  -11.9008  -48.3906 C.3       23 UNK        -0.0398 
      7 S7          3.0105  -13.2768  -48.0050 S.3       23 UNK        -0.2404 
      8 C8          1.9505  -14.4215  -47.0754 C.3       23 UNK        -0.0205 
      9 C9          1.4187  -15.5355  -47.9593 C.ar      23 UNK        -0.0193 
     10 C10         0.1977  -15.3955  -48.6246 C.ar      23 UNK        -0.1150 
     11 C11        -0.3035  -16.4438  -49.4008 C.ar      23 UNK        -0.0193 
     12 C12         0.4378  -17.6202  -49.5305 C.ar      23 UNK        -0.1150 
     13 C13         1.6328  -17.7991  -48.8235 C.ar      23 UNK        -0.0193 
     14 C14         2.1272  -16.7358  -48.0633 C.ar      23 UNK        -0.1150 
     15 C15         2.3991  -19.1258  -48.8067 C.3       23 UNK        -0.0205 
     16 S16         1.4884  -20.6079  -49.3816 S.3       23 UNK        -0.2404 
     17 C17        -0.0556  -20.5690  -48.4058 C.3       23 UNK        -0.0398 
     18 CA         -0.3500  -21.8977  -47.6629 C.3       11 UNK         0.1400 
     19 N           0.0079  -21.8253  -46.2437 N.am      11 UNK        -0.5000 
     20 C          -0.0555  -22.8428  -45.3739 C.2       10 UNK         0.5000 
     21 O          -0.3632  -23.9933  -45.6860 O.2       10 UNK        -0.5000 
     22 CA          0.2079  -22.5021  -43.8949 C.3       10 UNK         0.1400 
     23 CB          1.7124  -22.3786  -43.6116 C.3       10 UNK        -0.1800 
     24 N          -0.4814  -21.2797  -43.4742 N.am      10 UNK        -0.5000 
     25 C          -1.8155  -21.1484  -43.4285 C.2       9 UNK         0.5000 
     26 O          -2.5989  -22.0604  -43.6886 O.2       9 UNK        -0.5000 
     27 CA         -2.3754  -19.7588  -43.0782 C.3       9 UNK         0.1400 
     28 CB         -2.3687  -19.5358  -41.5589 C.3       9 UNK        -0.1800 
     29 N          -1.6529  -18.6728  -43.7379 N.am      9 UNK        -0.5000 
     30 C          -1.5740  -18.4976  -45.0649 C.2       8 UNK         0.5000 
     31 O          -2.1428  -19.2159  -45.8855 O.2       8 UNK        -0.5000 
     32 CA         -0.6486  -17.3700  -45.5549 C.3       8 UNK         0.1400 
     33 CB         -1.3393  -16.0040  -45.4289 C.3       8 UNK        -0.1800 
     34 N           0.6322  -17.3571  -44.8422 N.am      8 UNK        -0.5000 
     35 C           1.5069  -18.3750  -44.8497 C.2       7 UNK         0.5000 
     36 O           1.3457  -19.4118  -45.4910 O.2       7 UNK        -0.5000 
     37 CA          2.7440  -18.2433  -43.9499 C.3       7 UNK         0.1400 
     38 CB          3.8667  -17.4865  -44.6665 C.3       7 UNK        -0.1800 
     39 N           2.4224  -17.5811  -42.6883 N.am      7 UNK        -0.5000 
     40 C           1.7488  -18.1721  -41.6915 C.2       6 UNK         0.5000 
     41 O           1.3789  -19.3468  -41.7195 O.2       6 UNK        -0.5000 
     42 CA          1.3902  -17.2888  -40.4818 C.3       6 UNK         0.1400 
     43 CB          2.5809  -17.1763  -39.5181 C.3       6 UNK        -0.1800 
     44 N           0.9554  -15.9472  -40.8742 N.am      6 UNK        -0.5000 
     45 C          -0.1489  -15.6886  -41.5880 C.2       5 UNK         0.5000 
     46 O          -0.9469  -16.5549  -41.9417 O.2       5 UNK        -0.5000 
     47 CA         -0.3938  -14.2276  -42.0084 C.3       5 UNK         0.1400 
     48 CB         -1.3326  -13.5342  -41.0104 C.3       5 UNK        -0.1800 
     49 N           0.8200  -13.4228  -42.1618 N.am      5 UNK        -0.5000 
     50 C           1.8282  -13.6749  -43.0087 C.2       4 UNK         0.5000 
     51 O           1.8909  -14.6898  -43.7084 O.2       4 UNK        -0.5000 
     52 CA          2.9221  -12.5882  -43.0583 C.3       4 UNK         0.1400 
     53 CB          3.5583  -12.3437  -41.6722 C.3       4 UNK        -0.1800 
     54 N           3.9544  -12.8100  -44.0745 N.am      4 UNK        -0.5000 
     55 C           4.9143  -13.7475  -44.1014 C.2       3 UNK         0.5000 
     56 O           5.0534  -14.6150  -43.2382 O.2       3 UNK        -0.5000 
     57 CA          5.9196  -13.6943  -45.2740 C.3       3 UNK         0.1400 
     58 CB          5.8692  -14.9726  -46.1260 C.3       3 UNK        -0.1800 
     59 N           5.7228  -12.5340  -46.1475 N.am      3 UNK        -0.5000 
     60 C           6.2543  -11.3217  -45.9395 C.2       2 UNK         0.5000 
     61 O           7.0191  -11.0617  -45.0100 O.2       2 UNK        -0.5000 
     62 CA          5.8541  -10.2033  -46.9242 C.3       2 UNK         0.1400 
     63 CB          6.8929  -10.0850  -48.0500 C.3       2 UNK        -0.1800 
     64 N           4.5234  -10.3717  -47.5194 N.am      2 UNK        -0.5000 
     65 C           3.3682  -10.3498  -46.8389 C.2       1 UNK         0.5000 
     66 O           3.3190  -10.1939  -45.6164 O.2       1 UNK        -0.5000 
     67 C          -1.8220  -22.3164  -47.8620 C.2       11 UNK         0.5000 
     68 O          -2.0919  -23.1869  -48.6879 O.2       11 UNK        -0.5000 
     69 N          -2.7415  -21.7101  -47.0979 N.am      12 UNK        -0.5000 
     70 CA         -4.1714  -22.0174  -47.1203 C.3       12 UNK         0.1400 
     71 CB         -4.9426  -20.9638  -46.3114 C.3       12 UNK        -0.1800 
     72 C          -4.4922  -23.4364  -46.6205 C.2       12 UNK         0.5000 
     73 O          -5.3333  -24.1045  -47.2207 O.2       12 UNK        -0.5000 
     74 N          -3.7990  -23.8857  -45.5645 N.am      13 UNK        -0.5000 
     75 CA         -3.8993  -25.2416  -45.0189 C.3       13 UNK         0.1400 
     76 CB         -3.1452  -25.3188  -43.6828 C.3       13 UNK        -0.1800 
     77 C          -3.3871  -26.3141  -45.9981 C.2       13 UNK         0.5000 
     78 O          -3.9982  -27.3774  -46.1099 O.2       13 UNK        -0.5000 
     79 N          -2.2977  -26.0020  -46.7133 N.am      14 UNK        -0.5000 
     80 CA         -1.7490  -26.8232  -47.7943 C.3       14 UNK         0.1400 
     81 CB         -0.3131  -26.3590  -48.0862 C.3       14 UNK        -0.1800 
     82 C          -2.5945  -26.7760  -49.0842 C.2       14 UNK         0.5000 
     83 O          -2.4671  -27.6745  -49.9166 O.2       14 UNK        -0.5000 
     84 N          -3.4141  -25.7235  -49.2286 N.am      15 UNK        -0.5000 
     85 CA         -4.1860  -25.3289  -50.4099 C.3       15 UNK         0.1400 
     86 CB         -5.3074  -26.3446  -50.7080 C.3       15 UNK        -0.1800 
     87 C          -3.2623  -25.0608  -51.6137 C.2       15 UNK         0.5000 
     88 O          -3.4790  -25.6001  -52.6993 O.2       15 UNK        -0.5000 
     89 N          -2.2208  -24.2527  -51.3758 N.am      16 UNK        -0.5000 
     90 CA         -1.1233  -23.9601  -52.2994 C.3       16 UNK         0.1400 
     91 CB         -0.1154  -23.0428  -51.5924 C.3       16 UNK        -0.1800 
     92 C          -1.5530  -23.3607  -53.6533 C.2       16 UNK         0.5000 
     93 O          -0.9190  -23.6537  -54.6679 O.2       16 UNK        -0.5000 
     94 N          -2.6248  -22.5562  -53.6573 N.am      17 UNK        -0.5000 
     95 CA         -3.2269  -21.9861  -54.8663 C.3       17 UNK         0.1400 
     96 CB         -4.1062  -20.7874  -54.4801 C.3       17 UNK        -0.1800 
     97 C          -4.0267  -23.0071  -55.7033 C.2       17 UNK         0.5000 
     98 O          -4.2942  -22.7342  -56.8745 O.2       17 UNK        -0.5000 
     99 N          -4.3859  -24.1527  -55.1030 N.am      18 UNK        -0.5000 
    100 CA        -5.0838  -25.3236  -55.6510 C.3       18 UNK         0.1400 
    101 CB        -4.2548  -25.9931  -56.7636 C.3       18 UNK        -0.1800 
    102 C         -6.5320  -25.0659  -56.1096 C.2       18 UNK         0.5000 
    103 O         -7.4482  -25.7433  -55.6428 O.2       18 UNK        -0.5000 
    104 N         -6.7149  -24.0997  -57.0141 N.am      19 UNK        -0.5000 
    105 CA        -7.9994  -23.7012  -57.5917 C.3       19 UNK         0.1400 
    106 CB        -7.7383  -23.1189  -58.9903 C.3       19 UNK        -0.1800 
    107 C         -8.7671  -22.6884  -56.7187 C.2       19 UNK         0.5000 
    108 O         -9.9150  -22.3694  -57.0328 O.2       19 UNK        -0.5000 
    109 N         -8.1279  -22.1870  -55.6575 N.am      20 UNK        -0.5000 
    110 CA        -8.6516  -21.1927  -54.7299 C.3       20 UNK         0.1400 
    111 CB        -8.3808  -19.7844  -55.2944 C.3       20 UNK        -0.1800 
    112 C         -7.9928  -21.3876  -53.3554 C.2       20 UNK         0.5000 
    113 O         -7.1193  -22.2467  -53.2030 O.2       20 UNK        -0.5000 
    114 N         -8.4201  -20.5748  -52.3821 N.am      21 UNK        -0.5000 
    115 CA        -7.7977  -20.4548  -51.0639 C.3       21 UNK         0.1400 
    116 CB        -8.7655  -19.7097  -50.1301 C.3       21 UNK        -0.1800 
    117 C         -6.4419  -19.7232  -51.1379 C.2       21 UNK         0.5000 
    118 O         -6.1662  -19.0225  -52.1155 O.2       21 UNK        -0.5000 
    119 N         -5.6372  -19.8776  -50.0805 N.am      22 UNK        -0.5000 
    120 CA        -4.2488  -19.3979  -49.9915 C.3       22 UNK         0.1400 
    121 C         -3.2938  -20.2019  -50.9264 C.2       22 UNK         0.5000 
    122 N         -2.2038  -19.6208  -51.4081 N.am      22 UNK        -0.7600 
    123 O         -3.5133  -21.3826  -51.1864 O.2       22 UNK        -0.5000 
    124 C124       -4.1369  -17.8430  -50.0941 C.3       23 UNK        -0.0398 
    125 S125       -2.8963  -17.1657  -48.9397 S.3       23 UNK        -0.2404 
    126 C126       -1.6823  -16.3570  -50.0326 C.3       23 UNK        -0.0205 
    127 H127       -1.8252  -10.5179  -45.3983 H         1 UNK         0.0600 
    128 H128       -1.1283   -8.9564  -45.8401 H         1 UNK         0.0600 
    129 H129       -0.7458   -9.6830  -44.2765 H         1 UNK         0.0600 
    130 H130        0.5446   -9.1390  -47.2612 H         1 UNK         0.3000 
    131 H131        2.1834   -9.7801  -48.4781 H         1 UNK         0.0600 
    132 H132        0.8391  -12.2516  -48.2582 H         1 UNK         0.0800 
    133 H133        1.9453  -11.7451  -49.4670 H         1 UNK         0.0800 
    134 H134        2.5316  -14.8463  -46.2585 H         1 UNK         0.0800 
    135 H135        1.1271  -13.8914  -46.6006 H         1 UNK         0.0800 
    136 H136       -0.3757  -14.4864  -48.5114 H         1 UNK         0.1150 
    137 H137        0.0422  -18.4173  -50.1393 H         1 UNK         0.1150 
    138 H138        3.0550  -16.8532  -47.5224 H         1 UNK         0.1150 
    139 H139        3.2935  -19.0142  -49.4205 H         1 UNK         0.0800 
    140 H140        2.7469  -19.3247  -47.7922 H         1 UNK         0.0800 
    141 H141       -0.8455  -20.3220  -49.1154 H         1 UNK         0.0800 
    142 H142       -0.0403  -19.7334  -47.7070 H         1 UNK         0.0800 
    143 H143        0.2536  -22.6945  -48.1025 H         1 UNK         0.0600 
    144 H144        0.3222  -20.9185  -45.9053 H         1 UNK         0.3000 
    145 H145       -0.1801  -23.3255  -43.2917 H         1 UNK         0.0600 
    146 H146        1.8997  -22.1770  -42.5567 H         1 UNK         0.0600 
    147 H147        2.1715  -21.5781  -44.1909 H         1 UNK         0.0600 
    148 H148        2.2319  -23.3037  -43.8642 H         1 UNK         0.0600 
    149 H149        0.0980  -20.4877  -43.2254 H         1 UNK         0.3000 
    150 H150       -3.4110  -19.7226  -43.4217 H         1 UNK         0.0600 
    151 H151       -2.9095  -20.3309  -41.0441 H         1 UNK         0.0600 
    152 H152       -2.8499  -18.5931  -41.2977 H         1 UNK         0.0600 
    153 H153       -1.3544  -19.5142  -41.1590 H         1 UNK         0.0600 
    154 H154       -1.1963  -17.9986  -43.1287 H         1 UNK         0.3000 
    155 H155       -0.4356  -17.5473  -46.6098 H         1 UNK         0.0600 
    156 H156       -2.1802  -15.9362  -46.1197 H         1 UNK         0.0600 
    157 H157       -0.6595  -15.1858  -45.6628 H         1 UNK         0.0600 
    158 H158       -1.7325  -15.8395  -44.4269 H         1 UNK         0.0600 
    159 H159        0.8606  -16.5260  -44.3101 H         1 UNK         0.3000 
    160 H160        3.1077  -19.2495  -43.7311 H         1 UNK         0.0600 
    161 H161        3.5672  -16.4684  -44.9101 H         1 UNK         0.0600 
    162 H162        4.1430  -17.9836  -45.5970 H         1 UNK         0.0600 
    163 H163        4.7616  -17.4322  -44.0466 H         1 UNK         0.0600 
    164 H164        2.6354  -16.5935  -42.6280 H         1 UNK         0.3000 
    165 H165        0.5649  -17.7698  -39.9523 H         1 UNK         0.0600 
    166 H166        2.3107  -16.6195  -38.6208 H         1 UNK         0.0600 
    167 H167        2.9178  -18.1632  -39.1981 H         1 UNK         0.0600 
    168 H168        3.4303  -16.6738  -39.9828 H         1 UNK         0.0600 
    169 H169        1.5602  -15.1774  -40.6295 H         1 UNK         0.3000 
    170 H170       -0.8886  -14.2449  -42.9801 H         1 UNK         0.0600 
    171 H171       -0.8765  -13.4459  -40.0235 H         1 UNK         0.0600 
    172 H172       -1.6000  -12.5330  -41.3491 H         1 UNK         0.0600 
    173 H173       -2.2617  -14.0941  -40.8939 H         1 UNK         0.0600 
    174 H174        0.8483  -12.5679  -41.6260 H         1 UNK         0.3000 
    175 H175        2.4225  -11.6662  -43.3585 H         1 UNK         0.0600 
    176 H176        3.9721  -13.2581  -41.2462 H         1 UNK         0.0600 
    177 H177        4.3619  -11.6095  -41.7326 H         1 UNK         0.0600 
    178 H178        2.8283  -11.9569  -40.9610 H         1 UNK         0.0600 
    179 H179        3.9251  -12.1476  -44.8393 H         1 UNK         0.3000 
    180 H180        6.9163  -13.6384  -44.8314 H         1 UNK         0.0600 
    181 H181        6.5948  -14.9329  -46.9385 H         1 UNK         0.0600 
    182 H182        4.8858  -15.1327  -46.5651 H         1 UNK         0.0600 
    183 H183        6.1097  -15.8497  -45.5250 H         1 UNK         0.0600 
    184 H184        5.0893  -12.6581  -46.9263 H         1 UNK         0.3000 
    185 H185        5.8508   -9.2652  -46.3652 H         1 UNK         0.0600 
    186 H186        6.6751   -9.2384  -48.7015 H         1 UNK         0.0600 
    187 H187        7.8937   -9.9312  -47.6441 H         1 UNK         0.0600 
    188 H188        6.9230  -10.9850  -48.6654 H         1 UNK         0.0600 
    189 H189        4.4985  -10.5121  -48.5194 H         1 UNK         0.3000 
    190 H190       -2.4492  -20.9530  -46.4834 H         1 UNK         0.3000 
    191 H191       -4.5032  -21.9592  -48.1587 H         1 UNK         0.0600 
    192 H192       -4.7735  -19.9599  -46.7009 H         1 UNK         0.0600 
    193 H193       -4.6443  -20.9668  -45.2628 H         1 UNK         0.0600 
    194 H194       -6.0164  -21.1512  -46.3477 H         1 UNK         0.0600 
    195 H195       -3.1722  -23.2476  -45.0812 H         1 UNK         0.3000 
    196 H196       -4.9541  -25.4467  -44.8247 H         1 UNK         0.0600 
    197 H197       -3.5601  -24.6203  -42.9560 H         1 UNK         0.0600 
    198 H198       -2.0869  -25.0860  -43.8033 H         1 UNK         0.0600 
    199 H199       -3.2156  -26.3178  -43.2509 H         1 UNK         0.0600 
    200 H200       -1.8100  -25.1349  -46.5089 H         1 UNK         0.3000 
    201 H201       -1.7125  -27.8614  -47.4582 H         1 UNK         0.0600 
    202 H202        0.3148  -26.4365  -47.1984 H         1 UNK         0.0600 
    203 H203       -0.2872  -25.3223  -48.4242 H         1 UNK         0.0600 
    204 H204        0.1461  -26.9696  -48.8645 H         1 UNK         0.0600 
    205 H205       -3.3865  -25.0287  -48.4940 H         1 UNK         0.3000 
    206 H206       -4.6576  -24.3756  -50.1654 H         1 UNK         0.0600 
    207 H207       -4.9105  -27.3168  -51.0013 H         1 UNK         0.0600 
    208 H208       -5.9452  -26.4910  -49.8363 H         1 UNK         0.0600 
    209 H209       -5.9432  -25.9927  -51.5213 H         1 UNK         0.0600 
    210 H210       -2.1528  -23.8326  -50.4512 H         1 UNK         0.3000 
    211 H211       -0.6257  -24.9081  -52.5127 H         1 UNK         0.0600 
    212 H212       -0.5784  -22.1060  -51.2821 H         1 UNK         0.0600 
    213 H213        0.7231  -22.7975  -52.2452 H         1 UNK         0.0600 
    214 H214        0.2946  -23.5203  -50.7022 H         1 UNK         0.0600 
    215 H215       -3.0637  -22.3231  -52.7683 H         1 UNK         0.3000 
    216 H216       -2.4243  -21.6142  -55.5065 H         1 UNK         0.0600 
    217 H217       -4.6302  -20.3806  -55.3458 H         1 UNK         0.0600 
    218 H218       -3.5072  -19.9809  -54.0578 H         1 UNK         0.0600 
    219 H219       -4.8561  -21.0630  -53.7401 H         1 UNK         0.0600 
    220 H220       -4.0878  -24.2776  -54.1414 H         1 UNK         0.3000 
    221 H221       -5.1460  -26.0355  -54.8266 H         1 UNK         0.0600 
    222 H222       -4.1279  -25.3430  -57.6297 H         1 UNK         0.0600 
    223 H223       -3.2631  -26.2654  -56.4020 H         1 UNK         0.0600 
    224 H224       -4.7367  -26.9078  -57.1108 H         1 UNK         0.0600 
    225 H225       -5.8971  -23.5589  -57.2869 H         1 UNK         0.3000 
    226 H226       -8.6322  -24.5842  -57.7021 H         1 UNK         0.0600 
    227 H227       -7.2404  -23.8453  -59.6329 H         1 UNK         0.0600 
    228 H228       -8.6715  -22.8392  -59.4810 H         1 UNK         0.0600 
    229 H229       -7.1112  -22.2276  -58.9427 H         1 UNK         0.0600 
    230 H230       -7.2196  -22.5568  -55.4097 H         1 UNK         0.3000 
    231 H231       -9.7266  -21.3387  -54.6060 H         1 UNK         0.0600 
    232 H232       -8.7977  -19.0089  -54.6514 H         1 UNK         0.0600 
    233 H233       -8.8310  -19.6587  -56.2792 H         1 UNK         0.0600 
    234 H234       -7.3111  -19.5922  -55.3890 H         1 UNK         0.0600 
    235 H235       -9.1205  -19.8827  -52.6033 H         1 UNK         0.3000 
    236 H236       -7.6277  -21.4582  -50.6673 H         1 UNK         0.0600 
    237 H237       -8.9610  -18.6952  -50.4801 H         1 UNK         0.0600 
    238 H238       -9.7211  -20.2293  -50.0565 H         1 UNK         0.0600 
    239 H239       -8.3611  -19.6352  -49.1199 H         1 UNK         0.0600 
    240 H240       -5.9442  -20.4701  -49.3245 H         1 UNK         0.3000 
    241 H241       -3.9369  -19.6850  -48.9880 H         1 UNK         0.0600 
    242 H242       -1.9970  -18.6589  -51.2039 H         1 UNK         0.3800 
    243 H243       -1.5941  -20.1468  -52.0118 H         1 UNK         0.3800 
    244 H244       -5.0849  -17.3836  -49.8111 H         1 UNK         0.0800 
    245 H245       -3.9562  -17.5128  -51.1181 H         1 UNK         0.0800 
    246 H246       -1.9721  -15.3166  -50.1873 H         1 UNK         0.0800 
    247 H247       -1.6653  -16.8219  -51.0181 H         1 UNK         0.0800 
@<TRIPOS>BOND
     1    1    2 1    
     2    1  127 1    
     3    1  128 1    
     4    1  129 1    
     5    2    3 2    
     6    2    4 am   BACKBONE|DICT|INTERRES
     7    4    5 1    
     8    4  130 1    
     9    5    6 1    
    10    5   65 1    
    11    5  131 1    
    12    6    7 1    
    13    6  132 1    
    14    6  133 1    
    15    7    8 1    
    16    8    9 1    
    17    8  134 1    
    18    8  135 1    
    19    9   10 ar   
    20    9   14 ar   
    21   10   11 ar   
    22   10  136 1    
    23   11   12 ar   
    24   11  126 1    
    25   12   13 ar   
    26   12  137 1    
    27   13   14 ar   
    28   13   15 1    
    29   14  138 1    
    30   15   16 1    
    31   15  139 1    
    32   15  140 1    
    33   16   17 1    
    34   17   18 1    
    35   17  141 1    
    36   17  142 1    
    37   18   19 1    
    38   18   67 1    
    39   18  143 1    
    40   19   20 am   BACKBONE|DICT|INTERRES
    41   19  144 1    
    42   20   21 2    
    43   20   22 1    
    44   22   23 1    
    45   22   24 1    
    46   22  145 1    
    47   23  146 1    
    48   23  147 1    
    49   23  148 1    
    50   24   25 am   BACKBONE|DICT|INTERRES
    51   24  149 1    
    52   25   26 2    
    53   25   27 1    
    54   27   28 1    
    55   27   29 1    
    56   27  150 1    
    57   28  151 1    
    58   28  152 1    
    59   28  153 1    
    60   29   30 am   BACKBONE|DICT|INTERRES
    61   29  154 1    
    62   30   31 2    
    63   30   32 1    
    64   32   33 1    
    65   32   34 1    
    66   32  155 1    
    67   33  156 1    
    68   33  157 1    
    69   33  158 1    
    70   34   35 am   BACKBONE|DICT|INTERRES
    71   34  159 1    
    72   35   36 2    
    73   35   37 1    
    74   37   38 1    
    75   37   39 1    
    76   37  160 1    
    77   38  161 1    
    78   38  162 1    
    79   38  163 1    
    80   39   40 am   BACKBONE|DICT|INTERRES
    81   39  164 1    
    82   40   41 2    
    83   40   42 1    
    84   42   43 1    
    85   42   44 1    
    86   42  165 1    
    87   43  166 1    
    88   43  167 1    
    89   43  168 1    
    90   44   45 am   BACKBONE|DICT|INTERRES
    91   44  169 1    
    92   45   46 2    
    93   45   47 1    
    94   47   48 1    
    95   47   49 1    
    96   47  170 1    
    97   48  171 1    
    98   48  172 1    
    99   48  173 1    
   100   49   50 am   BACKBONE|DICT|INTERRES
   101   49  174 1    
   102   50   51 2    
   103   50   52 1    
   104   52   53 1    
   105   52   54 1    
   106   52  175 1    
   107   53  176 1    
   108   53  177 1    
   109   53  178 1    
   110   54   55 am   BACKBONE|DICT|INTERRES
   111   54  179 1    
   112   55   56 2    
   113   55   57 1    
   114   57   58 1    
   115   57   59 1    
   116   57  180 1    
   117   58  181 1    
   118   58  182 1    
   119   58  183 1    
   120   59   60 am   BACKBONE|DICT|INTERRES
   121   59  184 1    
   122   60   61 2    
   123   60   62 1    
   124   62   63 1    
   125   62   64 1    
   126   62  185 1    
   127   63  186 1    
   128   63  187 1    
   129   63  188 1    
   130   64   65 am   BACKBONE|DICT|INTERRES
   131   64  189 1    
   132   65   66 2    
   133   67   68 2    
   134   67   69 am   BACKBONE|DICT|INTERRES
   135   69   70 1    
   136   69  190 1    
   137   70   71 1    
   138   70   72 1    
   139   70  191 1    
   140   71  192 1    
   141   71  193 1    
   142   71  194 1    
   143   72   73 2    
   144   72   74 am   BACKBONE|DICT|INTERRES
   145   74   75 1    
   146   74  195 1    
   147   75   76 1    
   148   75   77 1    
   149   75  196 1    
   150   76  197 1    
   151   76  198 1    
   152   76  199 1    
   153   77   78 2    
   154   77   79 am   BACKBONE|DICT|INTERRES
   155   79   80 1    
   156   79  200 1    
   157   80   81 1    
   158   80   82 1    
   159   80  201 1    
   160   81  202 1    
   161   81  203 1    
   162   81  204 1    
   163   82   83 2    
   164   82   84 am   BACKBONE|DICT|INTERRES
   165   84   85 1    
   166   84  205 1    
   167   85   86 1    
   168   85   87 1    
   169   85  206 1    
   170   86  207 1    
   171   86  208 1    
   172   86  209 1    
   173   87   88 2    
   174   87   89 am   BACKBONE|DICT|INTERRES
   175   89   90 1    
   176   89  210 1    
   177   90   91 1    
   178   90   92 1    
   179   90  211 1    
   180   91  212 1    
   181   91  213 1    
   182   91  214 1    
   183   92   93 2    
   184   92   94 am   BACKBONE|DICT|INTERRES
   185   94   95 1    
   186   94  215 1    
   187   95   96 1    
   188   95   97 1    
   189   95  216 1    
   190   96  217 1    
   191   96  218 1    
   192   96  219 1    
   193   97   98 2    
   194   97   99 am   BACKBONE|DICT|INTERRES
   195   99  100 1    
   196   99  220 1    
   197  100  101 1    
   198  100  102 1    
   199  100  221 1    
   200  101  222 1    
   201  101  223 1    
   202  101  224 1    
   203  102  103 2    
   204  102  104 am   BACKBONE|DICT|INTERRES
   205  104  105 1    
   206  104  225 1    
   207  105  106 1    
   208  105  107 1    
   209  105  226 1    
   210  106  227 1    
   211  106  228 1    
   212  106  229 1    
   213  107  108 2    
   214  107  109 am   BACKBONE|DICT|INTERRES
   215  109  110 1    
   216  109  230 1    
   217  110  111 1    
   218  110  112 1    
   219  110  231 1    
   220  111  232 1    
   221  111  233 1    
   222  111  234 1    
   223  112  113 2    
   224  112  114 am   BACKBONE|DICT|INTERRES
   225  114  115 1    
   226  114  235 1    
   227  115  116 1    
   228  115  117 1    
   229  115  236 1    
   230  116  237 1    
   231  116  238 1    
   232  116  239 1    
   233  117  118 2    
   234  117  119 am   BACKBONE|DICT|INTERRES
   235  119  120 1    
   236  119  240 1    
   237  120  121 1    
   238  120  124 1    
   239  120  241 1    
   240  121  122 am   BACKBONE|DICT|INTERRES
   241  121  123 2    
   242  122  242 1    
   243  122  243 1    
   244  124  125 1    
   245  124  244 1    
   246  124  245 1    
   247  125  126 1    
   248  126  246 1    
   249  126  247 1    
@<TRIPOS>SUBSTRUCTURE
     1 UNK         1 GROUP             0       ****    0 ROOT    
