@<TRIPOS>MOLECULE
3R540
247   249    1
SMALL
USER_CHARGES


@<TRIPOS>ATOM
      1 CA         -2.5949  -15.7295  -44.1134 C.3       0 UNK        -0.1800 
      2 C          -2.2807  -14.3622  -44.6986 C.2       0 UNK         0.5000 
      3 O          -2.4249  -13.3601  -43.9997 O.2       0 UNK        -0.5000 
      4 N          -1.8255  -14.3254  -45.9602 N.am      1 UNK        -0.5000 
      5 CA         -1.5229  -13.1274  -46.7649 C.3       1 UNK         0.1400 
      6 C6         -0.9332  -13.4972  -48.1486 C.3       23 UNK        -0.0398 
      7 S7         -2.0134  -14.5910  -49.1316 S.3       23 UNK        -0.2404 
      8 C8         -1.0803  -14.6616  -50.6970 C.3       23 UNK        -0.0205 
      9 C9         -0.4177  -16.0146  -50.9230 C.ar      23 UNK        -0.0193 
     10 C10        -0.8134  -16.8140  -52.0001 C.ar      23 UNK        -0.1150 
     11 C11        -0.1989  -18.0468  -52.2347 C.ar      23 UNK        -0.0193 
     12 C12         0.8351  -18.4685  -51.3975 C.ar      23 UNK        -0.1150 
     13 C13         1.2043  -17.7078  -50.2846 C.ar      23 UNK        -0.0193 
     14 C14         0.5902  -16.4701  -50.0660 C.ar      23 UNK        -0.1150 
     15 C15         2.2165  -18.2523  -49.2823 C.3       23 UNK        -0.0205 
     16 S16         1.7926  -19.9229  -48.6601 S.3       23 UNK        -0.2404 
     17 C17        -0.0185  -19.8135  -48.4501 C.3       23 UNK        -0.0398 
     18 CA         -0.6380  -21.0502  -47.7643 C.3       11 UNK         0.1400 
     19 N          -0.1026  -21.2959  -46.4213 N.am      11 UNK        -0.5000 
     20 C          -0.3344  -22.4032  -45.7017 C.2       10 UNK         0.5000 
     21 O          -0.9852  -23.3595  -46.1169 O.2       10 UNK        -0.5000 
     22 CA          0.1963  -22.4252  -44.2576 C.3       10 UNK         0.1400 
     23 CB          1.6534  -22.9078  -44.2184 C.3       10 UNK        -0.1800 
     24 N           0.0848  -21.1145  -43.6163 N.am      10 UNK        -0.5000 
     25 C          -1.0829  -20.5528  -43.2638 C.2       9 UNK         0.5000 
     26 O          -2.1698  -21.1185  -43.3807 O.2       9 UNK        -0.5000 
     27 CA         -1.0397  -19.0971  -42.7537 C.3       9 UNK         0.1400 
     28 CB         -0.8867  -19.0582  -41.2268 C.3       9 UNK        -0.1800 
     29 N           0.0318  -18.3100  -43.3660 N.am      9 UNK        -0.5000 
     30 C           0.1431  -18.0628  -44.6784 C.2       8 UNK         0.5000 
     31 O          -0.7174  -18.3762  -45.4996 O.2       8 UNK        -0.5000 
     32 CA          1.4485  -17.4069  -45.1611 C.3       8 UNK         0.1400 
     33 CB          1.2304  -15.9246  -45.4875 C.3       8 UNK        -0.1800 
     34 N           2.5394  -17.5371  -44.1936 N.am      8 UNK        -0.5000 
     35 C           3.1940  -18.6798  -43.9378 C.2       7 UNK         0.5000 
     36 O           2.8925  -19.7508  -44.4646 O.2       7 UNK        -0.5000 
     37 CA          4.3267  -18.6363  -42.8889 C.3       7 UNK         0.1400 
     38 CB          5.4895  -19.5893  -43.2328 C.3       7 UNK        -0.1800 
     39 N           4.8103  -17.2809  -42.6016 N.am      7 UNK        -0.5000 
     40 C           5.4419  -16.4359  -43.4320 C.2       6 UNK         0.5000 
     41 O           5.8038  -16.7380  -44.5694 O.2       6 UNK        -0.5000 
     42 CA          5.6608  -14.9924  -42.9347 C.3       6 UNK         0.1400 
     43 CB          5.0021  -13.9988  -43.9017 C.3       6 UNK        -0.1800 
     44 N           5.0953  -14.7714  -41.6020 N.am      6 UNK        -0.5000 
     45 C           5.7813  -14.8500  -40.4542 C.2       5 UNK         0.5000 
     46 O           6.9935  -15.0567  -40.3915 O.2       5 UNK        -0.5000 
     47 CA          4.9662  -14.7101  -39.1527 C.3       5 UNK         0.1400 
     48 CB          4.8664  -13.2342  -38.7382 C.3       5 UNK        -0.1800 
     49 N           3.6150  -15.2702  -39.2481 N.am      5 UNK        -0.5000 
     50 C           3.3214  -16.5562  -39.4912 C.2       4 UNK         0.5000 
     51 O           4.1718  -17.4330  -39.6361 O.2       4 UNK        -0.5000 
     52 CA          1.8335  -16.9224  -39.6532 C.3       4 UNK         0.1400 
     53 CB          1.2833  -17.5374  -38.3582 C.3       4 UNK        -0.1800 
     54 N           0.9931  -15.7869  -40.0407 N.am      4 UNK        -0.5000 
     55 C           1.0604  -15.1469  -41.2155 C.2       3 UNK         0.5000 
     56 O           1.8087  -15.5020  -42.1314 O.2       3 UNK        -0.5000 
     57 CA          0.1250  -13.9262  -41.3665 C.3       3 UNK         0.1400 
     58 CB          0.2269  -12.9642  -40.1622 C.3       3 UNK        -0.1800 
     59 N           0.3005  -13.1860  -42.6199 N.am      3 UNK        -0.5000 
     60 C           1.3912  -12.5290  -43.0482 C.2       2 UNK         0.5000 
     61 O           2.4396  -12.4435  -42.4070 O.2       2 UNK        -0.5000 
     62 CA          1.2702  -11.8547  -44.4300 C.3       2 UNK         0.1400 
     63 CB          2.6160  -11.6564  -45.1505 C.3       2 UNK        -0.1800 
     64 N           0.3683  -12.6213  -45.2880 N.am      2 UNK        -0.5000 
     65 C          -0.5894  -12.1103  -46.0690 C.2       1 UNK         0.5000 
     66 O          -0.7677  -10.9036  -46.2391 O.2       1 UNK        -0.5000 
     67 C          -2.1734  -20.9172  -47.7424 C.2       11 UNK         0.5000 
     68 O          -2.8486  -21.4748  -48.6111 O.2       11 UNK        -0.5000 
     69 N          -2.6960  -20.2054  -46.7329 N.am      12 UNK        -0.5000 
     70 CA         -4.1285  -20.0467  -46.4840 C.3       12 UNK         0.1400 
     71 CB         -4.3576  -18.9958  -45.3902 C.3       12 UNK        -0.1800 
     72 C          -4.8295  -21.3729  -46.1390 C.2       12 UNK         0.5000 
     73 O          -5.9487  -21.6031  -46.5959 O.2       12 UNK        -0.5000 
     74 N          -4.1497  -22.2342  -45.3707 N.am      13 UNK        -0.5000 
     75 CA         -4.6007  -23.5926  -45.0720 C.3       13 UNK         0.1400 
     76 CB         -3.7566  -24.1721  -43.9264 C.3       13 UNK        -0.1800 
     77 C          -4.5572  -24.5134  -46.3074 C.2       13 UNK         0.5000 
     78 O          -5.4667  -25.3238  -46.4887 O.2       13 UNK        -0.5000 
     79 N          -3.5045  -24.3770  -47.1261 N.am      14 UNK        -0.5000 
     80 CA         -3.2695  -25.1818  -48.3226 C.3       14 UNK         0.1400 
     81 CB         -1.8206  -24.9978  -48.8016 C.3       14 UNK        -0.1800 
     82 C          -4.2538  -24.8899  -49.4670 C.2       14 UNK         0.5000 
     83 O          -4.8080  -25.8372  -50.0277 O.2       14 UNK        -0.5000 
     84 N          -4.4364  -23.6079  -49.8167 N.am      15 UNK        -0.5000 
     85 CA         -5.2142  -23.2154  -50.9959 C.3       15 UNK         0.1400 
     86 CB         -4.3765  -23.4364  -52.2681 C.3       15 UNK        -0.1800 
     87 C          -5.7508  -21.7773  -50.9679 C.2       15 UNK         0.5000 
     88 O          -6.7728  -21.5289  -51.6069 O.2       15 UNK        -0.5000 
     89 N          -5.0598  -20.8421  -50.2960 N.am      16 UNK        -0.5000 
     90 CA         -5.4128  -19.4137  -50.1874 C.3       16 UNK         0.1400 
     91 CB         -6.6896  -19.2426  -49.3348 C.3       16 UNK        -0.1800 
     92 C          -5.5435  -18.6818  -51.5458 C.2       16 UNK         0.5000 
     93 O          -6.3040  -17.7184  -51.6513 O.2       16 UNK        -0.5000 
     94 N          -4.8309  -19.1805  -52.5671 N.am      17 UNK        -0.5000 
     95 CA         -4.8825  -18.7846  -53.9812 C.3       17 UNK         0.1400 
     96 CB         -4.4438  -17.3183  -54.1674 C.3       17 UNK        -0.1800 
     97 C          -6.2270  -19.0851  -54.6834 C.2       17 UNK         0.5000 
     98 O          -6.4339  -18.6222  -55.8061 O.2       17 UNK        -0.5000 
     99 N          -7.1076  -19.8704  -54.0459 N.am      18 UNK        -0.5000 
    100 CA        -8.4056  -20.2774  -54.5898 C.3       18 UNK         0.1400 
    101 CB        -9.3960  -20.4629  -53.4287 C.3       18 UNK        -0.1800 
    102 C         -8.3166  -21.5603  -55.4401 C.2       18 UNK         0.5000 
    103 O         -9.3010  -21.9221  -56.0867 O.2       18 UNK        -0.5000 
    104 N         -7.1562  -22.2263  -55.4276 N.am      19 UNK        -0.5000 
    105 CA        -6.8604  -23.4371  -56.1820 C.3       19 UNK         0.1400 
    106 CB        -7.0961  -24.6638  -55.2841 C.3       19 UNK        -0.1800 
    107 C         -5.4048  -23.3872  -56.6626 C.2       19 UNK         0.5000 
    108 O         -4.5739  -22.7114  -56.0473 O.2       19 UNK        -0.5000 
    109 N         -5.1128  -24.1501  -57.7251 N.am      20 UNK        -0.5000 
    110 CA        -3.7887  -24.2821  -58.3466 C.3       20 UNK         0.1400 
    111 CB        -3.9224  -25.1079  -59.6351 C.3       20 UNK        -0.1800 
    112 C         -2.7156  -24.8948  -57.4236 C.2       20 UNK         0.5000 
    113 O         -1.5237  -24.6850  -57.6547 O.2       20 UNK        -0.5000 
    114 N         -3.1556  -25.5912  -56.3650 N.am      21 UNK        -0.5000 
    115 CA        -2.3347  -26.1370  -55.2806 C.3       21 UNK         0.1400 
    116 CB        -3.2427  -26.9349  -54.3314 C.3       21 UNK        -0.1800 
    117 C         -1.5205  -25.0801  -54.5014 C.2       21 UNK         0.5000 
    118 O         -0.5619  -25.4476  -53.8210 O.2       21 UNK        -0.5000 
    119 N         -1.8869  -23.7964  -54.6338 N.am      22 UNK        -0.5000 
    120 CA        -1.0912  -22.6491  -54.1710 C.3       22 UNK         0.1400 
    121 C          0.2531  -22.4497  -54.9376 C.2       22 UNK         0.5000 
    122 N          0.4319  -23.0093  -56.1299 N.am      22 UNK        -0.7600 
    123 O          1.1564  -21.7860  -54.4382 O.2       22 UNK        -0.5000 
    124 C124       -1.9370  -21.3449  -54.1675 C.3       23 UNK        -0.0398 
    125 S125       -1.6570  -20.3313  -52.6791 S.3       23 UNK        -0.2404 
    126 C126       -0.6743  -18.9554  -53.3556 C.3       23 UNK        -0.0205 
    127 H127       -3.6244  -15.7607  -43.7571 H         1 UNK         0.0600 
    128 H128       -1.9337  -15.9412  -43.2732 H         1 UNK         0.0600 
    129 H129       -2.4691  -16.5166  -44.8538 H         1 UNK         0.0600 
    130 H130       -1.7608  -15.1941  -46.4720 H         1 UNK         0.3000 
    131 H131       -2.4747  -12.6180  -46.9286 H         1 UNK         0.0600 
    132 H132        0.0388  -13.9795  -48.0348 H         1 UNK         0.0800 
    133 H133       -0.7596  -12.5913  -48.7331 H         1 UNK         0.0800 
    134 H134       -1.7702  -14.4354  -51.5115 H         1 UNK         0.0800 
    135 H135       -0.3177  -13.8824  -50.7283 H         1 UNK         0.0800 
    136 H136       -1.6045  -16.4769  -52.6525 H         1 UNK         0.1150 
    137 H137        1.2990  -19.4303  -51.5682 H         1 UNK         0.1150 
    138 H138        0.8793  -15.8700  -49.2156 H         1 UNK         0.1150 
    139 H139        3.1999  -18.2879  -49.7523 H         1 UNK         0.0800 
    140 H140        2.3080  -17.5786  -48.4296 H         1 UNK         0.0800 
    141 H141       -0.2532  -18.8951  -47.9127 H         1 UNK         0.0800 
    142 H142       -0.4677  -19.7052  -49.4380 H         1 UNK         0.0800 
    143 H143       -0.3986  -21.9228  -48.3755 H         1 UNK         0.0600 
    144 H144        0.4320  -20.5469  -46.0070 H         1 UNK         0.3000 
    145 H145       -0.4084  -23.1346  -43.6886 H         1 UNK         0.0600 
    146 H146        2.0431  -22.9118  -43.2004 H         1 UNK         0.0600 
    147 H147        1.7331  -23.9258  -44.6017 H         1 UNK         0.0600 
    148 H148        2.3057  -22.2811  -44.8268 H         1 UNK         0.0600 
    149 H149        0.9383  -20.5783  -43.5345 H         1 UNK         0.3000 
    150 H150       -1.9900  -18.6273  -43.0139 H         1 UNK         0.0600 
    151 H151       -1.6894  -19.6143  -40.7407 H         1 UNK         0.0600 
    152 H152       -0.9305  -18.0351  -40.8530 H         1 UNK         0.0600 
    153 H153        0.0580  -19.4972  -40.9041 H         1 UNK         0.0600 
    154 H154        0.7745  -17.9917  -42.7621 H         1 UNK         0.3000 
    155 H155        1.7479  -17.9163  -46.0787 H         1 UNK         0.0600 
    156 H156        0.5193  -15.8161  -46.3063 H         1 UNK         0.0600 
    157 H157        2.1592  -15.4459  -45.7989 H         1 UNK         0.0600 
    158 H158        0.8409  -15.3825  -44.6265 H         1 UNK         0.0600 
    159 H159        2.7677  -16.7097  -43.6558 H         1 UNK         0.3000 
    160 H160        3.8803  -18.9943  -41.9605 H         1 UNK         0.0600 
    161 H161        6.2756  -19.5399  -42.4795 H         1 UNK         0.0600 
    162 H162        5.9346  -19.3571  -44.2005 H         1 UNK         0.0600 
    163 H163        5.1468  -20.6239  -43.2746 H         1 UNK         0.0600 
    164 H164        4.6011  -16.9467  -41.6691 H         1 UNK         0.3000 
    165 H165        6.7359  -14.8026  -42.9265 H         1 UNK         0.0600 
    166 H166        3.9352  -14.2012  -44.0011 H         1 UNK         0.0600 
    167 H167        5.1194  -12.9714  -43.5564 H         1 UNK         0.0600 
    168 H168        5.4439  -14.0600  -44.8969 H         1 UNK         0.0600 
    169 H169        4.1004  -14.5878  -41.5658 H         1 UNK         0.3000 
    170 H170        5.4983  -15.2532  -38.3689 H         1 UNK         0.0600 
    171 H171        5.8569  -12.7885  -38.6384 H         1 UNK         0.0600 
    172 H172        4.3142  -12.6467  -39.4734 H         1 UNK         0.0600 
    173 H173        4.3647  -13.1269  -37.7764 H         1 UNK         0.0600 
    174 H174        2.8508  -14.6193  -39.1473 H         1 UNK         0.3000 
    175 H175        1.7710  -17.6743  -40.4420 H         1 UNK         0.0600 
    176 H176        1.3080  -16.8256  -37.5322 H         1 UNK         0.0600 
    177 H177        0.2530  -17.8702  -38.4846 H         1 UNK         0.0600 
    178 H178        1.8691  -18.4078  -38.0593 H         1 UNK         0.0600 
    179 H179        0.3459  -15.4534  -39.3408 H         1 UNK         0.3000 
    180 H180       -0.8915  -14.3208  -41.3959 H         1 UNK         0.0600 
    181 H181        1.2499  -12.6234  -39.9985 H         1 UNK         0.0600 
    182 H182       -0.1130  -13.4357  -39.2399 H         1 UNK         0.0600 
    183 H183       -0.3959  -12.0821  -40.3120 H         1 UNK         0.0600 
    184 H184       -0.5247  -13.1529  -43.2089 H         1 UNK         0.3000 
    185 H185        0.8451  -10.8683  -44.2333 H         1 UNK         0.0600 
    186 H186        3.3425  -11.1505  -44.5136 H         1 UNK         0.0600 
    187 H187        3.0467  -12.6066  -45.4638 H         1 UNK         0.0600 
    188 H188        2.4903  -11.0439  -46.0433 H         1 UNK         0.0600 
    189 H189        0.4357  -13.6253  -45.2078 H         1 UNK         0.3000 
    190 H190       -2.0624  -19.7282  -46.0993 H         1 UNK         0.3000 
    191 H191       -4.5759  -19.6683  -47.4013 H         1 UNK         0.0600 
    192 H192       -3.9774  -18.0245  -45.7026 H         1 UNK         0.0600 
    193 H193       -5.4213  -18.8737  -45.1822 H         1 UNK         0.0600 
    194 H194       -3.8695  -19.2692  -44.4554 H         1 UNK         0.0600 
    195 H195       -3.2648  -21.9440  -44.9705 H         1 UNK         0.3000 
    196 H196       -5.6372  -23.5393  -44.7321 H         1 UNK         0.0600 
    197 H197       -4.0993  -25.1718  -43.6570 H         1 UNK         0.0600 
    198 H198       -3.8264  -23.5516  -43.0328 H         1 UNK         0.0600 
    199 H199       -2.7038  -24.2485  -44.1981 H         1 UNK         0.0600 
    200 H200       -2.7613  -23.7388  -46.8604 H         1 UNK         0.3000 
    201 H201       -3.3925  -26.2307  -48.0441 H         1 UNK         0.0600 
    202 H202       -1.1099  -25.3165  -48.0391 H         1 UNK         0.0600 
    203 H203       -1.6053  -23.9581  -49.0476 H         1 UNK         0.0600 
    204 H204       -1.6251  -25.5925  -49.6949 H         1 UNK         0.0600 
    205 H205       -3.9515  -22.8791  -49.3011 H         1 UNK         0.3000 
    206 H206       -6.0985  -23.8538  -51.0554 H         1 UNK         0.0600 
    207 H207       -3.4181  -22.9233  -52.1975 H         1 UNK         0.0600 
    208 H208       -4.1722  -24.4938  -52.4288 H         1 UNK         0.0600 
    209 H209       -4.8893  -23.0686  -53.1577 H         1 UNK         0.0600 
    210 H210       -4.2091  -21.1123  -49.8090 H         1 UNK         0.3000 
    211 H211       -4.5858  -18.9331  -49.6634 H         1 UNK         0.0600 
    212 H212       -7.5800  -19.5644  -49.8763 H         1 UNK         0.0600 
    213 H213       -6.8372  -18.1986  -49.0561 H         1 UNK         0.0600 
    214 H214       -6.6447  -19.8195  -48.4136 H         1 UNK         0.0600 
    215 H215       -4.2146  -19.9539  -52.3594 H         1 UNK         0.3000 
    216 H216       -4.1454  -19.4059  -54.4898 H         1 UNK         0.0600 
    217 H217       -3.5011  -17.1247  -53.6605 H         1 UNK         0.0600 
    218 H218       -5.1838  -16.6183  -53.7793 H         1 UNK         0.0600 
    219 H219       -4.2970  -17.0839  -55.2222 H         1 UNK         0.0600 
    220 H220       -6.8755  -20.2429  -53.1299 H         1 UNK         0.3000 
    221 H221       -8.7922  -19.4843  -55.2333 H         1 UNK         0.0600 
    222 H222       -9.1189  -21.3024  -52.7908 H         1 UNK         0.0600 
    223 H223       -9.4471  -19.5698  -52.8054 H         1 UNK         0.0600 
    224 H224      -10.4021  -20.6568  -53.8022 H         1 UNK         0.0600 
    225 H225       -6.3711  -21.8338  -54.9267 H         1 UNK         0.3000 
    226 H226       -7.5066  -23.4974  -57.0604 H         1 UNK         0.0600 
    227 H227       -8.1302  -24.7066  -54.9415 H         1 UNK         0.0600 
    228 H228       -6.8952  -25.5912  -55.8215 H         1 UNK         0.0600 
    229 H229       -6.4541  -24.6477  -54.4024 H         1 UNK         0.0600 
    230 H230       -5.8555  -24.6818  -58.1566 H         1 UNK         0.3000 
    231 H231       -3.4473  -23.2802  -58.6151 H         1 UNK         0.0600 
    232 H232       -2.9607  -25.2019  -60.1415 H         1 UNK         0.0600 
    233 H233       -4.6114  -24.6370  -60.3366 H         1 UNK         0.0600 
    234 H234       -4.2856  -26.1159  -59.4309 H         1 UNK         0.0600 
    235 H235       -4.1528  -25.7082  -56.2687 H         1 UNK         0.3000 
    236 H236       -1.6154  -26.8263  -55.7271 H         1 UNK         0.0600 
    237 H237       -3.7073  -27.7758  -54.8467 H         1 UNK         0.0600 
    238 H238       -4.0392  -26.3152  -53.9194 H         1 UNK         0.0600 
    239 H239       -2.6762  -27.3433  -53.4934 H         1 UNK         0.0600 
    240 H240       -2.6960  -23.5798  -55.2024 H         1 UNK         0.3000 
    241 H241       -0.8148  -22.8812  -53.1404 H         1 UNK         0.0600 
    242 H242        1.3091  -22.8760  -56.6074 H         1 UNK         0.3800 
    243 H243       -0.2903  -23.5739  -56.5655 H         1 UNK         0.3800 
    244 H244       -3.0005  -21.5826  -54.1705 H         1 UNK         0.0800 
    245 H245       -1.7811  -20.7525  -55.0712 H         1 UNK         0.0800 
    246 H246        0.1887  -19.3448  -53.8966 H         1 UNK         0.0800 
    247 H247       -1.2733  -18.3993  -54.0781 H         1 UNK         0.0800 
@<TRIPOS>BOND
     1    1    2 1    
     2    1  127 1    
     3    1  128 1    
     4    1  129 1    
     5    2    3 2    
     6    2    4 am   BACKBONE|DICT|INTERRES
     7    4    5 1    
     8    4  130 1    
     9    5    6 1    
    10    5   65 1    
    11    5  131 1    
    12    6    7 1    
    13    6  132 1    
    14    6  133 1    
    15    7    8 1    
    16    8    9 1    
    17    8  134 1    
    18    8  135 1    
    19    9   10 ar   
    20    9   14 ar   
    21   10   11 ar   
    22   10  136 1    
    23   11   12 ar   
    24   11  126 1    
    25   12   13 ar   
    26   12  137 1    
    27   13   14 ar   
    28   13   15 1    
    29   14  138 1    
    30   15   16 1    
    31   15  139 1    
    32   15  140 1    
    33   16   17 1    
    34   17   18 1    
    35   17  141 1    
    36   17  142 1    
    37   18   19 1    
    38   18   67 1    
    39   18  143 1    
    40   19   20 am   BACKBONE|DICT|INTERRES
    41   19  144 1    
    42   20   21 2    
    43   20   22 1    
    44   22   23 1    
    45   22   24 1    
    46   22  145 1    
    47   23  146 1    
    48   23  147 1    
    49   23  148 1    
    50   24   25 am   BACKBONE|DICT|INTERRES
    51   24  149 1    
    52   25   26 2    
    53   25   27 1    
    54   27   28 1    
    55   27   29 1    
    56   27  150 1    
    57   28  151 1    
    58   28  152 1    
    59   28  153 1    
    60   29   30 am   BACKBONE|DICT|INTERRES
    61   29  154 1    
    62   30   31 2    
    63   30   32 1    
    64   32   33 1    
    65   32   34 1    
    66   32  155 1    
    67   33  156 1    
    68   33  157 1    
    69   33  158 1    
    70   34   35 am   BACKBONE|DICT|INTERRES
    71   34  159 1    
    72   35   36 2    
    73   35   37 1    
    74   37   38 1    
    75   37   39 1    
    76   37  160 1    
    77   38  161 1    
    78   38  162 1    
    79   38  163 1    
    80   39   40 am   BACKBONE|DICT|INTERRES
    81   39  164 1    
    82   40   41 2    
    83   40   42 1    
    84   42   43 1    
    85   42   44 1    
    86   42  165 1    
    87   43  166 1    
    88   43  167 1    
    89   43  168 1    
    90   44   45 am   BACKBONE|DICT|INTERRES
    91   44  169 1    
    92   45   46 2    
    93   45   47 1    
    94   47   48 1    
    95   47   49 1    
    96   47  170 1    
    97   48  171 1    
    98   48  172 1    
    99   48  173 1    
   100   49   50 am   BACKBONE|DICT|INTERRES
   101   49  174 1    
   102   50   51 2    
   103   50   52 1    
   104   52   53 1    
   105   52   54 1    
   106   52  175 1    
   107   53  176 1    
   108   53  177 1    
   109   53  178 1    
   110   54   55 am   BACKBONE|DICT|INTERRES
   111   54  179 1    
   112   55   56 2    
   113   55   57 1    
   114   57   58 1    
   115   57   59 1    
   116   57  180 1    
   117   58  181 1    
   118   58  182 1    
   119   58  183 1    
   120   59   60 am   BACKBONE|DICT|INTERRES
   121   59  184 1    
   122   60   61 2    
   123   60   62 1    
   124   62   63 1    
   125   62   64 1    
   126   62  185 1    
   127   63  186 1    
   128   63  187 1    
   129   63  188 1    
   130   64   65 am   BACKBONE|DICT|INTERRES
   131   64  189 1    
   132   65   66 2    
   133   67   68 2    
   134   67   69 am   BACKBONE|DICT|INTERRES
   135   69   70 1    
   136   69  190 1    
   137   70   71 1    
   138   70   72 1    
   139   70  191 1    
   140   71  192 1    
   141   71  193 1    
   142   71  194 1    
   143   72   73 2    
   144   72   74 am   BACKBONE|DICT|INTERRES
   145   74   75 1    
   146   74  195 1    
   147   75   76 1    
   148   75   77 1    
   149   75  196 1    
   150   76  197 1    
   151   76  198 1    
   152   76  199 1    
   153   77   78 2    
   154   77   79 am   BACKBONE|DICT|INTERRES
   155   79   80 1    
   156   79  200 1    
   157   80   81 1    
   158   80   82 1    
   159   80  201 1    
   160   81  202 1    
   161   81  203 1    
   162   81  204 1    
   163   82   83 2    
   164   82   84 am   BACKBONE|DICT|INTERRES
   165   84   85 1    
   166   84  205 1    
   167   85   86 1    
   168   85   87 1    
   169   85  206 1    
   170   86  207 1    
   171   86  208 1    
   172   86  209 1    
   173   87   88 2    
   174   87   89 am   BACKBONE|DICT|INTERRES
   175   89   90 1    
   176   89  210 1    
   177   90   91 1    
   178   90   92 1    
   179   90  211 1    
   180   91  212 1    
   181   91  213 1    
   182   91  214 1    
   183   92   93 2    
   184   92   94 am   BACKBONE|DICT|INTERRES
   185   94   95 1    
   186   94  215 1    
   187   95   96 1    
   188   95   97 1    
   189   95  216 1    
   190   96  217 1    
   191   96  218 1    
   192   96  219 1    
   193   97   98 2    
   194   97   99 am   BACKBONE|DICT|INTERRES
   195   99  100 1    
   196   99  220 1    
   197  100  101 1    
   198  100  102 1    
   199  100  221 1    
   200  101  222 1    
   201  101  223 1    
   202  101  224 1    
   203  102  103 2    
   204  102  104 am   BACKBONE|DICT|INTERRES
   205  104  105 1    
   206  104  225 1    
   207  105  106 1    
   208  105  107 1    
   209  105  226 1    
   210  106  227 1    
   211  106  228 1    
   212  106  229 1    
   213  107  108 2    
   214  107  109 am   BACKBONE|DICT|INTERRES
   215  109  110 1    
   216  109  230 1    
   217  110  111 1    
   218  110  112 1    
   219  110  231 1    
   220  111  232 1    
   221  111  233 1    
   222  111  234 1    
   223  112  113 2    
   224  112  114 am   BACKBONE|DICT|INTERRES
   225  114  115 1    
   226  114  235 1    
   227  115  116 1    
   228  115  117 1    
   229  115  236 1    
   230  116  237 1    
   231  116  238 1    
   232  116  239 1    
   233  117  118 2    
   234  117  119 am   BACKBONE|DICT|INTERRES
   235  119  120 1    
   236  119  240 1    
   237  120  121 1    
   238  120  124 1    
   239  120  241 1    
   240  121  122 am   BACKBONE|DICT|INTERRES
   241  121  123 2    
   242  122  242 1    
   243  122  243 1    
   244  124  125 1    
   245  124  244 1    
   246  124  245 1    
   247  125  126 1    
   248  126  246 1    
   249  126  247 1    
@<TRIPOS>SUBSTRUCTURE
     1 UNK         1 GROUP             0       ****    0 ROOT    
