@<TRIPOS>MOLECULE
3R540
247   249    1
SMALL
USER_CHARGES


@<TRIPOS>ATOM
      1 CA         -3.4254  -13.8829  -43.4095 C.3       0 UNK        -0.1800 
      2 C          -3.0471  -13.1086  -44.6639 C.2       0 UNK         0.5000 
      3 O          -3.7946  -12.2218  -45.0768 O.2       0 UNK        -0.5000 
      4 N          -1.9000  -13.4299  -45.2711 N.am      1 UNK        -0.5000 
      5 CA         -1.4000  -12.8017  -46.4929 C.3       1 UNK         0.1400 
      6 C6         -2.1774  -13.2380  -47.7655 C.3       23 UNK        -0.0398 
      7 S7         -1.9787  -14.9926  -48.2515 S.3       23 UNK        -0.2404 
      8 C8         -1.0421  -14.7755  -49.7965 C.3       23 UNK        -0.0205 
      9 C9         -0.7927  -16.0916  -50.5140 C.ar      23 UNK        -0.0193 
     10 C10        -1.8275  -16.7055  -51.2236 C.ar      23 UNK        -0.1150 
     11 C11        -1.6016  -17.8885  -51.9340 C.ar      23 UNK        -0.0193 
     12 C12        -0.3217  -18.4495  -51.9387 C.ar      23 UNK        -0.1150 
     13 C13         0.7224  -17.8506  -51.2248 C.ar      23 UNK        -0.0193 
     14 C14         0.4777  -16.6742  -50.5089 C.ar      23 UNK        -0.1150 
     15 C15         2.1256  -18.4452  -51.2552 C.3       23 UNK        -0.0205 
     16 S16         2.1688  -20.2155  -50.8296 S.3       23 UNK        -0.2404 
     17 C17         1.6563  -20.1785  -49.0818 C.3       23 UNK        -0.0398 
     18 CA          1.6041  -21.5966  -48.4560 C.3       11 UNK         0.1400 
     19 N           1.9407  -21.5516  -47.0280 N.am      11 UNK        -0.5000 
     20 C           2.4757  -22.5659  -46.3360 C.2       10 UNK         0.5000 
     21 O           2.7879  -23.6466  -46.8367 O.2       10 UNK        -0.5000 
     22 CA          2.6696  -22.3458  -44.8246 C.3       10 UNK         0.1400 
     23 CB          3.9518  -21.5440  -44.5573 C.3       10 UNK        -0.1800 
     24 N           1.5307  -21.6875  -44.1767 N.am      10 UNK        -0.5000 
     25 C           0.3031  -22.2191  -44.0705 C.2       9 UNK         0.5000 
     26 O          -0.0165  -23.3033  -44.5565 O.2       9 UNK        -0.5000 
     27 CA         -0.7546  -21.3959  -43.3157 C.3       9 UNK         0.1400 
     28 CB         -0.5383  -21.4870  -41.7979 C.3       9 UNK        -0.1800 
     29 N          -0.7571  -19.9967  -43.7344 N.am      9 UNK        -0.5000 
     30 C          -1.2218  -19.5678  -44.9148 C.2       8 UNK         0.5000 
     31 O          -1.7924  -20.2968  -45.7258 O.2       8 UNK        -0.5000 
     32 CA         -0.9906  -18.0884  -45.2717 C.3       8 UNK         0.1400 
     33 CB         -2.1409  -17.2193  -44.7537 C.3       8 UNK        -0.1800 
     34 N           0.2909  -17.5728  -44.7882 N.am      8 UNK        -0.5000 
     35 C           1.4761  -18.0277  -45.2201 C.2       7 UNK         0.5000 
     36 O           1.6003  -18.9021  -46.0777 O.2       7 UNK        -0.5000 
     37 CA          2.7363  -17.4593  -44.5518 C.3       7 UNK         0.1400 
     38 CB          3.1966  -16.1742  -45.2436 C.3       7 UNK        -0.1800 
     39 N           2.5616  -17.2299  -43.1178 N.am      7 UNK        -0.5000 
     40 C           2.4457  -18.2216  -42.2238 C.2       6 UNK         0.5000 
     41 O           2.4817  -19.4169  -42.5184 O.2       6 UNK        -0.5000 
     42 CA          2.1964  -17.8070  -40.7646 C.3       6 UNK         0.1400 
     43 CB          3.4510  -17.1701  -40.1470 C.3       6 UNK        -0.1800 
     44 N           1.0659  -16.8894  -40.6320 N.am      6 UNK        -0.5000 
     45 C          -0.2007  -17.1838  -40.9588 C.2       5 UNK         0.5000 
     46 O          -0.5568  -18.2702  -41.4102 O.2       5 UNK        -0.5000 
     47 CA         -1.2496  -16.0746  -40.7696 C.3       5 UNK         0.1400 
     48 CB         -1.9223  -16.2001  -39.3948 C.3       5 UNK        -0.1800 
     49 N          -0.7102  -14.7228  -40.9172 N.am      5 UNK        -0.5000 
     50 C          -0.1772  -14.2203  -42.0386 C.2       4 UNK         0.5000 
     51 O          -0.0805  -14.8608  -43.0891 O.2       4 UNK        -0.5000 
     52 CA          0.2708  -12.7429  -41.9824 C.3       4 UNK         0.1400 
     53 CB          0.6187  -12.2551  -40.5574 C.3       4 UNK        -0.1800 
     54 N           1.3692  -12.4309  -42.8988 N.am      4 UNK        -0.5000 
     55 C           2.5922  -12.9788  -42.9213 C.2       3 UNK         0.5000 
     56 O           2.9577  -13.9022  -42.1901 O.2       3 UNK        -0.5000 
     57 CA          3.5387  -12.3910  -43.9785 C.3       3 UNK         0.1400 
     58 CB          4.9630  -12.9771  -43.9390 C.3       3 UNK        -0.1800 
     59 N           2.9250  -12.5784  -45.2886 N.am      3 UNK        -0.5000 
     60 C           3.1287  -11.8325  -46.3762 C.2       2 UNK         0.5000 
     61 O           3.9340  -10.9020  -46.4252 O.2       2 UNK        -0.5000 
     62 CA          2.2620  -12.1530  -47.6119 C.3       2 UNK         0.1400 
     63 CB          2.7396  -13.4361  -48.3211 C.3       2 UNK        -0.1800 
     64 N           0.8137  -12.1813  -47.3462 N.am      2 UNK        -0.5000 
     65 C           0.1153  -13.0476  -46.5970 C.2       1 UNK         0.5000 
     66 O           0.6190  -13.9984  -45.9965 O.2       1 UNK        -0.5000 
     67 C           0.2448  -22.2928  -48.7126 C.2       11 UNK         0.5000 
     68 O          -0.0893  -22.5783  -49.8626 O.2       11 UNK        -0.5000 
     69 N          -0.5152  -22.5502  -47.6366 N.am      12 UNK        -0.5000 
     70 CA         -1.8472  -23.1577  -47.6010 C.3       12 UNK         0.1400 
     71 CB         -1.7946  -24.6255  -48.0539 C.3       12 UNK        -0.1800 
     72 C          -2.9101  -22.3254  -48.3466 C.2       12 UNK         0.5000 
     73 O          -3.8729  -22.8736  -48.8880 O.2       12 UNK        -0.5000 
     74 N          -2.7433  -20.9979  -48.2995 N.am      13 UNK        -0.5000 
     75 CA         -3.7281  -19.9952  -48.6983 C.3       13 UNK         0.1400 
     76 CB         -3.0714  -18.6099  -48.6715 C.3       13 UNK        -0.1800 
     77 C          -4.9484  -20.0252  -47.7631 C.2       13 UNK         0.5000 
     78 O          -6.0790  -19.8850  -48.2273 O.2       13 UNK        -0.5000 
     79 N          -4.6932  -20.2973  -46.4739 N.am      14 UNK        -0.5000 
     80 CA         -5.6947  -20.5245  -45.4300 C.3       14 UNK         0.1400 
     81 CB         -4.9729  -20.6265  -44.0772 C.3       14 UNK        -0.1800 
     82 C          -6.5716  -21.7727  -45.6735 C.2       14 UNK         0.5000 
     83 O          -7.6808  -21.8438  -45.1448 O.2       14 UNK        -0.5000 
     84 N          -6.0746  -22.7137  -46.4887 N.am      15 UNK        -0.5000 
     85 CA         -6.7803  -23.9111  -46.9480 C.3       15 UNK         0.1400 
     86 CB         -5.8059  -25.1002  -46.9076 C.3       15 UNK        -0.1800 
     87 C          -7.3854  -23.7186  -48.3566 C.2       15 UNK         0.5000 
     88 O          -7.6948  -24.7086  -49.0197 O.2       15 UNK        -0.5000 
     89 N          -7.5442  -22.4572  -48.7870 N.am      16 UNK        -0.5000 
     90 CA         -8.0788  -22.0111  -50.0765 C.3       16 UNK         0.1400 
     91 CB         -9.5361  -22.4792  -50.2803 C.3       16 UNK        -0.1800 
     92 C          -7.1470  -22.3527  -51.2563 C.2       16 UNK         0.5000 
     93 O          -7.6090  -22.8433  -52.2880 O.2       16 UNK        -0.5000 
     94 N          -5.8511  -22.0521  -51.0771 N.am      17 UNK        -0.5000 
     95 CA         -4.7629  -22.1813  -52.0557 C.3       17 UNK         0.1400 
     96 CB         -5.0275  -21.2715  -53.2760 C.3       17 UNK        -0.1800 
     97 C          -4.4995  -23.6534  -52.4316 C.2       17 UNK         0.5000 
     98 O          -4.4555  -24.0020  -53.6131 O.2       17 UNK        -0.5000 
     99 N          -4.3786  -24.5027  -51.4025 N.am      18 UNK        -0.5000 
    100 CA        -4.2933  -25.9557  -51.5494 C.3       18 UNK         0.1400 
    101 CB        -4.6395  -26.6263  -50.2117 C.3       18 UNK        -0.1800 
    102 C         -2.9268  -26.4430  -52.0633 C.2       18 UNK         0.5000 
    103 O         -2.8835  -27.2987  -52.9482 O.2       18 UNK        -0.5000 
    104 N         -1.8402  -25.9140  -51.4855 N.am      19 UNK        -0.5000 
    105 CA        -0.4689  -26.3491  -51.7689 C.3       19 UNK         0.1400 
    106 CB         0.3892  -26.2011  -50.5027 C.3       19 UNK        -0.1800 
    107 C          0.1677  -25.5844  -52.9406 C.2       19 UNK         0.5000 
    108 O          1.0414  -26.1332  -53.6138 O.2       19 UNK        -0.5000 
    109 N         -0.2757  -24.3449  -53.1701 N.am      20 UNK        -0.5000 
    110 CA         0.1681  -23.4802  -54.2541 C.3       20 UNK         0.1400 
    111 CB         1.3948  -22.6679  -53.8087 C.3       20 UNK        -0.1800 
    112 C         -0.9936  -22.5591  -54.6355 C.2       20 UNK         0.5000 
    113 O         -1.6888  -22.0610  -53.7475 O.2       20 UNK        -0.5000 
    114 N         -1.1754  -22.3529  -55.9439 N.am      21 UNK        -0.5000 
    115 CA        -2.1852  -21.4649  -56.5150 C.3       21 UNK         0.1400 
    116 CB        -2.3858  -21.8391  -57.9926 C.3       21 UNK        -0.1800 
    117 C         -1.7851  -19.9838  -56.3836 C.2       21 UNK         0.5000 
    118 O         -0.6002  -19.6679  -56.2460 O.2       21 UNK        -0.5000 
    119 N         -2.7816  -19.1022  -56.4781 N.am      22 UNK        -0.5000 
    120 CA        -2.6319  -17.6433  -56.4635 C.3       22 UNK         0.1400 
    121 C         -3.8291  -16.9480  -57.1687 C.2       22 UNK         0.5000 
    122 N         -3.7256  -15.6573  -57.4560 N.am      22 UNK        -0.7600 
    123 O         -4.8521  -17.5641  -57.4648 O.2       22 UNK        -0.5000 
    124 C124       -2.3434  -17.0814  -55.0439 C.3       23 UNK        -0.0398 
    125 S125       -3.6351  -17.4672  -53.8077 S.3       23 UNK        -0.2404 
    126 C126       -2.7399  -18.5788  -52.6743 C.3       23 UNK        -0.0205 
    127 H127       -2.8337  -14.7896  -43.3029 H         1 UNK         0.0600 
    128 H128       -4.4751  -14.1738  -43.4488 H         1 UNK         0.0600 
    129 H129       -3.2740  -13.2656  -42.5242 H         1 UNK         0.0600 
    130 H130       -1.2699  -14.1248  -44.8799 H         1 UNK         0.3000 
    131 H131       -1.5281  -11.7235  -46.3740 H         1 UNK         0.0600 
    132 H132       -3.2433  -13.0557  -47.6266 H         1 UNK         0.0800 
    133 H133       -1.8940  -12.5952  -48.6000 H         1 UNK         0.0800 
    134 H134       -1.5923  -14.1100  -50.4634 H         1 UNK         0.0800 
    135 H135       -0.0976  -14.2778  -49.5747 H         1 UNK         0.0800 
    136 H136       -2.8130  -16.2614  -51.2198 H         1 UNK         0.1150 
    137 H137       -0.1371  -19.3602  -52.4921 H         1 UNK         0.1150 
    138 H138        1.2811  -16.1982  -49.9643 H         1 UNK         0.1150 
    139 H139        2.5326  -18.3185  -52.2591 H         1 UNK         0.0800 
    140 H140        2.7934  -17.9053  -50.5821 H         1 UNK         0.0800 
    141 H141        0.7035  -19.6553  -48.9778 H         1 UNK         0.0800 
    142 H142        2.3921  -19.5637  -48.5615 H         1 UNK         0.0800 
    143 H143        2.3626  -22.2112  -48.9460 H         1 UNK         0.0600 
    144 H144        1.7500  -20.6715  -46.5514 H         1 UNK         0.3000 
    145 H145        2.7865  -23.3283  -44.3625 H         1 UNK         0.0600 
    146 H146        4.1463  -21.4550  -43.4884 H         1 UNK         0.0600 
    147 H147        4.8186  -22.0312  -45.0055 H         1 UNK         0.0600 
    148 H148        3.8895  -20.5381  -44.9722 H         1 UNK         0.0600 
    149 H149        1.7229  -20.8013  -43.7187 H         1 UNK         0.3000 
    150 H150       -1.7339  -21.8240  -43.5399 H         1 UNK         0.0600 
    151 H151       -0.5278  -22.5255  -41.4652 H         1 UNK         0.0600 
    152 H152       -1.3379  -20.9803  -41.2574 H         1 UNK         0.0600 
    153 H153        0.4068  -21.0339  -41.4961 H         1 UNK         0.0600 
    154 H154       -0.3722  -19.3249  -43.0776 H         1 UNK         0.3000 
    155 H155       -0.9768  -18.0138  -46.3607 H         1 UNK         0.0600 
    156 H156       -2.1748  -17.2063  -43.6650 H         1 UNK         0.0600 
    157 H157       -2.0366  -16.1951  -45.1070 H         1 UNK         0.0600 
    158 H158       -3.1038  -17.5877  -45.1101 H         1 UNK         0.0600 
    159 H159        0.2663  -16.8245  -44.1052 H         1 UNK         0.3000 
    160 H160        3.5284  -18.1988  -44.6828 H         1 UNK         0.0600 
    161 H161        2.5721  -15.3291  -44.9621 H         1 UNK         0.0600 
    162 H162        3.1601  -16.2713  -46.3293 H         1 UNK         0.0600 
    163 H163        4.2267  -15.9462  -44.9774 H         1 UNK         0.0600 
    164 H164        2.4890  -16.2700  -42.8056 H         1 UNK         0.3000 
    165 H165        1.9607  -18.7112  -40.1993 H         1 UNK         0.0600 
    166 H166        3.3072  -16.9668  -39.0858 H         1 UNK         0.0600 
    167 H167        4.3106  -17.8358  -40.2360 H         1 UNK         0.0600 
    168 H168        3.7112  -16.2300  -40.6354 H         1 UNK         0.0600 
    169 H169        1.2705  -15.9597  -40.2970 H         1 UNK         0.3000 
    170 H170       -2.0161  -16.2148  -41.5326 H         1 UNK         0.0600 
    171 H171       -1.2119  -16.0413  -38.5825 H         1 UNK         0.0600 
    172 H172       -2.7298  -15.4763  -39.2828 H         1 UNK         0.0600 
    173 H173       -2.3566  -17.1920  -39.2619 H         1 UNK         0.0600 
    174 H174       -0.7594  -14.1303  -40.1012 H         1 UNK         0.3000 
    175 H175       -0.5834  -12.1614  -42.3315 H         1 UNK         0.0600 
    176 H176        0.9742  -11.2247  -40.5738 H         1 UNK         0.0600 
    177 H177        1.3981  -12.8649  -40.0986 H         1 UNK         0.0600 
    178 H178       -0.2519  -12.2743  -39.9012 H         1 UNK         0.0600 
    179 H179        1.1682  -11.7164  -43.5831 H         1 UNK         0.3000 
    180 H180        3.6105  -11.3206  -43.7743 H         1 UNK         0.0600 
    181 H181        4.9668  -14.0513  -44.1078 H         1 UNK         0.0600 
    182 H182        5.4266  -12.7994  -42.9681 H         1 UNK         0.0600 
    183 H183        5.6032  -12.5175  -44.6918 H         1 UNK         0.0600 
    184 H184        2.1987  -13.2914  -45.3450 H         1 UNK         0.3000 
    185 H185        2.4130  -11.3295  -48.3119 H         1 UNK         0.0600 
    186 H186        3.8053  -13.3816  -48.5463 H         1 UNK         0.0600 
    187 H187        2.5829  -14.3272  -47.7141 H         1 UNK         0.0600 
    188 H188        2.2177  -13.5798  -49.2666 H         1 UNK         0.0600 
    189 H189        0.3061  -11.4160  -47.7683 H         1 UNK         0.3000 
    190 H190       -0.1398  -22.2961  -46.7329 H         1 UNK         0.3000 
    191 H191       -2.1454  -23.1519  -46.5517 H         1 UNK         0.0600 
    192 H192       -0.9751  -25.1603  -47.5734 H         1 UNK         0.0600 
    193 H193       -2.7141  -25.1478  -47.7960 H         1 UNK         0.0600 
    194 H194       -1.6610  -24.6978  -49.1293 H         1 UNK         0.0600 
    195 H195       -1.9655  -20.6592  -47.7462 H         1 UNK         0.3000 
    196 H196       -4.0516  -20.2106  -49.7171 H         1 UNK         0.0600 
    197 H197       -3.7036  -17.8711  -49.1650 H         1 UNK         0.0600 
    198 H198       -2.1098  -18.6180  -49.1834 H         1 UNK         0.0600 
    199 H199       -2.8999  -18.2599  -47.6542 H         1 UNK         0.0600 
    200 H200       -3.7219  -20.3912  -46.1929 H         1 UNK         0.3000 
    201 H201       -6.3571  -19.6570  -45.4054 H         1 UNK         0.0600 
    202 H202       -4.4093  -19.7188  -43.8602 H         1 UNK         0.0600 
    203 H203       -4.2759  -21.4653  -44.0566 H         1 UNK         0.0600 
    204 H204       -5.6842  -20.7691  -43.2627 H         1 UNK         0.0600 
    205 H205       -5.1710  -22.5536  -46.9096 H         1 UNK         0.3000 
    206 H206       -7.6086  -24.1355  -46.2733 H         1 UNK         0.0600 
    207 H207       -5.3514  -25.2087  -45.9228 H         1 UNK         0.0600 
    208 H208       -6.3175  -26.0366  -47.1331 H         1 UNK         0.0600 
    209 H209       -5.0068  -24.9815  -47.6371 H         1 UNK         0.0600 
    210 H210       -7.2246  -21.7094  -48.1834 H         1 UNK         0.3000 
    211 H211       -8.1012  -20.9215  -50.0250 H         1 UNK         0.0600 
    212 H212       -9.6053  -23.5585  -50.4169 H         1 UNK         0.0600 
    213 H213       -9.9727  -22.0131  -51.1643 H         1 UNK         0.0600 
    214 H214      -10.1606  -22.2071  -49.4294 H         1 UNK         0.0600 
    215 H215       -5.5705  -21.7463  -50.1563 H         1 UNK         0.3000 
    216 H216       -3.8554  -21.8214  -51.5688 H         1 UNK         0.0600 
    217 H217       -5.8472  -21.6408  -53.8926 H         1 UNK         0.0600 
    218 H218       -4.1479  -21.2084  -53.9134 H         1 UNK         0.0600 
    219 H219       -5.2760  -20.2563  -52.9681 H         1 UNK         0.0600 
    220 H220       -4.4118  -24.1267  -50.4609 H         1 UNK         0.3000 
    221 H221       -5.0475  -26.2655  -52.2764 H         1 UNK         0.0600 
    222 H222       -3.9343  -26.3542  -49.4274 H         1 UNK         0.0600 
    223 H223       -5.6386  -26.3468  -49.8779 H         1 UNK         0.0600 
    224 H224       -4.6218  -27.7129  -50.3042 H         1 UNK         0.0600 
    225 H225       -1.9597  -25.1978  -50.7853 H         1 UNK         0.3000 
    226 H226       -0.4770  -27.4085  -52.0351 H         1 UNK         0.0600 
    227 H227       -0.0382  -26.7554  -49.6670 H         1 UNK         0.0600 
    228 H228        1.3949  -26.5893  -50.6682 H         1 UNK         0.0600 
    229 H229        0.4907  -25.1590  -50.2012 H         1 UNK         0.0600 
    230 H230       -1.0126  -23.9580  -52.5955 H         1 UNK         0.3000 
    231 H231        0.4338  -24.0880  -55.1219 H         1 UNK         0.0600 
    232 H232        1.1683  -22.0630  -52.9304 H         1 UNK         0.0600 
    233 H233        1.7255  -21.9920  -54.5982 H         1 UNK         0.0600 
    234 H234        2.2336  -23.3181  -53.5603 H         1 UNK         0.0600 
    235 H235       -0.5294  -22.7678  -56.5990 H         1 UNK         0.3000 
    236 H236       -3.1279  -21.6221  -55.9875 H         1 UNK         0.0600 
    237 H237       -3.1625  -21.2263  -58.4518 H         1 UNK         0.0600 
    238 H238       -1.4722  -21.6980  -58.5715 H         1 UNK         0.0600 
    239 H239       -2.6929  -22.8799  -58.0976 H         1 UNK         0.0600 
    240 H240       -3.7302  -19.4153  -56.6374 H         1 UNK         0.3000 
    241 H241       -1.7677  -17.4133  -57.0899 H         1 UNK         0.0600 
    242 H242       -2.8965  -15.1271  -57.2365 H         1 UNK         0.3800 
    243 H243       -4.4971  -15.1967  -57.9139 H         1 UNK         0.3800 
    244 H244       -1.3829  -17.4628  -54.6963 H         1 UNK         0.0800 
    245 H245       -2.2211  -15.9981  -55.0778 H         1 UNK         0.0800 
    246 H246       -3.4415  -18.9690  -51.9369 H         1 UNK         0.0800 
    247 H247       -2.3741  -19.4380  -53.2386 H         1 UNK         0.0800 
@<TRIPOS>BOND
     1    1    2 1    
     2    1  127 1    
     3    1  128 1    
     4    1  129 1    
     5    2    3 2    
     6    2    4 am   BACKBONE|DICT|INTERRES
     7    4    5 1    
     8    4  130 1    
     9    5    6 1    
    10    5   65 1    
    11    5  131 1    
    12    6    7 1    
    13    6  132 1    
    14    6  133 1    
    15    7    8 1    
    16    8    9 1    
    17    8  134 1    
    18    8  135 1    
    19    9   10 ar   
    20    9   14 ar   
    21   10   11 ar   
    22   10  136 1    
    23   11   12 ar   
    24   11  126 1    
    25   12   13 ar   
    26   12  137 1    
    27   13   14 ar   
    28   13   15 1    
    29   14  138 1    
    30   15   16 1    
    31   15  139 1    
    32   15  140 1    
    33   16   17 1    
    34   17   18 1    
    35   17  141 1    
    36   17  142 1    
    37   18   19 1    
    38   18   67 1    
    39   18  143 1    
    40   19   20 am   BACKBONE|DICT|INTERRES
    41   19  144 1    
    42   20   21 2    
    43   20   22 1    
    44   22   23 1    
    45   22   24 1    
    46   22  145 1    
    47   23  146 1    
    48   23  147 1    
    49   23  148 1    
    50   24   25 am   BACKBONE|DICT|INTERRES
    51   24  149 1    
    52   25   26 2    
    53   25   27 1    
    54   27   28 1    
    55   27   29 1    
    56   27  150 1    
    57   28  151 1    
    58   28  152 1    
    59   28  153 1    
    60   29   30 am   BACKBONE|DICT|INTERRES
    61   29  154 1    
    62   30   31 2    
    63   30   32 1    
    64   32   33 1    
    65   32   34 1    
    66   32  155 1    
    67   33  156 1    
    68   33  157 1    
    69   33  158 1    
    70   34   35 am   BACKBONE|DICT|INTERRES
    71   34  159 1    
    72   35   36 2    
    73   35   37 1    
    74   37   38 1    
    75   37   39 1    
    76   37  160 1    
    77   38  161 1    
    78   38  162 1    
    79   38  163 1    
    80   39   40 am   BACKBONE|DICT|INTERRES
    81   39  164 1    
    82   40   41 2    
    83   40   42 1    
    84   42   43 1    
    85   42   44 1    
    86   42  165 1    
    87   43  166 1    
    88   43  167 1    
    89   43  168 1    
    90   44   45 am   BACKBONE|DICT|INTERRES
    91   44  169 1    
    92   45   46 2    
    93   45   47 1    
    94   47   48 1    
    95   47   49 1    
    96   47  170 1    
    97   48  171 1    
    98   48  172 1    
    99   48  173 1    
   100   49   50 am   BACKBONE|DICT|INTERRES
   101   49  174 1    
   102   50   51 2    
   103   50   52 1    
   104   52   53 1    
   105   52   54 1    
   106   52  175 1    
   107   53  176 1    
   108   53  177 1    
   109   53  178 1    
   110   54   55 am   BACKBONE|DICT|INTERRES
   111   54  179 1    
   112   55   56 2    
   113   55   57 1    
   114   57   58 1    
   115   57   59 1    
   116   57  180 1    
   117   58  181 1    
   118   58  182 1    
   119   58  183 1    
   120   59   60 am   BACKBONE|DICT|INTERRES
   121   59  184 1    
   122   60   61 2    
   123   60   62 1    
   124   62   63 1    
   125   62   64 1    
   126   62  185 1    
   127   63  186 1    
   128   63  187 1    
   129   63  188 1    
   130   64   65 am   BACKBONE|DICT|INTERRES
   131   64  189 1    
   132   65   66 2    
   133   67   68 2    
   134   67   69 am   BACKBONE|DICT|INTERRES
   135   69   70 1    
   136   69  190 1    
   137   70   71 1    
   138   70   72 1    
   139   70  191 1    
   140   71  192 1    
   141   71  193 1    
   142   71  194 1    
   143   72   73 2    
   144   72   74 am   BACKBONE|DICT|INTERRES
   145   74   75 1    
   146   74  195 1    
   147   75   76 1    
   148   75   77 1    
   149   75  196 1    
   150   76  197 1    
   151   76  198 1    
   152   76  199 1    
   153   77   78 2    
   154   77   79 am   BACKBONE|DICT|INTERRES
   155   79   80 1    
   156   79  200 1    
   157   80   81 1    
   158   80   82 1    
   159   80  201 1    
   160   81  202 1    
   161   81  203 1    
   162   81  204 1    
   163   82   83 2    
   164   82   84 am   BACKBONE|DICT|INTERRES
   165   84   85 1    
   166   84  205 1    
   167   85   86 1    
   168   85   87 1    
   169   85  206 1    
   170   86  207 1    
   171   86  208 1    
   172   86  209 1    
   173   87   88 2    
   174   87   89 am   BACKBONE|DICT|INTERRES
   175   89   90 1    
   176   89  210 1    
   177   90   91 1    
   178   90   92 1    
   179   90  211 1    
   180   91  212 1    
   181   91  213 1    
   182   91  214 1    
   183   92   93 2    
   184   92   94 am   BACKBONE|DICT|INTERRES
   185   94   95 1    
   186   94  215 1    
   187   95   96 1    
   188   95   97 1    
   189   95  216 1    
   190   96  217 1    
   191   96  218 1    
   192   96  219 1    
   193   97   98 2    
   194   97   99 am   BACKBONE|DICT|INTERRES
   195   99  100 1    
   196   99  220 1    
   197  100  101 1    
   198  100  102 1    
   199  100  221 1    
   200  101  222 1    
   201  101  223 1    
   202  101  224 1    
   203  102  103 2    
   204  102  104 am   BACKBONE|DICT|INTERRES
   205  104  105 1    
   206  104  225 1    
   207  105  106 1    
   208  105  107 1    
   209  105  226 1    
   210  106  227 1    
   211  106  228 1    
   212  106  229 1    
   213  107  108 2    
   214  107  109 am   BACKBONE|DICT|INTERRES
   215  109  110 1    
   216  109  230 1    
   217  110  111 1    
   218  110  112 1    
   219  110  231 1    
   220  111  232 1    
   221  111  233 1    
   222  111  234 1    
   223  112  113 2    
   224  112  114 am   BACKBONE|DICT|INTERRES
   225  114  115 1    
   226  114  235 1    
   227  115  116 1    
   228  115  117 1    
   229  115  236 1    
   230  116  237 1    
   231  116  238 1    
   232  116  239 1    
   233  117  118 2    
   234  117  119 am   BACKBONE|DICT|INTERRES
   235  119  120 1    
   236  119  240 1    
   237  120  121 1    
   238  120  124 1    
   239  120  241 1    
   240  121  122 am   BACKBONE|DICT|INTERRES
   241  121  123 2    
   242  122  242 1    
   243  122  243 1    
   244  124  125 1    
   245  124  244 1    
   246  124  245 1    
   247  125  126 1    
   248  126  246 1    
   249  126  247 1    
@<TRIPOS>SUBSTRUCTURE
     1 UNK         1 GROUP             0       ****    0 ROOT    
