@<TRIPOS>MOLECULE
3R540
247   249    1
SMALL
USER_CHARGES


@<TRIPOS>ATOM
      1 CA          4.1961  -12.9346  -46.6489 C.3       0 UNK        -0.1800 
      2 C           2.8691  -13.6745  -46.5819 C.2       0 UNK         0.5000 
      3 O           2.5208  -14.2128  -45.5331 O.2       0 UNK        -0.5000 
      4 N           2.1125  -13.6862  -47.6867 N.am      1 UNK        -0.5000 
      5 CA          0.8525  -14.4307  -47.8483 C.3       1 UNK         0.1400 
      6 C6          0.3673  -14.4784  -49.3239 C.3       23 UNK        -0.0398 
      7 S7          1.6793  -14.6973  -50.5806 S.3       23 UNK        -0.2404 
      8 C8          2.3379  -16.3590  -50.2049 C.3       23 UNK        -0.0205 
      9 C9          1.4450  -17.5472  -50.5636 C.ar      23 UNK        -0.0193 
     10 C10         0.3226  -17.4434  -51.3938 C.ar      23 UNK        -0.1150 
     11 C11        -0.4657  -18.5631  -51.6790 C.ar      23 UNK        -0.0193 
     12 C12        -0.1135  -19.8057  -51.1413 C.ar      23 UNK        -0.1150 
     13 C13         1.0181  -19.9339  -50.3277 C.ar      23 UNK        -0.0193 
     14 C14         1.7909  -18.8010  -50.0553 C.ar      23 UNK        -0.1150 
     15 C15         1.4215  -21.3009  -49.7806 C.3       23 UNK        -0.0205 
     16 S16         1.9160  -21.2546  -48.0197 S.3       23 UNK        -0.2404 
     17 C17         0.9813  -22.6527  -47.3135 C.3       23 UNK        -0.0398 
     18 CA         -0.3772  -22.2875  -46.6633 C.3       11 UNK         0.1400 
     19 N          -0.2285  -21.5794  -45.3882 N.am      11 UNK        -0.5000 
     20 C          -1.2100  -21.4781  -44.4792 C.2       10 UNK         0.5000 
     21 O          -2.3215  -21.9892  -44.6188 O.2       10 UNK        -0.5000 
     22 CA         -0.9248  -20.6223  -43.2327 C.3       10 UNK         0.1400 
     23 CB         -0.0721  -21.3921  -42.2131 C.3       10 UNK        -0.1800 
     24 N          -0.2805  -19.3530  -43.5701 N.am      10 UNK        -0.5000 
     25 C          -0.8705  -18.3790  -44.2771 C.2       9 UNK         0.5000 
     26 O          -2.0270  -18.4457  -44.6899 O.2       9 UNK        -0.5000 
     27 CA         -0.0295  -17.1382  -44.6055 C.3       9 UNK         0.1400 
     28 CB         -0.1870  -16.0676  -43.5251 C.3       9 UNK        -0.1800 
     29 N           1.3837  -17.4636  -44.7787 N.am      9 UNK        -0.5000 
     30 C           1.8829  -17.9488  -45.9232 C.2       8 UNK         0.5000 
     31 O           1.2110  -18.0960  -46.9410 O.2       8 UNK        -0.5000 
     32 CA          3.3644  -18.3720  -45.9294 C.3       8 UNK         0.1400 
     33 CB          4.2662  -17.1848  -46.2989 C.3       8 UNK        -0.1800 
     34 N           3.8128  -18.9281  -44.6535 N.am      8 UNK        -0.5000 
     35 C           3.3110  -20.0187  -44.0558 C.2       7 UNK         0.5000 
     36 O           2.4442  -20.7371  -44.5531 O.2       7 UNK        -0.5000 
     37 CA          3.8280  -20.3252  -42.6354 C.3       7 UNK         0.1400 
     38 CB          4.9379  -21.3852  -42.6846 C.3       7 UNK        -0.1800 
     39 N           4.3230  -19.1383  -41.9290 N.am      7 UNK        -0.5000 
     40 C           3.5710  -18.0833  -41.5861 C.2       6 UNK         0.5000 
     41 O           2.3593  -18.0082  -41.8071 O.2       6 UNK        -0.5000 
     42 CA          4.3309  -16.8895  -40.9882 C.3       6 UNK         0.1400 
     43 CB          4.8399  -15.9771  -42.1176 C.3       6 UNK        -0.1800 
     44 N           3.4784  -16.1077  -40.0967 N.am      6 UNK        -0.5000 
     45 C           3.3566  -16.3198  -38.7796 C.2       5 UNK         0.5000 
     46 O           3.9505  -17.2186  -38.1814 O.2       5 UNK        -0.5000 
     47 CA          2.4527  -15.3610  -37.9749 C.3       5 UNK         0.1400 
     48 CB          3.3060  -14.3165  -37.2381 C.3       5 UNK        -0.1800 
     49 N           1.4613  -14.6607  -38.7914 N.am      5 UNK        -0.5000 
     50 C           0.3454  -15.2191  -39.2758 C.2       4 UNK         0.5000 
     51 O          -0.0043  -16.3715  -39.0183 O.2       4 UNK        -0.5000 
     52 CA         -0.5380  -14.3538  -40.2007 C.3       4 UNK         0.1400 
     53 CB         -1.7056  -13.7513  -39.4041 C.3       4 UNK        -0.1800 
     54 N           0.1304  -13.2719  -40.9393 N.am      4 UNK        -0.5000 
     55 C           1.2341  -13.3701  -41.6928 C.2       3 UNK         0.5000 
     56 O           1.9413  -14.3739  -41.7476 O.2       3 UNK        -0.5000 
     57 CA          1.5662  -12.1591  -42.5780 C.3       3 UNK         0.1400 
     58 CB          3.0738  -12.0462  -42.8675 C.3       3 UNK        -0.1800 
     59 N           0.8408  -12.2809  -43.8421 N.am      3 UNK        -0.5000 
     60 C          -0.4265  -11.8822  -44.0307 C.2       2 UNK         0.5000 
     61 O          -1.0944  -11.3415  -43.1476 O.2       2 UNK        -0.5000 
     62 CA         -1.0654  -12.1048  -45.4175 C.3       2 UNK         0.1400 
     63 CB         -1.5519  -10.7737  -46.0157 C.3       2 UNK        -0.1800 
     64 N          -0.1395  -12.7256  -46.3658 N.am      2 UNK        -0.5000 
     65 C          -0.2887  -13.9332  -46.9270 C.2       1 UNK         0.5000 
     66 O          -1.2772  -14.6449  -46.7536 O.2       1 UNK        -0.5000 
     67 C          -1.3451  -21.5596  -47.6239 C.2       11 UNK         0.5000 
     68 O          -2.0668  -22.2239  -48.3697 O.2       11 UNK        -0.5000 
     69 N          -1.3763  -20.2190  -47.5631 N.am      12 UNK        -0.5000 
     70 CA         -2.3251  -19.3847  -48.2970 C.3       12 UNK         0.1400 
     71 CB         -1.9102  -17.9084  -48.2230 C.3       12 UNK        -0.1800 
     72 C          -3.7628  -19.5926  -47.7961 C.2       12 UNK         0.5000 
     73 O          -4.6487  -19.8393  -48.6102 O.2       12 UNK        -0.5000 
     74 N          -3.9635  -19.5668  -46.4704 N.am      13 UNK        -0.5000 
     75 CA         -5.2479  -19.8358  -45.8152 C.3       13 UNK         0.1400 
     76 CB         -5.1130  -19.5888  -44.3052 C.3       13 UNK        -0.1800 
     77 C          -5.7912  -21.2529  -46.0879 C.2       13 UNK         0.5000 
     78 O          -7.0042  -21.4269  -46.2096 O.2       13 UNK        -0.5000 
     79 N          -4.8835  -22.2298  -46.2137 N.am      14 UNK        -0.5000 
     80 CA         -5.1832  -23.6052  -46.6135 C.3       14 UNK         0.1400 
     81 CB         -4.0104  -24.5039  -46.1896 C.3       14 UNK        -0.1800 
     82 C          -5.4592  -23.7673  -48.1244 C.2       14 UNK         0.5000 
     83 O          -5.9370  -24.8289  -48.5264 O.2       14 UNK        -0.5000 
     84 N          -5.1344  -22.7424  -48.9297 N.am      15 UNK        -0.5000 
     85 CA         -5.1668  -22.7064  -50.3968 C.3       15 UNK         0.1400 
     86 CB         -6.6172  -22.7435  -50.9173 C.3       15 UNK        -0.1800 
     87 C          -4.2650  -23.7904  -51.0240 C.2       15 UNK         0.5000 
     88 O          -4.6526  -24.4483  -51.9918 O.2       15 UNK        -0.5000 
     89 N          -3.0696  -23.9674  -50.4413 N.am      16 UNK        -0.5000 
     90 CA         -2.1225  -25.0413  -50.7547 C.3       16 UNK         0.1400 
     91 CB         -1.0140  -25.0503  -49.6956 C.3       16 UNK        -0.1800 
     92 C          -1.5089  -24.9675  -52.1657 C.2       16 UNK         0.5000 
     93 O          -0.9469  -25.9608  -52.6297 O.2       16 UNK        -0.5000 
     94 N          -1.6488  -23.8196  -52.8420 N.am      17 UNK        -0.5000 
     95 CA         -1.2695  -23.5832  -54.2363 C.3       17 UNK         0.1400 
     96 CB         -1.1671  -22.0638  -54.4587 C.3       17 UNK        -0.1800 
     97 C          -2.2457  -24.2660  -55.2226 C.2       17 UNK         0.5000 
     98 O          -2.8413  -23.5996  -56.0709 O.2       17 UNK        -0.5000 
     99 N          -2.4290  -25.5846  -55.0541 N.am      18 UNK        -0.5000 
    100 CA        -3.2802  -26.5020  -55.8249 C.3       18 UNK         0.1400 
    101 CB        -2.6908  -26.6935  -57.2377 C.3       18 UNK        -0.1800 
    102 C         -4.7751  -26.1092  -55.8723 C.2       18 UNK         0.5000 
    103 O         -5.4853  -26.5387  -56.7827 O.2       18 UNK        -0.5000 
    104 N         -5.2151  -25.2657  -54.9242 N.am      19 UNK        -0.5000 
    105 CA        -6.4974  -24.5509  -54.8863 C.3       19 UNK         0.1400 
    106 CB        -7.6707  -25.5318  -54.6866 C.3       19 UNK        -0.1800 
    107 C         -6.7192  -23.5929  -56.0825 C.2       19 UNK         0.5000 
    108 O         -7.8466  -23.1473  -56.3024 O.2       19 UNK        -0.5000 
    109 N         -5.6503  -23.2797  -56.8288 N.am      20 UNK        -0.5000 
    110 CA        -5.6638  -22.4037  -57.9992 C.3       20 UNK         0.1400 
    111 CB        -4.6059  -22.8982  -58.9984 C.3       20 UNK        -0.1800 
    112 C         -5.4039  -20.9358  -57.6210 C.2       20 UNK         0.5000 
    113 O         -5.7546  -20.0430  -58.3940 O.2       20 UNK        -0.5000 
    114 N         -4.8098  -20.7092  -56.4444 N.am      21 UNK        -0.5000 
    115 CA        -4.5679  -19.4002  -55.8561 C.3       21 UNK         0.1400 
    116 CB        -3.1240  -18.9595  -56.1463 C.3       21 UNK        -0.1800 
    117 C         -4.8300  -19.4836  -54.3480 C.2       21 UNK         0.5000 
    118 O         -4.6374  -20.5432  -53.7455 O.2       21 UNK        -0.5000 
    119 N         -5.2556  -18.3527  -53.7768 N.am      22 UNK        -0.5000 
    120 CA        -5.5338  -18.1323  -52.3454 C.3       22 UNK         0.1400 
    121 C         -6.7795  -18.8805  -51.7767 C.2       22 UNK         0.5000 
    122 N         -7.5540  -19.6001  -52.5792 N.am      22 UNK        -0.7600 
    123 O         -7.0890  -18.7581  -50.5959 O.2       22 UNK        -0.5000 
    124 C124       -4.2788  -18.2967  -51.4423 C.3       23 UNK        -0.0398 
    125 S125       -2.8925  -17.2291  -51.9666 S.3       23 UNK        -0.2404 
    126 C126       -1.6693  -18.4247  -52.6028 C.3       23 UNK        -0.0205 
    127 H127        4.2059  -12.1161  -45.9294 H         1 UNK         0.0600 
    128 H128        5.0134  -13.6136  -46.4056 H         1 UNK         0.0600 
    129 H129        4.3802  -12.5210  -47.6406 H         1 UNK         0.0600 
    130 H130        2.4468  -13.2270  -48.5227 H         1 UNK         0.3000 
    131 H131        1.0586  -15.4571  -47.5412 H         1 UNK         0.0600 
    132 H132       -0.1500  -13.5521  -49.5811 H         1 UNK         0.0800 
    133 H133       -0.3694  -15.2743  -49.4483 H         1 UNK         0.0800 
    134 H134        2.5859  -16.4031  -49.1445 H         1 UNK         0.0800 
    135 H135        3.2798  -16.4740  -50.7424 H         1 UNK         0.0800 
    136 H136        0.0468  -16.4924  -51.8248 H         1 UNK         0.1150 
    137 H137       -0.7135  -20.6761  -51.3661 H         1 UNK         0.1150 
    138 H138        2.6675  -18.8930  -49.4297 H         1 UNK         0.1150 
    139 H139        0.6015  -22.0052  -49.9188 H         1 UNK         0.0800 
    140 H140        2.2559  -21.6829  -50.3697 H         1 UNK         0.0800 
    141 H141        0.8465  -23.4165  -48.0766 H         1 UNK         0.0800 
    142 H142        1.6190  -23.1218  -46.5630 H         1 UNK         0.0800 
    143 H143       -0.8557  -23.2404  -46.4270 H         1 UNK         0.0600 
    144 H144        0.6767  -21.1552  -45.1985 H         1 UNK         0.3000 
    145 H145       -1.8825  -20.3914  -42.7612 H         1 UNK         0.0600 
    146 H146        0.1514  -20.7795  -41.3394 H         1 UNK         0.0600 
    147 H147       -0.5998  -22.2797  -41.8624 H         1 UNK         0.0600 
    148 H148        0.8720  -21.7266  -42.6415 H         1 UNK         0.0600 
    149 H149        0.6740  -19.2227  -43.2661 H         1 UNK         0.3000 
    150 H150       -0.4151  -16.7245  -45.5366 H         1 UNK         0.0600 
    151 H151       -1.2366  -15.8147  -43.3710 H         1 UNK         0.0600 
    152 H152        0.3267  -15.1545  -43.8215 H         1 UNK         0.0600 
    153 H153        0.2238  -16.3973  -42.5703 H         1 UNK         0.0600 
    154 H154        1.9764  -17.3815  -43.9629 H         1 UNK         0.3000 
    155 H155        3.4867  -19.1431  -46.6913 H         1 UNK         0.0600 
    156 H156        5.3033  -17.4985  -46.4173 H         1 UNK         0.0600 
    157 H157        4.2358  -16.4058  -45.5361 H         1 UNK         0.0600 
    158 H158        3.9550  -16.7330  -47.2406 H         1 UNK         0.0600 
    159 H159        4.5261  -18.4095  -44.1646 H         1 UNK         0.3000 
    160 H160        2.9933  -20.7302  -42.0606 H         1 UNK         0.0600 
    161 H161        5.8129  -21.0278  -43.2289 H         1 UNK         0.0600 
    162 H162        4.5896  -22.2915  -43.1819 H         1 UNK         0.0600 
    163 H163        5.2575  -21.6693  -41.6818 H         1 UNK         0.0600 
    164 H164        5.3118  -19.1217  -41.7231 H         1 UNK         0.3000 
    165 H165        5.1951  -17.2598  -40.4324 H         1 UNK         0.0600 
    166 H166        4.0293  -15.6417  -42.7663 H         1 UNK         0.0600 
    167 H167        5.3340  -15.0913  -41.7179 H         1 UNK         0.0600 
    168 H168        5.5647  -16.4965  -42.7453 H         1 UNK         0.0600 
    169 H169        2.8893  -15.4130  -40.5512 H         1 UNK         0.3000 
    170 H170        1.9274  -15.9576  -37.2261 H         1 UNK         0.0600 
    171 H171        4.0398  -14.7974  -36.5898 H         1 UNK         0.0600 
    172 H172        3.8517  -13.6792  -37.9351 H         1 UNK         0.0600 
    173 H173        2.6890  -13.6756  -36.6080 H         1 UNK         0.0600 
    174 H174        1.6784  -13.7130  -39.0618 H         1 UNK         0.3000 
    175 H175       -0.9609  -15.0283  -40.9459 H         1 UNK         0.0600 
    176 H176       -2.4166  -13.2508  -40.0619 H         1 UNK         0.0600 
    177 H177       -2.2549  -14.5243  -38.8649 H         1 UNK         0.0600 
    178 H178       -1.3562  -13.0240  -38.6702 H         1 UNK         0.0600 
    179 H179       -0.3907  -12.4078  -41.0019 H         1 UNK         0.3000 
    180 H180        1.2601  -11.2492  -42.0572 H         1 UNK         0.0600 
    181 H181        3.2917  -11.1760  -43.4866 H         1 UNK         0.0600 
    182 H182        3.6392  -11.9378  -41.9413 H         1 UNK         0.0600 
    183 H183        3.4596  -12.9268  -43.3821 H         1 UNK         0.0600 
    184 H184        1.3007  -12.8298  -44.5598 H         1 UNK         0.3000 
    185 H185       -1.9359  -12.7439  -45.2581 H         1 UNK         0.0600 
    186 H186       -2.0386  -10.9305  -46.9785 H         1 UNK         0.0600 
    187 H187       -2.2790  -10.2895  -45.3625 H         1 UNK         0.0600 
    188 H188       -0.7279  -10.0752  -46.1661 H         1 UNK         0.0600 
    189 H189        0.6990  -12.2053  -46.5808 H         1 UNK         0.3000 
    190 H190       -0.7159  -19.7412  -46.9654 H         1 UNK         0.3000 
    191 H191       -2.2947  -19.6866  -49.3452 H         1 UNK         0.0600 
    192 H192       -2.5843  -17.2835  -48.8091 H         1 UNK         0.0600 
    193 H193       -0.9068  -17.7621  -48.6222 H         1 UNK         0.0600 
    194 H194       -1.9225  -17.5303  -47.2020 H         1 UNK         0.0600 
    195 H195       -3.1883  -19.3201  -45.8589 H         1 UNK         0.3000 
    196 H196       -5.9744  -19.1246  -46.2134 H         1 UNK         0.0600 
    197 H197       -6.0596  -19.7657  -43.7930 H         1 UNK         0.0600 
    198 H198       -4.8191  -18.5595  -44.0992 H         1 UNK         0.0600 
    199 H199       -4.3673  -20.2454  -43.8560 H         1 UNK         0.0600 
    200 H200       -3.9120  -22.0135  -46.0205 H         1 UNK         0.3000 
    201 H201       -6.0762  -23.9356  -46.0790 H         1 UNK         0.0600 
    202 H202       -3.8222  -24.4302  -45.1184 H         1 UNK         0.0600 
    203 H203       -3.0917  -24.2354  -46.7111 H         1 UNK         0.0600 
    204 H204       -4.2183  -25.5513  -46.4116 H         1 UNK         0.0600 
    205 H205       -4.7731  -21.8993  -48.4982 H         1 UNK         0.3000 
    206 H206       -4.7391  -21.7464  -50.6893 H         1 UNK         0.0600 
    207 H207       -7.2248  -21.9761  -50.4376 H         1 UNK         0.0600 
    208 H208       -6.6471  -22.5529  -51.9903 H         1 UNK         0.0600 
    209 H209       -7.0901  -23.7096  -50.7395 H         1 UNK         0.0600 
    210 H210       -2.8164  -23.3618  -49.6628 H         1 UNK         0.3000 
    211 H211       -2.6656  -25.9862  -50.6879 H         1 UNK         0.0600 
    212 H212       -0.4087  -24.1490  -49.7682 H         1 UNK         0.0600 
    213 H213       -0.3492  -25.9048  -49.8284 H         1 UNK         0.0600 
    214 H214       -1.4235  -25.1076  -48.6868 H         1 UNK         0.0600 
    215 H215       -2.1612  -23.0782  -52.3888 H         1 UNK         0.3000 
    216 H216       -0.2817  -24.0148  -54.4096 H         1 UNK         0.0600 
    217 H217       -0.8720  -21.8346  -55.4834 H         1 UNK         0.0600 
    218 H218       -0.4219  -21.6169  -53.8005 H         1 UNK         0.0600 
    219 H219       -2.1203  -21.5694  -54.2707 H         1 UNK         0.0600 
    220 H220       -1.9110  -26.0110  -54.2903 H         1 UNK         0.3000 
    221 H221       -3.2367  -27.4632  -55.3113 H         1 UNK         0.0600 
    222 H222       -2.7617  -25.7805  -57.8303 H         1 UNK         0.0600 
    223 H223       -1.6409  -26.9825  -57.1914 H         1 UNK         0.0600 
    224 H224       -3.2162  -27.4790  -57.7822 H         1 UNK         0.0600 
    225 H225       -4.5702  -25.0043  -54.1881 H         1 UNK         0.3000 
    226 H226       -6.4537  -23.9115  -54.0046 H         1 UNK         0.0600 
    227 H227       -8.6011  -24.9956  -54.4967 H         1 UNK         0.0600 
    228 H228       -7.8300  -26.1596  -55.5634 H         1 UNK         0.0600 
    229 H229       -7.4953  -26.1849  -53.8317 H         1 UNK         0.0600 
    230 H230       -4.7402  -23.6422  -56.5594 H         1 UNK         0.3000 
    231 H231       -6.6403  -22.4568  -58.4850 H         1 UNK         0.0600 
    232 H232       -4.6206  -22.3002  -59.9104 H         1 UNK         0.0600 
    233 H233       -4.7883  -23.9342  -59.2847 H         1 UNK         0.0600 
    234 H234       -3.5991  -22.8382  -58.5831 H         1 UNK         0.0600 
    235 H235       -4.5840  -21.4939  -55.8466 H         1 UNK         0.3000 
    236 H236       -5.2579  -18.6685  -56.2823 H         1 UNK         0.0600 
    237 H237       -2.3974  -19.6610  -55.7369 H         1 UNK         0.0600 
    238 H238       -2.9449  -18.8822  -57.2188 H         1 UNK         0.0600 
    239 H239       -2.9183  -17.9810  -55.7106 H         1 UNK         0.0600 
    240 H240       -5.3907  -17.5408  -54.3621 H         1 UNK         0.3000 
    241 H241       -5.8192  -17.0813  -52.2872 H         1 UNK         0.0600 
    242 H242       -8.3712  -20.0521  -52.2018 H         1 UNK         0.3800 
    243 H243       -7.3258  -19.7036  -53.5539 H         1 UNK         0.3800 
    244 H244       -3.9659  -19.3399  -51.3900 H         1 UNK         0.0800 
    245 H245       -4.5226  -18.0022  -50.4216 H         1 UNK         0.0800 
    246 H246       -2.1375  -19.3924  -52.7854 H         1 UNK         0.0800 
    247 H247       -1.3183  -18.0741  -53.5741 H         1 UNK         0.0800 
@<TRIPOS>BOND
     1    1    2 1    
     2    1  127 1    
     3    1  128 1    
     4    1  129 1    
     5    2    3 2    
     6    2    4 am   BACKBONE|DICT|INTERRES
     7    4    5 1    
     8    4  130 1    
     9    5    6 1    
    10    5   65 1    
    11    5  131 1    
    12    6    7 1    
    13    6  132 1    
    14    6  133 1    
    15    7    8 1    
    16    8    9 1    
    17    8  134 1    
    18    8  135 1    
    19    9   10 ar   
    20    9   14 ar   
    21   10   11 ar   
    22   10  136 1    
    23   11   12 ar   
    24   11  126 1    
    25   12   13 ar   
    26   12  137 1    
    27   13   14 ar   
    28   13   15 1    
    29   14  138 1    
    30   15   16 1    
    31   15  139 1    
    32   15  140 1    
    33   16   17 1    
    34   17   18 1    
    35   17  141 1    
    36   17  142 1    
    37   18   19 1    
    38   18   67 1    
    39   18  143 1    
    40   19   20 am   BACKBONE|DICT|INTERRES
    41   19  144 1    
    42   20   21 2    
    43   20   22 1    
    44   22   23 1    
    45   22   24 1    
    46   22  145 1    
    47   23  146 1    
    48   23  147 1    
    49   23  148 1    
    50   24   25 am   BACKBONE|DICT|INTERRES
    51   24  149 1    
    52   25   26 2    
    53   25   27 1    
    54   27   28 1    
    55   27   29 1    
    56   27  150 1    
    57   28  151 1    
    58   28  152 1    
    59   28  153 1    
    60   29   30 am   BACKBONE|DICT|INTERRES
    61   29  154 1    
    62   30   31 2    
    63   30   32 1    
    64   32   33 1    
    65   32   34 1    
    66   32  155 1    
    67   33  156 1    
    68   33  157 1    
    69   33  158 1    
    70   34   35 am   BACKBONE|DICT|INTERRES
    71   34  159 1    
    72   35   36 2    
    73   35   37 1    
    74   37   38 1    
    75   37   39 1    
    76   37  160 1    
    77   38  161 1    
    78   38  162 1    
    79   38  163 1    
    80   39   40 am   BACKBONE|DICT|INTERRES
    81   39  164 1    
    82   40   41 2    
    83   40   42 1    
    84   42   43 1    
    85   42   44 1    
    86   42  165 1    
    87   43  166 1    
    88   43  167 1    
    89   43  168 1    
    90   44   45 am   BACKBONE|DICT|INTERRES
    91   44  169 1    
    92   45   46 2    
    93   45   47 1    
    94   47   48 1    
    95   47   49 1    
    96   47  170 1    
    97   48  171 1    
    98   48  172 1    
    99   48  173 1    
   100   49   50 am   BACKBONE|DICT|INTERRES
   101   49  174 1    
   102   50   51 2    
   103   50   52 1    
   104   52   53 1    
   105   52   54 1    
   106   52  175 1    
   107   53  176 1    
   108   53  177 1    
   109   53  178 1    
   110   54   55 am   BACKBONE|DICT|INTERRES
   111   54  179 1    
   112   55   56 2    
   113   55   57 1    
   114   57   58 1    
   115   57   59 1    
   116   57  180 1    
   117   58  181 1    
   118   58  182 1    
   119   58  183 1    
   120   59   60 am   BACKBONE|DICT|INTERRES
   121   59  184 1    
   122   60   61 2    
   123   60   62 1    
   124   62   63 1    
   125   62   64 1    
   126   62  185 1    
   127   63  186 1    
   128   63  187 1    
   129   63  188 1    
   130   64   65 am   BACKBONE|DICT|INTERRES
   131   64  189 1    
   132   65   66 2    
   133   67   68 2    
   134   67   69 am   BACKBONE|DICT|INTERRES
   135   69   70 1    
   136   69  190 1    
   137   70   71 1    
   138   70   72 1    
   139   70  191 1    
   140   71  192 1    
   141   71  193 1    
   142   71  194 1    
   143   72   73 2    
   144   72   74 am   BACKBONE|DICT|INTERRES
   145   74   75 1    
   146   74  195 1    
   147   75   76 1    
   148   75   77 1    
   149   75  196 1    
   150   76  197 1    
   151   76  198 1    
   152   76  199 1    
   153   77   78 2    
   154   77   79 am   BACKBONE|DICT|INTERRES
   155   79   80 1    
   156   79  200 1    
   157   80   81 1    
   158   80   82 1    
   159   80  201 1    
   160   81  202 1    
   161   81  203 1    
   162   81  204 1    
   163   82   83 2    
   164   82   84 am   BACKBONE|DICT|INTERRES
   165   84   85 1    
   166   84  205 1    
   167   85   86 1    
   168   85   87 1    
   169   85  206 1    
   170   86  207 1    
   171   86  208 1    
   172   86  209 1    
   173   87   88 2    
   174   87   89 am   BACKBONE|DICT|INTERRES
   175   89   90 1    
   176   89  210 1    
   177   90   91 1    
   178   90   92 1    
   179   90  211 1    
   180   91  212 1    
   181   91  213 1    
   182   91  214 1    
   183   92   93 2    
   184   92   94 am   BACKBONE|DICT|INTERRES
   185   94   95 1    
   186   94  215 1    
   187   95   96 1    
   188   95   97 1    
   189   95  216 1    
   190   96  217 1    
   191   96  218 1    
   192   96  219 1    
   193   97   98 2    
   194   97   99 am   BACKBONE|DICT|INTERRES
   195   99  100 1    
   196   99  220 1    
   197  100  101 1    
   198  100  102 1    
   199  100  221 1    
   200  101  222 1    
   201  101  223 1    
   202  101  224 1    
   203  102  103 2    
   204  102  104 am   BACKBONE|DICT|INTERRES
   205  104  105 1    
   206  104  225 1    
   207  105  106 1    
   208  105  107 1    
   209  105  226 1    
   210  106  227 1    
   211  106  228 1    
   212  106  229 1    
   213  107  108 2    
   214  107  109 am   BACKBONE|DICT|INTERRES
   215  109  110 1    
   216  109  230 1    
   217  110  111 1    
   218  110  112 1    
   219  110  231 1    
   220  111  232 1    
   221  111  233 1    
   222  111  234 1    
   223  112  113 2    
   224  112  114 am   BACKBONE|DICT|INTERRES
   225  114  115 1    
   226  114  235 1    
   227  115  116 1    
   228  115  117 1    
   229  115  236 1    
   230  116  237 1    
   231  116  238 1    
   232  116  239 1    
   233  117  118 2    
   234  117  119 am   BACKBONE|DICT|INTERRES
   235  119  120 1    
   236  119  240 1    
   237  120  121 1    
   238  120  124 1    
   239  120  241 1    
   240  121  122 am   BACKBONE|DICT|INTERRES
   241  121  123 2    
   242  122  242 1    
   243  122  243 1    
   244  124  125 1    
   245  124  244 1    
   246  124  245 1    
   247  125  126 1    
   248  126  246 1    
   249  126  247 1    
@<TRIPOS>SUBSTRUCTURE
     1 UNK         1 GROUP             0       ****    0 ROOT    
