@<TRIPOS>MOLECULE
3R540
247   249    1
SMALL
USER_CHARGES


@<TRIPOS>ATOM
      1 CA          5.2943  -12.6317  -53.0105 C.3       0 UNK        -0.1800 
      2 C           5.9616  -12.3659  -51.6683 C.2       0 UNK         0.5000 
      3 O           6.6831  -11.3780  -51.5261 O.2       0 UNK        -0.5000 
      4 N           5.7295  -13.2467  -50.6887 N.am      1 UNK        -0.5000 
      5 CA          6.2054  -13.1150  -49.3095 C.3       1 UNK         0.1400 
      6 C6          6.2468  -14.4874  -48.5840 C.3       23 UNK        -0.0398 
      7 S7          4.6353  -15.3421  -48.4311 S.3       23 UNK        -0.2404 
      8 C8          4.7240  -16.5302  -49.8076 C.3       23 UNK        -0.0205 
      9 C9          3.4598  -17.3714  -49.9110 C.ar      23 UNK        -0.0193 
     10 C10         2.2371  -16.7722  -50.2274 C.ar      23 UNK        -0.1150 
     11 C11         1.0696  -17.5332  -50.3478 C.ar      23 UNK        -0.0193 
     12 C12         1.1456  -18.9213  -50.1572 C.ar      23 UNK        -0.1150 
     13 C13         2.3647  -19.5366  -49.8478 C.ar      23 UNK        -0.0193 
     14 C14         3.5159  -18.7542  -49.7248 C.ar      23 UNK        -0.1150 
     15 C15         2.4529  -21.0517  -49.6995 C.3       23 UNK        -0.0205 
     16 S16         3.0691  -21.5859  -48.0648 S.3       23 UNK        -0.2404 
     17 C17         1.6989  -21.0961  -46.9639 C.3       23 UNK        -0.0398 
     18 CA          0.7529  -22.2612  -46.5756 C.3       11 UNK         0.1400 
     19 N          -0.1593  -21.8829  -45.4933 N.am      11 UNK        -0.5000 
     20 C          -1.0435  -22.6965  -44.8972 C.2       10 UNK         0.5000 
     21 O          -1.1500  -23.8964  -45.1467 O.2       10 UNK        -0.5000 
     22 CA         -2.0104  -22.0535  -43.8873 C.3       10 UNK         0.1400 
     23 CB         -1.3385  -21.8878  -42.5164 C.3       10 UNK        -0.1800 
     24 N          -2.5319  -20.7655  -44.3467 N.am      10 UNK        -0.5000 
     25 C          -3.2884  -20.6007  -45.4421 C.2       9 UNK         0.5000 
     26 O          -3.6706  -21.5273  -46.1565 O.2       9 UNK        -0.5000 
     27 CA         -3.6334  -19.1551  -45.8401 C.3       9 UNK         0.1400 
     28 CB         -4.7887  -18.6092  -44.9887 C.3       9 UNK        -0.1800 
     29 N          -2.4852  -18.2526  -45.7630 N.am      9 UNK        -0.5000 
     30 C          -1.3650  -18.3999  -46.4858 C.2       8 UNK         0.5000 
     31 O          -1.1937  -19.3072  -47.2999 O.2       8 UNK        -0.5000 
     32 CA         -0.2172  -17.4164  -46.1935 C.3       8 UNK         0.1400 
     33 CB         -0.4871  -16.0367  -46.8115 C.3       8 UNK        -0.1800 
     34 N           0.0192  -17.2620  -44.7592 N.am      8 UNK        -0.5000 
     35 C           0.4014  -18.2456  -43.9340 C.2       7 UNK         0.5000 
     36 O           0.6582  -19.3903  -44.3035 O.2       7 UNK        -0.5000 
     37 CA          0.4531  -17.9057  -42.4355 C.3       7 UNK         0.1400 
     38 CB          1.7470  -17.1568  -42.0814 C.3       7 UNK        -0.1800 
     39 N          -0.7076  -17.1222  -42.0108 N.am      7 UNK        -0.5000 
     40 C          -1.9618  -17.5938  -41.9623 C.2       6 UNK         0.5000 
     41 O          -2.2705  -18.7484  -42.2537 O.2       6 UNK        -0.5000 
     42 CA         -3.0603  -16.5988  -41.5476 C.3       6 UNK         0.1400 
     43 CB         -3.1543  -16.5029  -40.0176 C.3       6 UNK        -0.1800 
     44 N          -2.8485  -15.2631  -42.1055 N.am      6 UNK        -0.5000 
     45 C          -2.9358  -14.9665  -43.4097 C.2       5 UNK         0.5000 
     46 O          -3.2261  -15.7848  -44.2819 O.2       5 UNK        -0.5000 
     47 CA         -2.5784  -13.5216  -43.8062 C.3       5 UNK         0.1400 
     48 CB         -3.7717  -12.5823  -43.5754 C.3       5 UNK        -0.1800 
     49 N          -1.4009  -13.0033  -43.0998 N.am      5 UNK        -0.5000 
     50 C          -0.1809  -13.5481  -43.1818 C.2       4 UNK         0.5000 
     51 O           0.0661  -14.5692  -43.8306 O.2       4 UNK        -0.5000 
     52 CA          0.9482  -12.8721  -42.3935 C.3       4 UNK         0.1400 
     53 CB          0.9296  -13.3007  -40.9160 C.3       4 UNK        -0.1800 
     54 N           2.1915  -13.2904  -43.0218 N.am      4 UNK        -0.5000 
     55 C           3.3682  -12.6629  -43.0004 C.2       3 UNK         0.5000 
     56 O           3.6037  -11.6669  -42.3131 O.2       3 UNK        -0.5000 
     57 CA          4.4735  -13.2402  -43.9160 C.3       3 UNK         0.1400 
     58 CB          4.0370  -14.4782  -44.7343 C.3       3 UNK        -0.1800 
     59 N           5.0536  -12.2433  -44.8228 N.am      3 UNK        -0.5000 
     60 C           4.4055  -11.3798  -45.6226 C.2       2 UNK         0.5000 
     61 O           3.1818  -11.2512  -45.6762 O.2       2 UNK        -0.5000 
     62 CA          5.2947  -10.5624  -46.5767 C.3       2 UNK         0.1400 
     63 CB          6.3239   -9.7057  -45.8189 C.3       2 UNK        -0.1800 
     64 N           5.9809  -11.4511  -47.5160 N.am      2 UNK        -0.5000 
     65 C           5.3705  -12.0701  -48.5362 C.2       1 UNK         0.5000 
     66 O           4.1986  -11.8562  -48.8602 O.2       1 UNK        -0.5000 
     67 C          -0.0202  -22.8033  -47.7933 C.2       11 UNK         0.5000 
     68 O           0.2549  -23.9178  -48.2385 O.2       11 UNK        -0.5000 
     69 N          -0.9950  -22.0252  -48.2845 N.am      12 UNK        -0.5000 
     70 CA         -1.8420  -22.3939  -49.4172 C.3       12 UNK         0.1400 
     71 CB         -2.7214  -21.2077  -49.8235 C.3       12 UNK        -0.1800 
     72 C          -2.6979  -23.6436  -49.1636 C.2       12 UNK         0.5000 
     73 O          -2.8337  -24.4626  -50.0717 O.2       12 UNK        -0.5000 
     74 N          -3.2284  -23.7861  -47.9417 N.am      13 UNK        -0.5000 
     75 CA         -3.9829  -24.9591  -47.5032 C.3       13 UNK         0.1400 
     76 CB         -4.6442  -24.6734  -46.1466 C.3       13 UNK        -0.1800 
     77 C          -3.1153  -26.2289  -47.4348 C.2       13 UNK         0.5000 
     78 O          -3.5469  -27.2788  -47.9113 O.2       13 UNK        -0.5000 
     79 N          -1.9043  -26.1086  -46.8714 N.am      14 UNK        -0.5000 
     80 CA         -0.9298  -27.1955  -46.7560 C.3       14 UNK         0.1400 
     81 CB          0.2105  -26.7689  -45.8190 C.3       14 UNK        -0.1800 
     82 C          -0.3724  -27.6446  -48.1182 C.2       14 UNK         0.5000 
     83 O          -0.2386  -28.8459  -48.3547 O.2       14 UNK        -0.5000 
     84 N          -0.0752  -26.6752  -48.9935 N.am      15 UNK        -0.5000 
     85 CA          0.4058  -26.9068  -50.3563 C.3       15 UNK         0.1400 
     86 CB          1.0303  -25.6063  -50.8870 C.3       15 UNK        -0.1800 
     87 C          -0.6944  -27.3924  -51.3200 C.2       15 UNK         0.5000 
     88 O          -0.3658  -27.9543  -52.3656 O.2       15 UNK        -0.5000 
     89 N          -1.9642  -27.1339  -50.9696 N.am      16 UNK        -0.5000 
     90 CA         -3.1679  -27.2814  -51.7957 C.3       16 UNK         0.1400 
     91 CB         -3.4553  -28.7651  -52.1047 C.3       16 UNK        -0.1800 
     92 C          -3.0948  -26.3898  -53.0544 C.2       16 UNK         0.5000 
     93 O          -3.3994  -26.8383  -54.1612 O.2       16 UNK        -0.5000 
     94 N          -2.6393  -25.1456  -52.8521 N.am      17 UNK        -0.5000 
     95 CA         -2.3436  -24.1748  -53.9041 C.3       17 UNK         0.1400 
     96 CB         -1.4961  -23.0338  -53.3191 C.3       17 UNK        -0.1800 
     97 C          -3.6107  -23.6219  -54.5754 C.2       17 UNK         0.5000 
     98 O          -3.6550  -23.5242  -55.8025 O.2       17 UNK        -0.5000 
     99 N          -4.6162  -23.2840  -53.7605 N.am      18 UNK        -0.5000 
    100 CA        -5.9086  -22.7587  -54.1825 C.3       18 UNK         0.1400 
    101 CB        -5.7690  -21.3107  -54.6940 C.3       18 UNK        -0.1800 
    102 C         -6.8646  -22.7974  -52.9871 C.2       18 UNK         0.5000 
    103 O         -6.4363  -22.5529  -51.8559 O.2       18 UNK        -0.5000 
    104 N         -8.1536  -23.0296  -53.2656 N.am      19 UNK        -0.5000 
    105 CA        -9.2428  -22.9934  -52.2820 C.3       19 UNK         0.1400 
    106 CB       -10.5107  -23.5824  -52.9193 C.3       19 UNK        -0.1800 
    107 C         -9.5212  -21.5792  -51.7302 C.2       19 UNK         0.5000 
    108 O        -10.1092  -21.4493  -50.6564 O.2       19 UNK        -0.5000 
    109 N         -9.0730  -20.5498  -52.4635 N.am      20 UNK        -0.5000 
    110 CA        -9.1130  -19.1407  -52.0729 C.3       20 UNK         0.1400 
    111 CB        -8.7867  -18.2812  -53.3046 C.3       20 UNK        -0.1800 
    112 C         -8.1592  -18.7899  -50.9124 C.2       20 UNK         0.5000 
    113 O         -8.3303  -17.7307  -50.3082 O.2       20 UNK        -0.5000 
    114 N         -7.1704  -19.6578  -50.6348 N.am      21 UNK        -0.5000 
    115 CA        -6.1961  -19.5690  -49.5398 C.3       21 UNK         0.1400 
    116 CB        -6.8848  -19.8838  -48.1966 C.3       21 UNK        -0.1800 
    117 C         -5.4194  -18.2329  -49.5282 C.2       21 UNK         0.5000 
    118 O         -5.3380  -17.5677  -48.4954 O.2       21 UNK        -0.5000 
    119 N         -4.9133  -17.8517  -50.7087 N.am      22 UNK        -0.5000 
    120 CA        -4.2409  -16.5726  -51.0133 C.3       22 UNK         0.1400 
    121 C         -5.1863  -15.3315  -51.0642 C.2       22 UNK         0.5000 
    122 N         -6.4973  -15.4641  -50.8987 N.am      22 UNK        -0.7600 
    123 O         -4.7247  -14.2179  -51.2984 O.2       22 UNK        -0.5000 
    124 C124       -2.9779  -16.2898  -50.1465 C.3       23 UNK        -0.0398 
    125 S125       -1.7574  -17.6467  -50.1646 S.3       23 UNK        -0.2404 
    126 C126       -0.2311  -16.8146  -50.7208 C.3       23 UNK        -0.0205 
    127 H127        6.0481  -12.7334  -53.7912 H         1 UNK         0.0600 
    128 H128        4.6385  -11.8019  -53.2739 H         1 UNK         0.0600 
    129 H129        4.6976  -13.5442  -52.9932 H         1 UNK         0.0600 
    130 H130        5.0796  -14.0017  -50.8469 H         1 UNK         0.3000 
    131 H131        7.2316  -12.7428  -49.3496 H         1 UNK         0.0600 
    132 H132        6.6522  -14.3643  -47.5783 H         1 UNK         0.0800 
    133 H133        6.9513  -15.1453  -49.0946 H         1 UNK         0.0800 
    134 H134        4.8728  -16.0000  -50.7484 H         1 UNK         0.0800 
    135 H135        5.5987  -17.1679  -49.6700 H         1 UNK         0.0800 
    136 H136        2.1983  -15.7028  -50.3820 H         1 UNK         0.1150 
    137 H137        0.2600  -19.5310  -50.2624 H         1 UNK         0.1150 
    138 H138        4.4594  -19.2294  -49.4947 H         1 UNK         0.1150 
    139 H139        1.4878  -21.5186  -49.8980 H         1 UNK         0.0800 
    140 H140        3.1314  -21.4330  -50.4637 H         1 UNK         0.0800 
    141 H141        1.1504  -20.2676  -47.4095 H         1 UNK         0.0800 
    142 H142        2.1591  -20.6905  -46.0626 H         1 UNK         0.0800 
    143 H143        1.3675  -23.0778  -46.1912 H         1 UNK         0.0600 
    144 H144       -0.1105  -20.9151  -45.1869 H         1 UNK         0.3000 
    145 H145       -2.8595  -22.7292  -43.7669 H         1 UNK         0.0600 
    146 H146       -2.0462  -21.5198  -41.7735 H         1 UNK         0.0600 
    147 H147       -0.9519  -22.8408  -42.1530 H         1 UNK         0.0600 
    148 H148       -0.5036  -21.1881  -42.5578 H         1 UNK         0.0600 
    149 H149       -2.2958  -19.9538  -43.7832 H         1 UNK         0.3000 
    150 H150       -3.9554  -19.1760  -46.8817 H         1 UNK         0.0600 
    151 H151       -5.6516  -19.2751  -45.0242 H         1 UNK         0.0600 
    152 H152       -5.1155  -17.6351  -45.3533 H         1 UNK         0.0600 
    153 H153       -4.5017  -18.4976  -43.9431 H         1 UNK         0.0600 
    154 H154       -2.5691  -17.4612  -45.1325 H         1 UNK         0.3000 
    155 H155        0.6924  -17.8189  -46.6444 H         1 UNK         0.0600 
    156 H156       -1.3729  -15.5675  -46.3828 H         1 UNK         0.0600 
    157 H157       -0.6437  -16.1142  -47.8859 H         1 UNK         0.0600 
    158 H158        0.3565  -15.3642  -46.6549 H         1 UNK         0.0600 
    159 H159       -0.1337  -16.3333  -44.3734 H         1 UNK         0.3000 
    160 H160        0.4463  -18.8466  -41.8811 H         1 UNK         0.0600 
    161 H161        1.8146  -16.1977  -42.5932 H         1 UNK         0.0600 
    162 H162        2.6237  -17.7404  -42.3651 H         1 UNK         0.0600 
    163 H163        1.8142  -16.9704  -41.0095 H         1 UNK         0.0600 
    164 H164       -0.5496  -16.1482  -41.8042 H         1 UNK         0.3000 
    165 H165       -4.0126  -16.9779  -41.9244 H         1 UNK         0.0600 
    166 H166       -3.9801  -15.8596  -39.7131 H         1 UNK         0.0600 
    167 H167       -3.3290  -17.4849  -39.5757 H         1 UNK         0.0600 
    168 H168       -2.2383  -16.1041  -39.5800 H         1 UNK         0.0600 
    169 H169       -2.5979  -14.5296  -41.4591 H         1 UNK         0.3000 
    170 H170       -2.3497  -13.5234  -44.8742 H         1 UNK         0.0600 
    171 H171       -4.6572  -12.9401  -44.1026 H         1 UNK         0.0600 
    172 H172       -4.0276  -12.5057  -42.5179 H         1 UNK         0.0600 
    173 H173       -3.5600  -11.5783  -43.9435 H         1 UNK         0.0600 
    174 H174       -1.5350  -12.1706  -42.5443 H         1 UNK         0.3000 
    175 H175        0.8421  -11.7885  -42.4762 H         1 UNK         0.0600 
    176 H176       -0.0042  -13.0088  -40.4343 H         1 UNK         0.0600 
    177 H177        1.0333  -14.3808  -40.8079 H         1 UNK         0.0600 
    178 H178        1.7406  -12.8314  -40.3591 H         1 UNK         0.0600 
    179 H179        2.0635  -14.0705  -43.6555 H         1 UNK         0.3000 
    180 H180        5.2774  -13.5549  -43.2492 H         1 UNK         0.0600 
    181 H181        3.2372  -14.2424  -45.4381 H         1 UNK         0.0600 
    182 H182        3.6924  -15.2863  -44.0881 H         1 UNK         0.0600 
    183 H183        4.8724  -14.8740  -45.3119 H         1 UNK         0.0600 
    184 H184        6.0625  -12.2341  -44.8519 H         1 UNK         0.3000 
    185 H185        4.6493   -9.8841  -47.1394 H         1 UNK         0.0600 
    186 H186        6.8690   -9.0552  -46.5031 H         1 UNK         0.0600 
    187 H187        5.8319   -9.0645  -45.0863 H         1 UNK         0.0600 
    188 H188        7.0556  -10.3131  -45.2855 H         1 UNK         0.0600 
    189 H189        6.9469  -11.6647  -47.3139 H         1 UNK         0.3000 
    190 H190       -1.1573  -21.1109  -47.8662 H         1 UNK         0.3000 
    191 H191       -1.1813  -22.6248  -50.2549 H         1 UNK         0.0600 
    192 H192       -3.4637  -21.4975  -50.5686 H         1 UNK         0.0600 
    193 H193       -2.1139  -20.4230  -50.2674 H         1 UNK         0.0600 
    194 H194       -3.2475  -20.7861  -48.9666 H         1 UNK         0.0600 
    195 H195       -3.1210  -23.0339  -47.2668 H         1 UNK         0.3000 
    196 H196       -4.7754  -25.1375  -48.2332 H         1 UNK         0.0600 
    197 H197       -5.2227  -25.5324  -45.8046 H         1 UNK         0.0600 
    198 H198       -5.3274  -23.8265  -46.2130 H         1 UNK         0.0600 
    199 H199       -3.9052  -24.4465  -45.3778 H         1 UNK         0.0600 
    200 H200       -1.6333  -25.2154  -46.4679 H         1 UNK         0.3000 
    201 H201       -1.4345  -28.0525  -46.3052 H         1 UNK         0.0600 
    202 H202       -0.1652  -26.5393  -44.8218 H         1 UNK         0.0600 
    203 H203        0.7283  -25.8843  -46.1923 H         1 UNK         0.0600 
    204 H204        0.9496  -27.5640  -45.7132 H         1 UNK         0.0600 
    205 H205       -0.1514  -25.7042  -48.6979 H         1 UNK         0.3000 
    206 H206        1.1831  -27.6732  -50.3260 H         1 UNK         0.0600 
    207 H207        0.2976  -24.7994  -50.9288 H         1 UNK         0.0600 
    208 H208        1.4279  -25.7421  -51.8935 H         1 UNK         0.0600 
    209 H209        1.8539  -25.2763  -50.2534 H         1 UNK         0.0600 
    210 H210       -2.1066  -26.6325  -50.1024 H         1 UNK         0.3000 
    211 H211       -3.9977  -26.9020  -51.1974 H         1 UNK         0.0600 
    212 H212       -2.6949  -29.2029  -52.7518 H         1 UNK         0.0600 
    213 H213       -4.4158  -28.8779  -52.6085 H         1 UNK         0.0600 
    214 H214       -3.4974  -29.3554  -51.1893 H         1 UNK         0.0600 
    215 H215       -2.4816  -24.8546  -51.8911 H         1 UNK         0.3000 
    216 H216       -1.7505  -24.6783  -54.6705 H         1 UNK         0.0600 
    217 H217       -2.0377  -22.4832  -52.5498 H         1 UNK         0.0600 
    218 H218       -1.2163  -22.3202  -54.0950 H         1 UNK         0.0600 
    219 H219       -0.5736  -23.4115  -52.8780 H         1 UNK         0.0600 
    220 H220       -4.5185  -23.4117  -52.7611 H         1 UNK         0.3000 
    221 H221       -6.3051  -23.3945  -54.9770 H         1 UNK         0.0600 
    222 H222       -5.1326  -21.2552  -55.5769 H         1 UNK         0.0600 
    223 H223       -5.3406  -20.6566  -53.9334 H         1 UNK         0.0600 
    224 H224       -6.7384  -20.8976  -54.9752 H         1 UNK         0.0600 
    225 H225       -8.4232  -23.2157  -54.2213 H         1 UNK         0.3000 
    226 H226       -8.9588  -23.6235  -51.4364 H         1 UNK         0.0600 
    227 H227      -10.3470  -24.6088  -53.2483 H         1 UNK         0.0600 
    228 H228      -11.3354  -23.5997  -52.2055 H         1 UNK         0.0600 
    229 H229      -10.8359  -22.9997  -53.7821 H         1 UNK         0.0600 
    230 H230       -8.6276  -20.7584  -53.3440 H         1 UNK         0.3000 
    231 H231      -10.1278  -18.9052  -51.7457 H         1 UNK         0.0600 
    232 H232       -9.4957  -18.4631  -54.1124 H         1 UNK         0.0600 
    233 H233       -7.7844  -18.4847  -53.6839 H         1 UNK         0.0600 
    234 H234       -8.8365  -17.2180  -53.0651 H         1 UNK         0.0600 
    235 H235       -7.1094  -20.4996  -51.1940 H         1 UNK         0.3000 
    236 H236       -5.4653  -20.3556  -49.7230 H         1 UNK         0.0600 
    237 H237       -6.1547  -19.9691  -47.3927 H         1 UNK         0.0600 
    238 H238       -7.5975  -19.1076  -47.9156 H         1 UNK         0.0600 
    239 H239       -7.4224  -20.8310  -48.2432 H         1 UNK         0.0600 
    240 H240       -5.0581  -18.4585  -51.5019 H         1 UNK         0.3000 
    241 H241       -3.8940  -16.6849  -52.0409 H         1 UNK         0.0600 
    242 H242       -7.0798  -14.6439  -50.9512 H         1 UNK         0.3800 
    243 H243       -6.9201  -16.3564  -50.6687 H         1 UNK         0.3800 
    244 H244       -2.4889  -15.3768  -50.4887 H         1 UNK         0.0800 
    245 H245       -3.2575  -16.1026  -49.1089 H         1 UNK         0.0800 
    246 H246       -0.2705  -16.6950  -51.8040 H         1 UNK         0.0800 
    247 H247       -0.2099  -15.8096  -50.2969 H         1 UNK         0.0800 
@<TRIPOS>BOND
     1    1    2 1    
     2    1  127 1    
     3    1  128 1    
     4    1  129 1    
     5    2    3 2    
     6    2    4 am   BACKBONE|DICT|INTERRES
     7    4    5 1    
     8    4  130 1    
     9    5    6 1    
    10    5   65 1    
    11    5  131 1    
    12    6    7 1    
    13    6  132 1    
    14    6  133 1    
    15    7    8 1    
    16    8    9 1    
    17    8  134 1    
    18    8  135 1    
    19    9   10 ar   
    20    9   14 ar   
    21   10   11 ar   
    22   10  136 1    
    23   11   12 ar   
    24   11  126 1    
    25   12   13 ar   
    26   12  137 1    
    27   13   14 ar   
    28   13   15 1    
    29   14  138 1    
    30   15   16 1    
    31   15  139 1    
    32   15  140 1    
    33   16   17 1    
    34   17   18 1    
    35   17  141 1    
    36   17  142 1    
    37   18   19 1    
    38   18   67 1    
    39   18  143 1    
    40   19   20 am   BACKBONE|DICT|INTERRES
    41   19  144 1    
    42   20   21 2    
    43   20   22 1    
    44   22   23 1    
    45   22   24 1    
    46   22  145 1    
    47   23  146 1    
    48   23  147 1    
    49   23  148 1    
    50   24   25 am   BACKBONE|DICT|INTERRES
    51   24  149 1    
    52   25   26 2    
    53   25   27 1    
    54   27   28 1    
    55   27   29 1    
    56   27  150 1    
    57   28  151 1    
    58   28  152 1    
    59   28  153 1    
    60   29   30 am   BACKBONE|DICT|INTERRES
    61   29  154 1    
    62   30   31 2    
    63   30   32 1    
    64   32   33 1    
    65   32   34 1    
    66   32  155 1    
    67   33  156 1    
    68   33  157 1    
    69   33  158 1    
    70   34   35 am   BACKBONE|DICT|INTERRES
    71   34  159 1    
    72   35   36 2    
    73   35   37 1    
    74   37   38 1    
    75   37   39 1    
    76   37  160 1    
    77   38  161 1    
    78   38  162 1    
    79   38  163 1    
    80   39   40 am   BACKBONE|DICT|INTERRES
    81   39  164 1    
    82   40   41 2    
    83   40   42 1    
    84   42   43 1    
    85   42   44 1    
    86   42  165 1    
    87   43  166 1    
    88   43  167 1    
    89   43  168 1    
    90   44   45 am   BACKBONE|DICT|INTERRES
    91   44  169 1    
    92   45   46 2    
    93   45   47 1    
    94   47   48 1    
    95   47   49 1    
    96   47  170 1    
    97   48  171 1    
    98   48  172 1    
    99   48  173 1    
   100   49   50 am   BACKBONE|DICT|INTERRES
   101   49  174 1    
   102   50   51 2    
   103   50   52 1    
   104   52   53 1    
   105   52   54 1    
   106   52  175 1    
   107   53  176 1    
   108   53  177 1    
   109   53  178 1    
   110   54   55 am   BACKBONE|DICT|INTERRES
   111   54  179 1    
   112   55   56 2    
   113   55   57 1    
   114   57   58 1    
   115   57   59 1    
   116   57  180 1    
   117   58  181 1    
   118   58  182 1    
   119   58  183 1    
   120   59   60 am   BACKBONE|DICT|INTERRES
   121   59  184 1    
   122   60   61 2    
   123   60   62 1    
   124   62   63 1    
   125   62   64 1    
   126   62  185 1    
   127   63  186 1    
   128   63  187 1    
   129   63  188 1    
   130   64   65 am   BACKBONE|DICT|INTERRES
   131   64  189 1    
   132   65   66 2    
   133   67   68 2    
   134   67   69 am   BACKBONE|DICT|INTERRES
   135   69   70 1    
   136   69  190 1    
   137   70   71 1    
   138   70   72 1    
   139   70  191 1    
   140   71  192 1    
   141   71  193 1    
   142   71  194 1    
   143   72   73 2    
   144   72   74 am   BACKBONE|DICT|INTERRES
   145   74   75 1    
   146   74  195 1    
   147   75   76 1    
   148   75   77 1    
   149   75  196 1    
   150   76  197 1    
   151   76  198 1    
   152   76  199 1    
   153   77   78 2    
   154   77   79 am   BACKBONE|DICT|INTERRES
   155   79   80 1    
   156   79  200 1    
   157   80   81 1    
   158   80   82 1    
   159   80  201 1    
   160   81  202 1    
   161   81  203 1    
   162   81  204 1    
   163   82   83 2    
   164   82   84 am   BACKBONE|DICT|INTERRES
   165   84   85 1    
   166   84  205 1    
   167   85   86 1    
   168   85   87 1    
   169   85  206 1    
   170   86  207 1    
   171   86  208 1    
   172   86  209 1    
   173   87   88 2    
   174   87   89 am   BACKBONE|DICT|INTERRES
   175   89   90 1    
   176   89  210 1    
   177   90   91 1    
   178   90   92 1    
   179   90  211 1    
   180   91  212 1    
   181   91  213 1    
   182   91  214 1    
   183   92   93 2    
   184   92   94 am   BACKBONE|DICT|INTERRES
   185   94   95 1    
   186   94  215 1    
   187   95   96 1    
   188   95   97 1    
   189   95  216 1    
   190   96  217 1    
   191   96  218 1    
   192   96  219 1    
   193   97   98 2    
   194   97   99 am   BACKBONE|DICT|INTERRES
   195   99  100 1    
   196   99  220 1    
   197  100  101 1    
   198  100  102 1    
   199  100  221 1    
   200  101  222 1    
   201  101  223 1    
   202  101  224 1    
   203  102  103 2    
   204  102  104 am   BACKBONE|DICT|INTERRES
   205  104  105 1    
   206  104  225 1    
   207  105  106 1    
   208  105  107 1    
   209  105  226 1    
   210  106  227 1    
   211  106  228 1    
   212  106  229 1    
   213  107  108 2    
   214  107  109 am   BACKBONE|DICT|INTERRES
   215  109  110 1    
   216  109  230 1    
   217  110  111 1    
   218  110  112 1    
   219  110  231 1    
   220  111  232 1    
   221  111  233 1    
   222  111  234 1    
   223  112  113 2    
   224  112  114 am   BACKBONE|DICT|INTERRES
   225  114  115 1    
   226  114  235 1    
   227  115  116 1    
   228  115  117 1    
   229  115  236 1    
   230  116  237 1    
   231  116  238 1    
   232  116  239 1    
   233  117  118 2    
   234  117  119 am   BACKBONE|DICT|INTERRES
   235  119  120 1    
   236  119  240 1    
   237  120  121 1    
   238  120  124 1    
   239  120  241 1    
   240  121  122 am   BACKBONE|DICT|INTERRES
   241  121  123 2    
   242  122  242 1    
   243  122  243 1    
   244  124  125 1    
   245  124  244 1    
   246  124  245 1    
   247  125  126 1    
   248  126  246 1    
   249  126  247 1    
@<TRIPOS>SUBSTRUCTURE
     1 UNK         1 GROUP             0       ****    0 ROOT    
