@<TRIPOS>MOLECULE
3R540
247   249    1
SMALL
USER_CHARGES


@<TRIPOS>ATOM
      1 CA         -0.7858  -11.8225  -46.3131 C.3       0 UNK        -0.1800 
      2 C           0.6207  -11.5014  -46.7970 C.2       0 UNK         0.5000 
      3 O           0.7995  -10.5690  -47.5817 O.2       0 UNK        -0.5000 
      4 N           1.6150  -12.2750  -46.3454 N.am      1 UNK        -0.5000 
      5 CA          3.0298  -12.0963  -46.6897 C.3       1 UNK         0.1400 
      6 C6          3.8717  -13.3837  -46.4712 C.3       23 UNK        -0.0398 
      7 S7          3.0664  -14.9053  -47.0599 S.3       23 UNK        -0.2404 
      8 C8          3.5255  -14.9405  -48.8126 C.3       23 UNK        -0.0205 
      9 C9          2.7686  -16.0574  -49.5084 C.ar      23 UNK        -0.0193 
     10 C10         1.5364  -15.7990  -50.1157 C.ar      23 UNK        -0.1150 
     11 C11         0.8078  -16.8329  -50.7106 C.ar      23 UNK        -0.0193 
     12 C12         1.3272  -18.1309  -50.6992 C.ar      23 UNK        -0.1150 
     13 C13         2.5583  -18.4014  -50.0944 C.ar      23 UNK        -0.0193 
     14 C14         3.2767  -17.3590  -49.5037 C.ar      23 UNK        -0.1150 
     15 C15         3.1068  -19.8202  -50.0654 C.3       23 UNK        -0.0205 
     16 S16         2.6009  -20.7075  -48.5576 S.3       23 UNK        -0.2404 
     17 C17         0.8068  -20.8561  -48.8374 C.3       23 UNK        -0.0398 
     18 CA          0.1613  -21.9814  -48.0004 C.3       11 UNK         0.1400 
     19 N           0.1381  -21.6874  -46.5636 N.am      11 UNK        -0.5000 
     20 C          -0.2413  -22.5621  -45.6202 C.2       10 UNK         0.5000 
     21 O          -0.5459  -23.7316  -45.8558 O.2       10 UNK        -0.5000 
     22 CA         -0.3605  -22.0314  -44.1805 C.3       10 UNK         0.1400 
     23 CB          1.0132  -21.9739  -43.4962 C.3       10 UNK        -0.1800 
     24 N          -1.0075  -20.7199  -44.1207 N.am      10 UNK        -0.5000 
     25 C          -2.2773  -20.4862  -44.4830 C.2       9 UNK         0.5000 
     26 O          -3.0539  -21.3691  -44.8461 O.2       9 UNK        -0.5000 
     27 CA         -2.7484  -19.0195  -44.4892 C.3       9 UNK         0.1400 
     28 CB         -3.1645  -18.5698  -43.0815 C.3       9 UNK        -0.1800 
     29 N          -1.7394  -18.1043  -45.0231 N.am      9 UNK        -0.5000 
     30 C          -1.2747  -18.1351  -46.2811 C.2       8 UNK         0.5000 
     31 O          -1.6883  -18.9074  -47.1451 O.2       8 UNK        -0.5000 
     32 CA         -0.1184  -17.1767  -46.6126 C.3       8 UNK         0.1400 
     33 CB         -0.6551  -15.7787  -46.9555 C.3       8 UNK        -0.1800 
     34 N           0.8478  -17.0931  -45.5153 N.am      8 UNK        -0.5000 
     35 C           1.6347  -18.1095  -45.1333 C.2       7 UNK         0.5000 
     36 O           1.6374  -19.2115  -45.6803 O.2       7 UNK        -0.5000 
     37 CA          2.5087  -17.8829  -43.8856 C.3       7 UNK         0.1400 
     38 CB          3.7862  -17.0989  -44.2188 C.3       7 UNK        -0.1800 
     39 N           1.7811  -17.1976  -42.8181 N.am      7 UNK        -0.5000 
     40 C           0.7664  -17.7432  -42.1323 C.2       6 UNK         0.5000 
     41 O           0.3737  -18.8965  -42.3007 O.2       6 UNK        -0.5000 
     42 CA          0.0425  -16.8426  -41.1138 C.3       6 UNK         0.1400 
     43 CB          0.6944  -16.9687  -39.7289 C.3       6 UNK        -0.1800 
     44 N           0.0109  -15.4316  -41.5001 N.am      6 UNK        -0.5000 
     45 C          -0.5534  -14.9404  -42.6131 C.2       5 UNK         0.5000 
     46 O          -1.1425  -15.6341  -43.4423 O.2       5 UNK        -0.5000 
     47 CA         -0.3961  -13.4269  -42.8598 C.3       5 UNK         0.1400 
     48 CB         -1.6717  -12.6748  -42.4553 C.3       5 UNK        -0.1800 
     49 N           0.7549  -12.8458  -42.1605 N.am      5 UNK        -0.5000 
     50 C           2.0300  -13.0848  -42.4916 C.2       4 UNK         0.5000 
     51 O           2.3644  -13.7691  -43.4624 O.2       4 UNK        -0.5000 
     52 CA          3.0989  -12.5354  -41.5377 C.3       4 UNK         0.1400 
     53 CB          3.2490  -13.4845  -40.3301 C.3       4 UNK        -0.1800 
     54 N           4.3597  -12.4193  -42.2637 N.am      4 UNK        -0.5000 
     55 C           5.4838  -11.8442  -41.8190 C.2       3 UNK         0.5000 
     56 O           5.6002  -11.3226  -40.7093 O.2       3 UNK        -0.5000 
     57 CA          6.6759  -11.8328  -42.7937 C.3       3 UNK         0.1400 
     58 CB          7.1972  -13.2566  -43.0519 C.3       3 UNK        -0.1800 
     59 N           6.3289  -11.2025  -44.0666 N.am      3 UNK        -0.5000 
     60 C           6.1089   -9.8899  -44.2356 C.2       2 UNK         0.5000 
     61 O           6.2685   -9.0480  -43.3510 O.2       2 UNK        -0.5000 
     62 CA          5.6131   -9.4417  -45.6268 C.3       2 UNK         0.1400 
     63 CB          6.7978   -9.0313  -46.5150 C.3       2 UNK        -0.1800 
     64 N           4.8233  -10.4648  -46.3207 N.am      2 UNK        -0.5000 
     65 C           3.6404  -10.9256  -45.8905 C.2       1 UNK         0.5000 
     66 O           3.0736  -10.4980  -44.8808 O.2       1 UNK        -0.5000 
     67 C          -1.2449  -22.3067  -48.5421 C.2       11 UNK         0.5000 
     68 O          -1.3882  -23.2784  -49.2816 O.2       11 UNK        -0.5000 
     69 N          -2.2589  -21.5224  -48.1471 N.am      12 UNK        -0.5000 
     70 CA         -3.6616  -21.7483  -48.4990 C.3       12 UNK         0.1400 
     71 CB         -4.5261  -20.5824  -47.9973 C.3       12 UNK        -0.1800 
     72 C          -4.1962  -23.0914  -47.9733 C.2       12 UNK         0.5000 
     73 O          -4.8568  -23.8090  -48.7241 O.2       12 UNK        -0.5000 
     74 N          -3.8707  -23.4255  -46.7171 N.am      13 UNK        -0.5000 
     75 CA         -4.2023  -24.7016  -46.0829 C.3       13 UNK         0.1400 
     76 CB         -3.8329  -24.6525  -44.5929 C.3       13 UNK        -0.1800 
     77 C          -3.5329  -25.9000  -46.7798 C.2       13 UNK         0.5000 
     78 O          -4.2089  -26.8916  -47.0574 O.2       13 UNK        -0.5000 
     79 N          -2.2362  -25.7690  -47.0986 N.am      14 UNK        -0.5000 
     80 CA         -1.4585  -26.7545  -47.8568 C.3       14 UNK         0.1400 
     81 CB          0.0196  -26.3376  -47.8755 C.3       14 UNK        -0.1800 
     82 C          -1.9850  -26.9626  -49.2906 C.2       14 UNK         0.5000 
     83 O          -1.9655  -28.0871  -49.7909 O.2       14 UNK        -0.5000 
     84 N          -2.4969  -25.8861  -49.8996 N.am      15 UNK        -0.5000 
     85 CA         -3.1681  -25.8668  -51.1984 C.3       15 UNK         0.1400 
     86 CB         -2.9800  -24.4780  -51.8331 C.3       15 UNK        -0.1800 
     87 C          -4.6602  -26.2614  -51.1269 C.2       15 UNK         0.5000 
     88 O          -5.4011  -25.9453  -52.0563 O.2       15 UNK        -0.5000 
     89 N          -5.0863  -26.9334  -50.0460 N.am      16 UNK        -0.5000 
     90 CA         -6.4243  -27.4924  -49.8213 C.3       16 UNK         0.1400 
     91 CB         -6.6908  -28.6591  -50.7960 C.3       16 UNK        -0.1800 
     92 C          -7.5332  -26.4208  -49.8444 C.2       16 UNK         0.5000 
     93 O          -8.5243  -26.5645  -50.5625 O.2       16 UNK        -0.5000 
     94 N          -7.3193  -25.3586  -49.0565 N.am      17 UNK        -0.5000 
     95 CA         -8.1347  -24.1444  -48.9583 C.3       17 UNK         0.1400 
     96 CB         -9.5772  -24.4512  -48.5015 C.3       17 UNK        -0.1800 
     97 C          -8.0525  -23.3016  -50.2464 C.2       17 UNK         0.5000 
     98 O          -9.0758  -22.8581  -50.7706 O.2       17 UNK        -0.5000 
     99 N          -6.8108  -23.0917  -50.7078 N.am      18 UNK        -0.5000 
    100 CA        -6.4080  -22.2655  -51.8489 C.3       18 UNK         0.1400 
    101 CB        -6.6646  -20.7757  -51.5413 C.3       18 UNK        -0.1800 
    102 C         -7.0209  -22.7215  -53.1903 C.2       18 UNK         0.5000 
    103 O         -7.4869  -21.8919  -53.9741 O.2       18 UNK        -0.5000 
    104 N         -7.0074  -24.0368  -53.4433 N.am      19 UNK        -0.5000 
    105 CA        -7.4589  -24.6413  -54.6940 C.3       19 UNK         0.1400 
    106 CB        -7.6925  -26.1465  -54.4798 C.3       19 UNK        -0.1800 
    107 C         -6.4308  -24.3675  -55.8071 C.2       19 UNK         0.5000 
    108 O         -5.3884  -25.0236  -55.8509 O.2       19 UNK        -0.5000 
    109 N         -6.7340  -23.3722  -56.6535 N.am      20 UNK        -0.5000 
    110 CA        -5.8923  -22.8409  -57.7335 C.3       20 UNK         0.1400 
    111 CB        -5.6973  -23.8901  -58.8488 C.3       20 UNK        -0.1800 
    112 C         -4.5635  -22.2455  -57.2159 C.2       20 UNK         0.5000 
    113 O         -3.5101  -22.4464  -57.8240 O.2       20 UNK        -0.5000 
    114 N         -4.6426  -21.5204  -56.0950 N.am      21 UNK        -0.5000 
    115 CA        -3.5294  -20.8509  -55.4296 C.3       21 UNK         0.1400 
    116 CB        -2.8831  -21.8214  -54.4242 C.3       21 UNK        -0.1800 
    117 C         -4.0520  -19.5899  -54.7254 C.2       21 UNK         0.5000 
    118 O         -5.2668  -19.3957  -54.6374 O.2       21 UNK        -0.5000 
    119 N         -3.1302  -18.7608  -54.2230 N.am      22 UNK        -0.5000 
    120 CA        -3.4448  -17.5775  -53.4037 C.3       22 UNK         0.1400 
    121 C         -3.8166  -17.8930  -51.9246 C.2       22 UNK         0.5000 
    122 N         -3.5472  -19.0875  -51.4106 N.am      22 UNK        -0.7600 
    123 O         -4.3584  -17.0366  -51.2320 O.2       22 UNK        -0.5000 
    124 C124       -2.3420  -16.4901  -53.5011 C.3       23 UNK        -0.0398 
    125 S125       -0.6609  -17.0634  -53.0658 S.3       23 UNK        -0.2404 
    126 C126       -0.5596  -16.5551  -51.3183 C.3       23 UNK        -0.0205 
    127 H127       -0.9998  -11.2829  -45.3907 H         1 UNK         0.0600 
    128 H128       -0.9082  -12.8893  -46.1318 H         1 UNK         0.0600 
    129 H129       -1.5224  -11.5271  -47.0603 H         1 UNK         0.0600 
    130 H130        1.4321  -13.0041  -45.6707 H         1 UNK         0.3000 
    131 H131        3.0862  -11.8395  -47.7497 H         1 UNK         0.0600 
    132 H132        4.8451  -13.2948  -46.9560 H         1 UNK         0.0800 
    133 H133        4.0801  -13.5353  -45.4116 H         1 UNK         0.0800 
    134 H134        4.6018  -15.0894  -48.9108 H         1 UNK         0.0800 
    135 H135        3.2938  -13.9802  -49.2755 H         1 UNK         0.0800 
    136 H136        1.1352  -14.7953  -50.1009 H         1 UNK         0.1150 
    137 H137        0.7625  -18.9328  -51.1529 H         1 UNK         0.1150 
    138 H138        4.2205  -17.5647  -49.0185 H         1 UNK         0.1150 
    139 H139        2.7818  -20.3735  -50.9478 H         1 UNK         0.0800 
    140 H140        4.1966  -19.7946  -50.1091 H         1 UNK         0.0800 
    141 H141        0.6542  -21.0449  -49.9017 H         1 UNK         0.0800 
    142 H142        0.3359  -19.8961  -48.6221 H         1 UNK         0.0800 
    143 H143        0.7627  -22.8832  -48.1336 H         1 UNK         0.0600 
    144 H144        0.4307  -20.7562  -46.2842 H         1 UNK         0.3000 
    145 H145       -0.9835  -22.7326  -43.6215 H         1 UNK         0.0600 
    146 H146        0.9204  -21.6741  -42.4523 H         1 UNK         0.0600 
    147 H147        1.4974  -22.9511  -43.5122 H         1 UNK         0.0600 
    148 H148        1.6825  -21.2684  -43.9879 H         1 UNK         0.0600 
    149 H149       -0.4454  -19.9506  -43.7704 H         1 UNK         0.3000 
    150 H150       -3.6251  -18.9544  -45.1364 H         1 UNK         0.0600 
    151 H151       -3.9810  -19.1861  -42.7033 H         1 UNK         0.0600 
    152 H152       -3.5086  -17.5353  -43.0813 H         1 UNK         0.0600 
    153 H153       -2.3410  -18.6500  -42.3731 H         1 UNK         0.0600 
    154 H154       -1.3760  -17.3984  -44.3907 H         1 UNK         0.3000 
    155 H155        0.4017  -17.5647  -47.4915 H         1 UNK         0.0600 
    156 H156       -1.1863  -15.3319  -46.1152 H         1 UNK         0.0600 
    157 H157       -1.3506  -15.8275  -47.7942 H         1 UNK         0.0600 
    158 H158        0.1480  -15.1027  -47.2455 H         1 UNK         0.0600 
    159 H159        0.8772  -16.2300  -44.9939 H         1 UNK         0.3000 
    160 H160        2.8085  -18.8662  -43.5168 H         1 UNK         0.0600 
    161 H161        3.5700  -16.0556  -44.4453 H         1 UNK         0.0600 
    162 H162        4.2982  -17.5266  -45.0818 H         1 UNK         0.0600 
    163 H163        4.4850  -17.1162  -43.3825 H         1 UNK         0.0600 
    164 H164        2.0264  -16.2332  -42.6448 H         1 UNK         0.3000 
    165 H165       -0.9898  -17.1886  -41.0390 H         1 UNK         0.0600 
    166 H166        0.1408  -16.4040  -38.9786 H         1 UNK         0.0600 
    167 H167        0.7151  -18.0088  -39.4006 H         1 UNK         0.0600 
    168 H168        1.7228  -16.6050  -39.7329 H         1 UNK         0.0600 
    169 H169        0.4639  -14.7838  -40.8740 H         1 UNK         0.3000 
    170 H170       -0.2445  -13.2933  -43.9305 H         1 UNK         0.0600 
    171 H171       -2.5406  -13.0675  -42.9853 H         1 UNK         0.0600 
    172 H172       -1.8705  -12.7635  -41.3866 H         1 UNK         0.0600 
    173 H173       -1.5975  -11.6144  -42.6975 H         1 UNK         0.0600 
    174 H174        0.5518  -12.2741  -41.3527 H         1 UNK         0.3000 
    175 H175        2.7946  -11.5430  -41.1997 H         1 UNK         0.0600 
    176 H176        3.9622  -13.1020  -39.6006 H         1 UNK         0.0600 
    177 H177        3.5877  -14.4744  -40.6392 H         1 UNK         0.0600 
    178 H178        2.3014  -13.6106  -39.8056 H         1 UNK         0.0600 
    179 H179        4.3257  -12.8103  -43.1953 H         1 UNK         0.3000 
    180 H180        7.4819  -11.2578  -42.3324 H         1 UNK         0.0600 
    181 H181        6.4578  -13.8783  -43.5582 H         1 UNK         0.0600 
    182 H182        7.4560  -13.7520  -42.1152 H         1 UNK         0.0600 
    183 H183        8.0966  -13.2394  -43.6677 H         1 UNK         0.0600 
    184 H184        6.1968  -11.8135  -44.8573 H         1 UNK         0.3000 
    185 H185        4.9762   -8.5665  -45.4818 H         1 UNK         0.0600 
    186 H186        7.3922   -8.2515  -46.0369 H         1 UNK         0.0600 
    187 H187        7.4618   -9.8729  -46.7159 H         1 UNK         0.0600 
    188 H188        6.4559   -8.6359  -47.4717 H         1 UNK         0.0600 
    189 H189        5.2288  -10.8456  -47.1638 H         1 UNK         0.3000 
    190 H190       -2.0557  -20.7018  -47.5813 H         1 UNK         0.3000 
    191 H191       -3.7280  -21.7722  -49.5884 H         1 UNK         0.0600 
    192 H192       -4.4944  -20.4944  -46.9120 H         1 UNK         0.0600 
    193 H193       -5.5702  -20.7199  -48.2802 H         1 UNK         0.0600 
    194 H194       -4.1949  -19.6321  -48.4155 H         1 UNK         0.0600 
    195 H195       -3.3680  -22.7503  -46.1469 H         1 UNK         0.3000 
    196 H196       -5.2833  -24.8368  -46.1576 H         1 UNK         0.0600 
    197 H197       -4.0921  -25.5874  -44.0948 H         1 UNK         0.0600 
    198 H198       -4.3676  -23.8517  -44.0817 H         1 UNK         0.0600 
    199 H199       -2.7656  -24.4863  -44.4461 H         1 UNK         0.0600 
    200 H200       -1.7403  -24.9331  -46.8003 H         1 UNK         0.3000 
    201 H201       -1.5359  -27.7104  -47.3348 H         1 UNK         0.0600 
    202 H202        0.4195  -26.2584  -46.8645 H         1 UNK         0.0600 
    203 H203        0.1596  -25.3744  -48.3665 H         1 UNK         0.0600 
    204 H204        0.6259  -27.0703  -48.4094 H         1 UNK         0.0600 
    205 H205       -2.4099  -24.9878  -49.4346 H         1 UNK         0.3000 
    206 H206       -2.6849  -26.5957  -51.8518 H         1 UNK         0.0600 
    207 H207       -1.9231  -24.2299  -51.9313 H         1 UNK         0.0600 
    208 H208       -3.4135  -24.4370  -52.8330 H         1 UNK         0.0600 
    209 H209       -3.4497  -23.6993  -51.2329 H         1 UNK         0.0600 
    210 H210       -4.4245  -27.0875  -49.2960 H         1 UNK         0.3000 
    211 H211       -6.4180  -27.9044  -48.8111 H         1 UNK         0.0600 
    212 H212       -6.7451  -28.3196  -51.8311 H         1 UNK         0.0600 
    213 H213       -7.6351  -29.1529  -50.5645 H         1 UNK         0.0600 
    214 H214       -5.9064  -29.4131  -50.7313 H         1 UNK         0.0600 
    215 H215       -6.4225  -25.3031  -48.5885 H         1 UNK         0.3000 
    216 H216       -7.6749  -23.5395  -48.1752 H         1 UNK         0.0600 
    217 H217      -10.1169  -23.5291  -48.2831 H         1 UNK         0.0600 
    218 H218       -9.5837  -25.0537  -47.5933 H         1 UNK         0.0600 
    219 H219      -10.1459  -24.9842  -49.2634 H         1 UNK         0.0600 
    220 H220       -6.0518  -23.5119  -50.1783 H         1 UNK         0.3000 
    221 H221       -5.3309  -22.3936  -51.9520 H         1 UNK         0.0600 
    222 H222       -7.7291  -20.5561  -51.4566 H         1 UNK         0.0600 
    223 H223       -6.1849  -20.4745  -50.6113 H         1 UNK         0.0600 
    224 H224       -6.2637  -20.1372  -52.3275 H         1 UNK         0.0600 
    225 H225       -6.5474  -24.6672  -52.7895 H         1 UNK         0.3000 
    226 H226       -8.4165  -24.1962  -54.9729 H         1 UNK         0.0600 
    227 H227       -8.4136  -26.3236  -53.6812 H         1 UNK         0.0600 
    228 H228       -8.0848  -26.6107  -55.3851 H         1 UNK         0.0600 
    229 H229       -6.7725  -26.6694  -54.2170 H         1 UNK         0.0600 
    230 H230       -7.5930  -22.8647  -56.4886 H         1 UNK         0.3000 
    231 H231       -6.4451  -22.0062  -58.1667 H         1 UNK         0.0600 
    232 H232       -6.6547  -24.2759  -59.1990 H         1 UNK         0.0600 
    233 H233       -5.0975  -24.7360  -58.5121 H         1 UNK         0.0600 
    234 H234       -5.1902  -23.4539  -59.7102 H         1 UNK         0.0600 
    235 H235       -5.5479  -21.3421  -55.6754 H         1 UNK         0.3000 
    236 H236       -2.7893  -20.5397  -56.1698 H         1 UNK         0.0600 
    237 H237       -2.0141  -21.3745  -53.9405 H         1 UNK         0.0600 
    238 H238       -3.5859  -22.1083  -53.6423 H         1 UNK         0.0600 
    239 H239       -2.5437  -22.7330  -54.9165 H         1 UNK         0.0600 
    240 H240       -2.1483  -18.9705  -54.3330 H         1 UNK         0.3000 
    241 H241       -4.3454  -17.1264  -53.8253 H         1 UNK         0.0600 
    242 H242       -3.7802  -19.2624  -50.4485 H         1 UNK         0.3800 
    243 H243       -3.0796  -19.7884  -51.9595 H         1 UNK         0.3800 
    244 H244       -2.2992  -16.1253  -54.5281 H         1 UNK         0.0800 
    245 H245       -2.6028  -15.6169  -52.9005 H         1 UNK         0.0800 
    246 H246       -1.3096  -17.0895  -50.7347 H         1 UNK         0.0800 
    247 H247       -0.8032  -15.4943  -51.2418 H         1 UNK         0.0800 
@<TRIPOS>BOND
     1    1    2 1    
     2    1  127 1    
     3    1  128 1    
     4    1  129 1    
     5    2    3 2    
     6    2    4 am   BACKBONE|DICT|INTERRES
     7    4    5 1    
     8    4  130 1    
     9    5    6 1    
    10    5   65 1    
    11    5  131 1    
    12    6    7 1    
    13    6  132 1    
    14    6  133 1    
    15    7    8 1    
    16    8    9 1    
    17    8  134 1    
    18    8  135 1    
    19    9   10 ar   
    20    9   14 ar   
    21   10   11 ar   
    22   10  136 1    
    23   11   12 ar   
    24   11  126 1    
    25   12   13 ar   
    26   12  137 1    
    27   13   14 ar   
    28   13   15 1    
    29   14  138 1    
    30   15   16 1    
    31   15  139 1    
    32   15  140 1    
    33   16   17 1    
    34   17   18 1    
    35   17  141 1    
    36   17  142 1    
    37   18   19 1    
    38   18   67 1    
    39   18  143 1    
    40   19   20 am   BACKBONE|DICT|INTERRES
    41   19  144 1    
    42   20   21 2    
    43   20   22 1    
    44   22   23 1    
    45   22   24 1    
    46   22  145 1    
    47   23  146 1    
    48   23  147 1    
    49   23  148 1    
    50   24   25 am   BACKBONE|DICT|INTERRES
    51   24  149 1    
    52   25   26 2    
    53   25   27 1    
    54   27   28 1    
    55   27   29 1    
    56   27  150 1    
    57   28  151 1    
    58   28  152 1    
    59   28  153 1    
    60   29   30 am   BACKBONE|DICT|INTERRES
    61   29  154 1    
    62   30   31 2    
    63   30   32 1    
    64   32   33 1    
    65   32   34 1    
    66   32  155 1    
    67   33  156 1    
    68   33  157 1    
    69   33  158 1    
    70   34   35 am   BACKBONE|DICT|INTERRES
    71   34  159 1    
    72   35   36 2    
    73   35   37 1    
    74   37   38 1    
    75   37   39 1    
    76   37  160 1    
    77   38  161 1    
    78   38  162 1    
    79   38  163 1    
    80   39   40 am   BACKBONE|DICT|INTERRES
    81   39  164 1    
    82   40   41 2    
    83   40   42 1    
    84   42   43 1    
    85   42   44 1    
    86   42  165 1    
    87   43  166 1    
    88   43  167 1    
    89   43  168 1    
    90   44   45 am   BACKBONE|DICT|INTERRES
    91   44  169 1    
    92   45   46 2    
    93   45   47 1    
    94   47   48 1    
    95   47   49 1    
    96   47  170 1    
    97   48  171 1    
    98   48  172 1    
    99   48  173 1    
   100   49   50 am   BACKBONE|DICT|INTERRES
   101   49  174 1    
   102   50   51 2    
   103   50   52 1    
   104   52   53 1    
   105   52   54 1    
   106   52  175 1    
   107   53  176 1    
   108   53  177 1    
   109   53  178 1    
   110   54   55 am   BACKBONE|DICT|INTERRES
   111   54  179 1    
   112   55   56 2    
   113   55   57 1    
   114   57   58 1    
   115   57   59 1    
   116   57  180 1    
   117   58  181 1    
   118   58  182 1    
   119   58  183 1    
   120   59   60 am   BACKBONE|DICT|INTERRES
   121   59  184 1    
   122   60   61 2    
   123   60   62 1    
   124   62   63 1    
   125   62   64 1    
   126   62  185 1    
   127   63  186 1    
   128   63  187 1    
   129   63  188 1    
   130   64   65 am   BACKBONE|DICT|INTERRES
   131   64  189 1    
   132   65   66 2    
   133   67   68 2    
   134   67   69 am   BACKBONE|DICT|INTERRES
   135   69   70 1    
   136   69  190 1    
   137   70   71 1    
   138   70   72 1    
   139   70  191 1    
   140   71  192 1    
   141   71  193 1    
   142   71  194 1    
   143   72   73 2    
   144   72   74 am   BACKBONE|DICT|INTERRES
   145   74   75 1    
   146   74  195 1    
   147   75   76 1    
   148   75   77 1    
   149   75  196 1    
   150   76  197 1    
   151   76  198 1    
   152   76  199 1    
   153   77   78 2    
   154   77   79 am   BACKBONE|DICT|INTERRES
   155   79   80 1    
   156   79  200 1    
   157   80   81 1    
   158   80   82 1    
   159   80  201 1    
   160   81  202 1    
   161   81  203 1    
   162   81  204 1    
   163   82   83 2    
   164   82   84 am   BACKBONE|DICT|INTERRES
   165   84   85 1    
   166   84  205 1    
   167   85   86 1    
   168   85   87 1    
   169   85  206 1    
   170   86  207 1    
   171   86  208 1    
   172   86  209 1    
   173   87   88 2    
   174   87   89 am   BACKBONE|DICT|INTERRES
   175   89   90 1    
   176   89  210 1    
   177   90   91 1    
   178   90   92 1    
   179   90  211 1    
   180   91  212 1    
   181   91  213 1    
   182   91  214 1    
   183   92   93 2    
   184   92   94 am   BACKBONE|DICT|INTERRES
   185   94   95 1    
   186   94  215 1    
   187   95   96 1    
   188   95   97 1    
   189   95  216 1    
   190   96  217 1    
   191   96  218 1    
   192   96  219 1    
   193   97   98 2    
   194   97   99 am   BACKBONE|DICT|INTERRES
   195   99  100 1    
   196   99  220 1    
   197  100  101 1    
   198  100  102 1    
   199  100  221 1    
   200  101  222 1    
   201  101  223 1    
   202  101  224 1    
   203  102  103 2    
   204  102  104 am   BACKBONE|DICT|INTERRES
   205  104  105 1    
   206  104  225 1    
   207  105  106 1    
   208  105  107 1    
   209  105  226 1    
   210  106  227 1    
   211  106  228 1    
   212  106  229 1    
   213  107  108 2    
   214  107  109 am   BACKBONE|DICT|INTERRES
   215  109  110 1    
   216  109  230 1    
   217  110  111 1    
   218  110  112 1    
   219  110  231 1    
   220  111  232 1    
   221  111  233 1    
   222  111  234 1    
   223  112  113 2    
   224  112  114 am   BACKBONE|DICT|INTERRES
   225  114  115 1    
   226  114  235 1    
   227  115  116 1    
   228  115  117 1    
   229  115  236 1    
   230  116  237 1    
   231  116  238 1    
   232  116  239 1    
   233  117  118 2    
   234  117  119 am   BACKBONE|DICT|INTERRES
   235  119  120 1    
   236  119  240 1    
   237  120  121 1    
   238  120  124 1    
   239  120  241 1    
   240  121  122 am   BACKBONE|DICT|INTERRES
   241  121  123 2    
   242  122  242 1    
   243  122  243 1    
   244  124  125 1    
   245  124  244 1    
   246  124  245 1    
   247  125  126 1    
   248  126  246 1    
   249  126  247 1    
@<TRIPOS>SUBSTRUCTURE
     1 UNK         1 GROUP             0       ****    0 ROOT    
