@<TRIPOS>MOLECULE
3R540
247   249    1
SMALL
USER_CHARGES


@<TRIPOS>ATOM
      1 CA         -2.2594  -14.7108  -50.4579 C.3       0 UNK        -0.1800 
      2 C          -0.9556  -14.1927  -49.8682 C.2       0 UNK         0.5000 
      3 O          -0.9019  -13.8909  -48.6765 O.2       0 UNK        -0.5000 
      4 N           0.0809  -14.0675  -50.7099 N.am      1 UNK        -0.5000 
      5 CA          1.4871  -13.7373  -50.4058 C.3       1 UNK         0.1400 
      6 C6          2.2913  -14.9489  -49.8539 C.3       23 UNK        -0.0398 
      7 S7          1.9077  -15.4606  -48.1381 S.3       23 UNK        -0.2404 
      8 C8          1.0624  -17.0579  -48.3734 C.3       23 UNK        -0.0205 
      9 C9          1.9836  -18.1029  -48.9855 C.ar      23 UNK        -0.0193 
     10 C10         1.7718  -18.5485  -50.2927 C.ar      23 UNK        -0.1150 
     11 C11         2.6368  -19.4772  -50.8758 C.ar      23 UNK        -0.0193 
     12 C12         3.7170  -19.9693  -50.1366 C.ar      23 UNK        -0.1150 
     13 C13         3.9436  -19.5323  -48.8267 C.ar      23 UNK        -0.0193 
     14 C14         3.0665  -18.6022  -48.2567 C.ar      23 UNK        -0.1150 
     15 C15         5.1784  -20.0148  -48.0698 C.3       23 UNK        -0.0205 
     16 S16         4.8568  -20.4618  -46.3318 S.3       23 UNK        -0.2404 
     17 C17         3.8218  -21.9484  -46.5295 C.3       23 UNK        -0.0398 
     18 CA          3.9469  -22.9026  -45.3161 C.3       11 UNK         0.1400 
     19 N           3.3711  -22.3066  -44.1055 N.am      11 UNK        -0.5000 
     20 C           3.6427  -22.6905  -42.8522 C.2       10 UNK         0.5000 
     21 O           4.4534  -23.5724  -42.5665 O.2       10 UNK        -0.5000 
     22 CA          2.8439  -21.9972  -41.7317 C.3       10 UNK         0.1400 
     23 CB          3.4830  -20.6524  -41.3540 C.3       10 UNK        -0.1800 
     24 N           1.4352  -21.7931  -42.0813 N.am      10 UNK        -0.5000 
     25 C           0.5502  -22.7834  -42.2697 C.2       9 UNK         0.5000 
     26 O           0.8236  -23.9774  -42.1482 O.2       9 UNK        -0.5000 
     27 CA         -0.8708  -22.3810  -42.7010 C.3       9 UNK         0.1400 
     28 CB         -1.7071  -21.9627  -41.4827 C.3       9 UNK        -0.1800 
     29 N          -0.8793  -21.3093  -43.6953 N.am      9 UNK        -0.5000 
     30 C          -0.3922  -21.4181  -44.9394 C.2       8 UNK         0.5000 
     31 O           0.0827  -22.4561  -45.3982 O.2       8 UNK        -0.5000 
     32 CA         -0.3806  -20.1396  -45.7974 C.3       8 UNK         0.1400 
     33 CB         -1.7659  -19.8850  -46.4015 C.3       8 UNK        -0.1800 
     34 N           0.0622  -18.9620  -45.0497 N.am      8 UNK        -0.5000 
     35 C           1.2677  -18.8540  -44.4720 C.2       7 UNK         0.5000 
     36 O           2.1281  -19.7307  -44.5193 O.2       7 UNK        -0.5000 
     37 CA          1.5403  -17.5819  -43.6587 C.3       7 UNK         0.1400 
     38 CB          1.9774  -16.4300  -44.5681 C.3       7 UNK        -0.1800 
     39 N           0.3760  -17.1789  -42.8747 N.am      7 UNK        -0.5000 
     40 C          -0.0489  -17.8298  -41.7835 C.2       6 UNK         0.5000 
     41 O           0.5253  -18.8057  -41.2987 O.2       6 UNK        -0.5000 
     42 CA         -1.3661  -17.3314  -41.1628 C.3       6 UNK         0.1400 
     43 CB         -1.1329  -16.0620  -40.3297 C.3       6 UNK        -0.1800 
     44 N          -2.3923  -17.0686  -42.1728 N.am      6 UNK        -0.5000 
     45 C          -2.9302  -18.0064  -42.9648 C.2       5 UNK         0.5000 
     46 O          -2.6406  -19.1995  -42.9028 O.2       5 UNK        -0.5000 
     47 CA         -3.9419  -17.5381  -44.0239 C.3       5 UNK         0.1400 
     48 CB         -5.3738  -17.6304  -43.4772 C.3       5 UNK        -0.1800 
     49 N          -3.7094  -16.1847  -44.5271 N.am      5 UNK        -0.5000 
     50 C          -2.6113  -15.7552  -45.1645 C.2       4 UNK         0.5000 
     51 O          -1.5934  -16.4372  -45.3116 O.2       4 UNK        -0.5000 
     52 CA         -2.7100  -14.3480  -45.7905 C.3       4 UNK         0.1400 
     53 CB         -3.7442  -13.4257  -45.1040 C.3       4 UNK        -0.1800 
     54 N          -1.4287  -13.6597  -45.9251 N.am      4 UNK        -0.5000 
     55 C          -0.6145  -13.2443  -44.9449 C.2       3 UNK         0.5000 
     56 O          -0.7838  -13.5190  -43.7555 O.2       3 UNK        -0.5000 
     57 CA          0.5463  -12.3084  -45.3391 C.3       3 UNK         0.1400 
     58 CB          1.9224  -12.9299  -45.0604 C.3       3 UNK        -0.1800 
     59 N           0.4820  -11.8698  -46.7371 N.am      3 UNK        -0.5000 
     60 C           0.7429  -10.6265  -47.1656 C.2       2 UNK         0.5000 
     61 O           1.0509   -9.7013  -46.4116 O.2       2 UNK        -0.5000 
     62 CA          0.6236  -10.3598  -48.6855 C.3       2 UNK         0.1400 
     63 CB          1.6136   -9.2857  -49.1837 C.3       2 UNK        -0.1800 
     64 N           0.7031  -11.5737  -49.5069 N.am      2 UNK        -0.5000 
     65 C           1.7351  -12.4238  -49.6192 C.2       1 UNK         0.5000 
     66 O           2.8477  -12.2063  -49.1371 O.2       1 UNK        -0.5000 
     67 C           3.3330  -24.2795  -45.6560 C.2       11 UNK         0.5000 
     68 O           3.9092  -24.9972  -46.4746 O.2       11 UNK        -0.5000 
     69 N           2.1785  -24.6115  -45.0550 N.am      12 UNK        -0.5000 
     70 CA          1.3139  -25.7597  -45.3565 C.3       12 UNK         0.1400 
     71 CB          2.0005  -27.0890  -44.9814 C.3       12 UNK        -0.1800 
     72 C           0.8077  -25.7174  -46.8153 C.2       12 UNK         0.5000 
     73 O           0.8087  -26.7302  -47.5167 O.2       12 UNK        -0.5000 
     74 N           0.4112  -24.5141  -47.2442 N.am      13 UNK        -0.5000 
     75 CA          0.0791  -24.1527  -48.6200 C.3       13 UNK         0.1400 
     76 CB          0.6482  -22.7521  -48.8877 C.3       13 UNK        -0.1800 
     77 C          -1.4321  -24.2092  -48.9179 C.2       13 UNK         0.5000 
     78 O          -1.8577  -23.7092  -49.9605 O.2       13 UNK        -0.5000 
     79 N          -2.2147  -24.8101  -48.0102 N.am      14 UNK        -0.5000 
     80 CA         -3.6651  -25.0083  -48.0870 C.3       14 UNK         0.1400 
     81 CB         -4.0073  -26.0475  -49.1787 C.3       14 UNK        -0.1800 
     82 C          -4.4356  -23.6740  -48.2062 C.2       14 UNK         0.5000 
     83 O          -4.1222  -22.7407  -47.4672 O.2       14 UNK        -0.5000 
     84 N          -5.4283  -23.6117  -49.1001 N.am      15 UNK        -0.5000 
     85 CA         -6.3025  -22.4716  -49.3627 C.3       15 UNK         0.1400 
     86 CB         -7.2834  -22.2669  -48.1877 C.3       15 UNK        -0.1800 
     87 C          -7.0384  -22.7124  -50.6945 C.2       15 UNK         0.5000 
     88 O          -6.7608  -23.7094  -51.3671 O.2       15 UNK        -0.5000 
     89 N          -7.9699  -21.8053  -51.0213 N.am      16 UNK        -0.5000 
     90 CA         -8.7608  -21.6850  -52.2540 C.3       16 UNK         0.1400 
     91 CB         -9.3700  -23.0220  -52.7221 C.3       16 UNK        -0.1800 
     92 C          -7.9650  -20.9861  -53.3691 C.2       16 UNK         0.5000 
     93 O          -6.7364  -21.0538  -53.3930 O.2       16 UNK        -0.5000 
     94 N          -8.6848  -20.2602  -54.2372 N.am      17 UNK        -0.5000 
     95 CA         -8.2059  -19.3028  -55.2511 C.3       17 UNK         0.1400 
     96 CB         -7.2288  -19.9479  -56.2539 C.3       17 UNK        -0.1800 
     97 C          -7.6239  -18.0088  -54.6402 C.2       17 UNK         0.5000 
     98 O          -7.9438  -16.9167  -55.1114 O.2       17 UNK        -0.5000 
     99 N          -6.8338  -18.1516  -53.5746 N.am      18 UNK        -0.5000 
    100 CA        -6.3770  -17.1062  -52.6694 C.3       18 UNK         0.1400 
    101 CB        -4.9966  -16.5925  -53.1250 C.3       18 UNK        -0.1800 
    102 C         -6.3728  -17.6868  -51.2415 C.2       18 UNK         0.5000 
    103 O         -7.0028  -18.7195  -50.9921 O.2       18 UNK        -0.5000 
    104 N         -5.6611  -17.0290  -50.3162 N.am      19 UNK        -0.5000 
    105 CA        -5.4751  -17.5052  -48.9400 C.3       19 UNK         0.1400 
    106 CB        -4.8916  -16.3730  -48.0847 C.3       19 UNK        -0.1800 
    107 C         -4.5893  -18.7658  -48.8453 C.2       19 UNK         0.5000 
    108 O         -4.6920  -19.4974  -47.8636 O.2       19 UNK        -0.5000 
    109 N         -3.7646  -18.9931  -49.8734 N.am      20 UNK        -0.5000 
    110 CA        -2.9895  -20.2015  -50.1250 C.3       20 UNK         0.1400 
    111 CB        -1.4979  -19.8337  -50.1232 C.3       20 UNK        -0.1800 
    112 C         -3.3839  -20.7156  -51.5165 C.2       20 UNK         0.5000 
    113 O         -3.7293  -19.9027  -52.3783 O.2       20 UNK        -0.5000 
    114 N         -3.2605  -22.0288  -51.7472 N.am      21 UNK        -0.5000 
    115 CA        -3.5401  -22.6668  -53.0404 C.3       21 UNK         0.1400 
    116 CB        -3.4885  -24.1929  -52.8799 C.3       21 UNK        -0.1800 
    117 C         -2.5877  -22.2069  -54.1622 C.2       21 UNK         0.5000 
    118 O         -2.9838  -22.1622  -55.3272 O.2       21 UNK        -0.5000 
    119 N         -1.3589  -21.8490  -53.7755 N.am      22 UNK        -0.5000 
    120 CA        -0.3419  -21.1962  -54.6108 C.3       22 UNK         0.1400 
    121 C         -0.5138  -19.6521  -54.7462 C.2       22 UNK         0.5000 
    122 N         -1.5245  -19.0240  -54.1548 N.am      22 UNK        -0.7600 
    123 O          0.2824  -19.0055  -55.4213 O.2       22 UNK        -0.5000 
    124 C124        1.0923  -21.5986  -54.1694 C.3       23 UNK        -0.0398 
    125 S125        1.3934  -21.4207  -52.3761 S.3       23 UNK        -0.2404 
    126 C126        2.4160  -19.9233  -52.3129 C.3       23 UNK        -0.0205 
    127 H127       -2.2865  -14.5913  -51.5424 H         1 UNK         0.0600 
    128 H128       -3.1075  -14.1700  -50.0355 H         1 UNK         0.0600 
    129 H129       -2.3737  -15.7708  -50.2277 H         1 UNK         0.0600 
    130 H130       -0.0813  -14.2924  -51.6816 H         1 UNK         0.3000 
    131 H131        1.9161  -13.5251  -51.3862 H         1 UNK         0.0600 
    132 H132        2.1584  -15.7954  -50.5259 H         1 UNK         0.0800 
    133 H133        3.3595  -14.7300  -49.8922 H         1 UNK         0.0800 
    134 H134        0.7058  -17.4144  -47.4067 H         1 UNK         0.0800 
    135 H135        0.1742  -16.9091  -48.9887 H         1 UNK         0.0800 
    136 H136        0.9435  -18.1583  -50.8664 H         1 UNK         0.1150 
    137 H137        4.3933  -20.6785  -50.5927 H         1 UNK         0.1150 
    138 H138        3.2402  -18.2434  -47.2521 H         1 UNK         0.1150 
    139 H139        5.6352  -20.8675  -48.5746 H         1 UNK         0.0800 
    140 H140        5.9208  -19.2162  -48.0876 H         1 UNK         0.0800 
    141 H141        2.7854  -21.6371  -46.6738 H         1 UNK         0.0800 
    142 H142        4.1245  -22.4507  -47.4503 H         1 UNK         0.0800 
    143 H143        5.0093  -23.0786  -45.1340 H         1 UNK         0.0600 
    144 H144        2.7555  -21.5090  -44.2486 H         1 UNK         0.3000 
    145 H145        2.8776  -22.6442  -40.8527 H         1 UNK         0.0600 
    146 H146        2.9545  -20.1837  -40.5236 H         1 UNK         0.0600 
    147 H147        3.4789  -19.9533  -42.1902 H         1 UNK         0.0600 
    148 H148        4.5203  -20.7872  -41.0454 H         1 UNK         0.0600 
    149 H149        1.1271  -20.8346  -42.1880 H         1 UNK         0.3000 
    150 H150       -1.3417  -23.2573  -43.1515 H         1 UNK         0.0600 
    151 H151       -1.7142  -22.7459  -40.7237 H         1 UNK         0.0600 
    152 H152       -2.7432  -21.7734  -41.7638 H         1 UNK         0.0600 
    153 H153       -1.3162  -21.0562  -41.0187 H         1 UNK         0.0600 
    154 H154       -1.3086  -20.4327  -43.4096 H         1 UNK         0.3000 
    155 H155        0.3285  -20.2844  -46.6147 H         1 UNK         0.0600 
    156 H156       -2.0264  -20.6698  -47.1127 H         1 UNK         0.0600 
    157 H157       -1.8082  -18.9323  -46.9294 H         1 UNK         0.0600 
    158 H158       -2.5427  -19.8802  -45.6387 H         1 UNK         0.0600 
    159 H159       -0.5817  -18.1797  -44.9884 H         1 UNK         0.3000 
    160 H160        2.3631  -17.7974  -42.9737 H         1 UNK         0.0600 
    161 H161        1.1601  -16.0824  -45.2006 H         1 UNK         0.0600 
    162 H162        2.7973  -16.7311  -45.2216 H         1 UNK         0.0600 
    163 H163        2.3300  -15.5887  -43.9739 H         1 UNK         0.0600 
    164 H164       -0.1840  -16.4224  -43.2443 H         1 UNK         0.3000 
    165 H165       -1.7382  -18.1141  -40.4983 H         1 UNK         0.0600 
    166 H166       -2.0450  -15.7530  -39.8190 H         1 UNK         0.0600 
    167 H167       -0.3742  -16.2316  -39.5645 H         1 UNK         0.0600 
    168 H168       -0.7959  -15.2289  -40.9483 H         1 UNK         0.0600 
    169 H169       -2.6740  -16.1081  -42.3037 H         1 UNK         0.3000 
    170 H170       -3.8664  -18.2144  -44.8759 H         1 UNK         0.0600 
    171 H171       -5.5899  -18.6373  -43.1170 H         1 UNK         0.0600 
    172 H172       -5.5328  -16.9428  -42.6456 H         1 UNK         0.0600 
    173 H173       -6.1073  -17.4005  -44.2504 H         1 UNK         0.0600 
    174 H174       -4.4863  -15.5454  -44.4439 H         1 UNK         0.3000 
    175 H175       -3.0498  -14.5056  -46.8138 H         1 UNK         0.0600 
    176 H176       -3.5386  -13.3060  -44.0395 H         1 UNK         0.0600 
    177 H177       -3.7405  -12.4328  -45.5541 H         1 UNK         0.0600 
    178 H178       -4.7590  -13.8109  -45.2086 H         1 UNK         0.0600 
    179 H179       -1.1581  -13.5017  -46.8910 H         1 UNK         0.3000 
    180 H180        0.4388  -11.4397  -44.6865 H         1 UNK         0.0600 
    181 H181        2.7207  -12.2083  -45.2339 H         1 UNK         0.0600 
    182 H182        2.1092  -13.7899  -45.7014 H         1 UNK         0.0600 
    183 H183        2.0019  -13.2557  -44.0231 H         1 UNK         0.0600 
    184 H184        0.2462  -12.5738  -47.4267 H         1 UNK         0.3000 
    185 H185       -0.3829   -9.9670  -48.8358 H         1 UNK         0.0600 
    186 H186        1.5111   -9.1214  -50.2563 H         1 UNK         0.0600 
    187 H187        1.4325   -8.3290  -48.6925 H         1 UNK         0.0600 
    188 H188        2.6488   -9.5622  -48.9832 H         1 UNK         0.0600 
    189 H189       -0.1668  -11.8649  -49.9305 H         1 UNK         0.3000 
    190 H190        1.7869  -23.9387  -44.4094 H         1 UNK         0.3000 
    191 H191        0.4330  -25.6526  -44.7218 H         1 UNK         0.0600 
    192 H192        1.3095  -27.9261  -45.0852 H         1 UNK         0.0600 
    193 H193        2.3414  -27.0760  -43.9461 H         1 UNK         0.0600 
    194 H194        2.8621  -27.2975  -45.6160 H         1 UNK         0.0600 
    195 H195        0.3867  -23.7494  -46.5693 H         1 UNK         0.3000 
    196 H196        0.5653  -24.8488  -49.3062 H         1 UNK         0.0600 
    197 H197        0.5150  -22.4822  -49.9319 H         1 UNK         0.0600 
    198 H198        1.7175  -22.7086  -48.6820 H         1 UNK         0.0600 
    199 H199        0.1536  -21.9918  -48.2839 H         1 UNK         0.0600 
    200 H200       -1.7683  -25.1433  -47.1688 H         1 UNK         0.3000 
    201 H201       -3.9624  -25.4350  -47.1282 H         1 UNK         0.0600 
    202 H202       -3.7599  -25.6877  -50.1768 H         1 UNK         0.0600 
    203 H203       -5.0666  -26.3063  -49.1670 H         1 UNK         0.0600 
    204 H204       -3.4546  -26.9733  -49.0188 H         1 UNK         0.0600 
    205 H205       -5.5939  -24.3931  -49.7232 H         1 UNK         0.3000 
    206 H206       -5.6875  -21.5791  -49.4830 H         1 UNK         0.0600 
    207 H207       -6.7542  -22.1058  -47.2486 H         1 UNK         0.0600 
    208 H208       -7.9149  -21.3915  -48.3408 H         1 UNK         0.0600 
    209 H209       -7.9377  -23.1297  -48.0588 H         1 UNK         0.0600 
    210 H210       -8.0524  -21.0021  -50.4127 H         1 UNK         0.3000 
    211 H211       -9.5891  -21.0261  -51.9887 H         1 UNK         0.0600 
    212 H212       -8.6183  -23.6893  -53.1443 H         1 UNK         0.0600 
    213 H213      -10.1176  -22.8542  -53.4979 H         1 UNK         0.0600 
    214 H214       -9.8641  -23.5426  -51.9018 H         1 UNK         0.0600 
    215 H215       -9.6887  -20.2639  -54.1191 H         1 UNK         0.3000 
    216 H216       -9.0939  -19.0087  -55.8129 H         1 UNK         0.0600 
    217 H217       -7.6470  -20.8584  -56.6829 H         1 UNK         0.0600 
    218 H218       -6.2725  -20.2001  -55.7949 H         1 UNK         0.0600 
    219 H219       -7.0183  -19.2658  -57.0782 H         1 UNK         0.0600 
    220 H220       -6.6433  -19.0988  -53.2551 H         1 UNK         0.3000 
    221 H221       -7.0893  -16.2790  -52.6783 H         1 UNK         0.0600 
    222 H222       -4.6665  -15.7428  -52.5273 H         1 UNK         0.0600 
    223 H223       -4.2340  -17.3679  -53.0532 H         1 UNK         0.0600 
    224 H224       -5.0278  -16.2569  -54.1616 H         1 UNK         0.0600 
    225 H225       -5.1874  -16.1755  -50.5719 H         1 UNK         0.3000 
    226 H226       -6.4563  -17.7625  -48.5351 H         1 UNK         0.0600 
    227 H227       -5.4986  -15.4697  -48.1465 H         1 UNK         0.0600 
    228 H228       -4.8587  -16.6703  -47.0370 H         1 UNK         0.0600 
    229 H229       -3.8754  -16.1235  -48.3881 H         1 UNK         0.0600 
    230 H230       -3.8287  -18.3765  -50.6711 H         1 UNK         0.3000 
    231 H231       -3.1910  -20.9693  -49.3759 H         1 UNK         0.0600 
    232 H232       -1.2677  -19.0943  -50.8911 H         1 UNK         0.0600 
    233 H233       -0.8821  -20.7086  -50.3230 H         1 UNK         0.0600 
    234 H234       -1.1825  -19.4241  -49.1654 H         1 UNK         0.0600 
    235 H235       -2.8813  -22.6352  -51.0209 H         1 UNK         0.3000 
    236 H236       -4.5526  -22.3944  -53.3388 H         1 UNK         0.0600 
    237 H237       -2.5120  -24.5301  -52.5306 H         1 UNK         0.0600 
    238 H238       -4.2396  -24.5345  -52.1690 H         1 UNK         0.0600 
    239 H239       -3.6912  -24.6930  -53.8277 H         1 UNK         0.0600 
    240 H240       -1.1250  -21.9264  -52.7962 H         1 UNK         0.3000 
    241 H241       -0.4658  -21.5725  -55.6278 H         1 UNK         0.0600 
    242 H242       -1.6108  -18.0285  -54.2755 H         1 UNK         0.3800 
    243 H243       -2.2286  -19.5225  -53.6221 H         1 UNK         0.3800 
    244 H244        1.8522  -21.0563  -54.7347 H         1 UNK         0.0800 
    245 H245        1.2513  -22.6495  -54.4140 H         1 UNK         0.0800 
    246 H246        3.3736  -20.1153  -52.7992 H         1 UNK         0.0800 
    247 H247        1.9333  -19.1266  -52.8811 H         1 UNK         0.0800 
@<TRIPOS>BOND
     1    1    2 1    
     2    1  127 1    
     3    1  128 1    
     4    1  129 1    
     5    2    3 2    
     6    2    4 am   BACKBONE|DICT|INTERRES
     7    4    5 1    
     8    4  130 1    
     9    5    6 1    
    10    5   65 1    
    11    5  131 1    
    12    6    7 1    
    13    6  132 1    
    14    6  133 1    
    15    7    8 1    
    16    8    9 1    
    17    8  134 1    
    18    8  135 1    
    19    9   10 ar   
    20    9   14 ar   
    21   10   11 ar   
    22   10  136 1    
    23   11   12 ar   
    24   11  126 1    
    25   12   13 ar   
    26   12  137 1    
    27   13   14 ar   
    28   13   15 1    
    29   14  138 1    
    30   15   16 1    
    31   15  139 1    
    32   15  140 1    
    33   16   17 1    
    34   17   18 1    
    35   17  141 1    
    36   17  142 1    
    37   18   19 1    
    38   18   67 1    
    39   18  143 1    
    40   19   20 am   BACKBONE|DICT|INTERRES
    41   19  144 1    
    42   20   21 2    
    43   20   22 1    
    44   22   23 1    
    45   22   24 1    
    46   22  145 1    
    47   23  146 1    
    48   23  147 1    
    49   23  148 1    
    50   24   25 am   BACKBONE|DICT|INTERRES
    51   24  149 1    
    52   25   26 2    
    53   25   27 1    
    54   27   28 1    
    55   27   29 1    
    56   27  150 1    
    57   28  151 1    
    58   28  152 1    
    59   28  153 1    
    60   29   30 am   BACKBONE|DICT|INTERRES
    61   29  154 1    
    62   30   31 2    
    63   30   32 1    
    64   32   33 1    
    65   32   34 1    
    66   32  155 1    
    67   33  156 1    
    68   33  157 1    
    69   33  158 1    
    70   34   35 am   BACKBONE|DICT|INTERRES
    71   34  159 1    
    72   35   36 2    
    73   35   37 1    
    74   37   38 1    
    75   37   39 1    
    76   37  160 1    
    77   38  161 1    
    78   38  162 1    
    79   38  163 1    
    80   39   40 am   BACKBONE|DICT|INTERRES
    81   39  164 1    
    82   40   41 2    
    83   40   42 1    
    84   42   43 1    
    85   42   44 1    
    86   42  165 1    
    87   43  166 1    
    88   43  167 1    
    89   43  168 1    
    90   44   45 am   BACKBONE|DICT|INTERRES
    91   44  169 1    
    92   45   46 2    
    93   45   47 1    
    94   47   48 1    
    95   47   49 1    
    96   47  170 1    
    97   48  171 1    
    98   48  172 1    
    99   48  173 1    
   100   49   50 am   BACKBONE|DICT|INTERRES
   101   49  174 1    
   102   50   51 2    
   103   50   52 1    
   104   52   53 1    
   105   52   54 1    
   106   52  175 1    
   107   53  176 1    
   108   53  177 1    
   109   53  178 1    
   110   54   55 am   BACKBONE|DICT|INTERRES
   111   54  179 1    
   112   55   56 2    
   113   55   57 1    
   114   57   58 1    
   115   57   59 1    
   116   57  180 1    
   117   58  181 1    
   118   58  182 1    
   119   58  183 1    
   120   59   60 am   BACKBONE|DICT|INTERRES
   121   59  184 1    
   122   60   61 2    
   123   60   62 1    
   124   62   63 1    
   125   62   64 1    
   126   62  185 1    
   127   63  186 1    
   128   63  187 1    
   129   63  188 1    
   130   64   65 am   BACKBONE|DICT|INTERRES
   131   64  189 1    
   132   65   66 2    
   133   67   68 2    
   134   67   69 am   BACKBONE|DICT|INTERRES
   135   69   70 1    
   136   69  190 1    
   137   70   71 1    
   138   70   72 1    
   139   70  191 1    
   140   71  192 1    
   141   71  193 1    
   142   71  194 1    
   143   72   73 2    
   144   72   74 am   BACKBONE|DICT|INTERRES
   145   74   75 1    
   146   74  195 1    
   147   75   76 1    
   148   75   77 1    
   149   75  196 1    
   150   76  197 1    
   151   76  198 1    
   152   76  199 1    
   153   77   78 2    
   154   77   79 am   BACKBONE|DICT|INTERRES
   155   79   80 1    
   156   79  200 1    
   157   80   81 1    
   158   80   82 1    
   159   80  201 1    
   160   81  202 1    
   161   81  203 1    
   162   81  204 1    
   163   82   83 2    
   164   82   84 am   BACKBONE|DICT|INTERRES
   165   84   85 1    
   166   84  205 1    
   167   85   86 1    
   168   85   87 1    
   169   85  206 1    
   170   86  207 1    
   171   86  208 1    
   172   86  209 1    
   173   87   88 2    
   174   87   89 am   BACKBONE|DICT|INTERRES
   175   89   90 1    
   176   89  210 1    
   177   90   91 1    
   178   90   92 1    
   179   90  211 1    
   180   91  212 1    
   181   91  213 1    
   182   91  214 1    
   183   92   93 2    
   184   92   94 am   BACKBONE|DICT|INTERRES
   185   94   95 1    
   186   94  215 1    
   187   95   96 1    
   188   95   97 1    
   189   95  216 1    
   190   96  217 1    
   191   96  218 1    
   192   96  219 1    
   193   97   98 2    
   194   97   99 am   BACKBONE|DICT|INTERRES
   195   99  100 1    
   196   99  220 1    
   197  100  101 1    
   198  100  102 1    
   199  100  221 1    
   200  101  222 1    
   201  101  223 1    
   202  101  224 1    
   203  102  103 2    
   204  102  104 am   BACKBONE|DICT|INTERRES
   205  104  105 1    
   206  104  225 1    
   207  105  106 1    
   208  105  107 1    
   209  105  226 1    
   210  106  227 1    
   211  106  228 1    
   212  106  229 1    
   213  107  108 2    
   214  107  109 am   BACKBONE|DICT|INTERRES
   215  109  110 1    
   216  109  230 1    
   217  110  111 1    
   218  110  112 1    
   219  110  231 1    
   220  111  232 1    
   221  111  233 1    
   222  111  234 1    
   223  112  113 2    
   224  112  114 am   BACKBONE|DICT|INTERRES
   225  114  115 1    
   226  114  235 1    
   227  115  116 1    
   228  115  117 1    
   229  115  236 1    
   230  116  237 1    
   231  116  238 1    
   232  116  239 1    
   233  117  118 2    
   234  117  119 am   BACKBONE|DICT|INTERRES
   235  119  120 1    
   236  119  240 1    
   237  120  121 1    
   238  120  124 1    
   239  120  241 1    
   240  121  122 am   BACKBONE|DICT|INTERRES
   241  121  123 2    
   242  122  242 1    
   243  122  243 1    
   244  124  125 1    
   245  124  244 1    
   246  124  245 1    
   247  125  126 1    
   248  126  246 1    
   249  126  247 1    
@<TRIPOS>SUBSTRUCTURE
     1 UNK         1 GROUP             0       ****    0 ROOT    
