@<TRIPOS>MOLECULE
3R540
247   249    1
SMALL
USER_CHARGES


@<TRIPOS>ATOM
      1 CA         -4.9437  -10.7368  -44.7452 C.3       0 UNK        -0.1800 
      2 C          -4.1194  -10.1350  -45.8748 C.2       0 UNK         0.5000 
      3 O          -4.0201   -8.9117  -45.9778 O.2       0 UNK        -0.5000 
      4 N          -3.5377  -10.9887  -46.7244 N.am      1 UNK        -0.5000 
      5 CA         -2.6332  -10.6094  -47.8135 C.3       1 UNK         0.1400 
      6 C6         -2.5581  -11.7106  -48.9037 C.3       23 UNK        -0.0398 
      7 S7         -2.0481  -13.3588  -48.2954 S.3       23 UNK        -0.2404 
      8 C8         -3.4425  -14.3851  -48.8540 C.3       23 UNK        -0.0205 
      9 C9         -3.1665  -15.8577  -48.6024 C.ar      23 UNK        -0.0193 
     10 C10        -2.4528  -16.6058  -49.5434 C.ar      23 UNK        -0.1150 
     11 C11        -2.1584  -17.9511  -49.3056 C.ar      23 UNK        -0.0193 
     12 C12        -2.6016  -18.5529  -48.1259 C.ar      23 UNK        -0.1150 
     13 C13        -3.3322  -17.8199  -47.1864 C.ar      23 UNK        -0.0193 
     14 C14        -3.6094  -16.4711  -47.4267 C.ar      23 UNK        -0.1150 
     15 C15        -3.7954  -18.4906  -45.9055 C.3       23 UNK        -0.0205 
     16 S16        -2.3960  -18.6703  -44.7617 S.3       23 UNK        -0.2404 
     17 C17        -2.7489  -20.2495  -43.9270 C.3       23 UNK        -0.0398 
     18 CA         -2.6355  -21.5078  -44.8264 C.3       11 UNK         0.1400 
     19 N          -1.3924  -21.5922  -45.6146 N.am      11 UNK        -0.5000 
     20 C          -1.1397  -22.5348  -46.5395 C.2       10 UNK         0.5000 
     21 O          -1.9492  -23.4122  -46.8407 O.2       10 UNK        -0.5000 
     22 CA          0.2424  -22.5442  -47.2114 C.3       10 UNK         0.1400 
     23 CB          0.2509  -21.6595  -48.4660 C.3       10 UNK        -0.1800 
     24 N           1.2803  -22.0989  -46.2870 N.am      10 UNK        -0.5000 
     25 C           1.9403  -22.9009  -45.4407 C.2       9 UNK         0.5000 
     26 O           1.8031  -24.1239  -45.4128 O.2       9 UNK        -0.5000 
     27 CA          2.9004  -22.2270  -44.4395 C.3       9 UNK         0.1400 
     28 CB          4.3240  -22.1704  -45.0127 C.3       9 UNK        -0.1800 
     29 N           2.4852  -20.8760  -44.0605 N.am      9 UNK        -0.5000 
     30 C           1.3774  -20.5860  -43.3633 C.2       8 UNK         0.5000 
     31 O           0.6068  -21.4386  -42.9193 O.2       8 UNK        -0.5000 
     32 CA          1.0465  -19.0922  -43.1718 C.3       8 UNK         0.1400 
     33 CB          1.6882  -18.5727  -41.8767 C.3       8 UNK        -0.1800 
     34 N           1.4388  -18.2209  -44.2861 N.am      8 UNK        -0.5000 
     35 C           1.1623  -18.4071  -45.5868 C.2       7 UNK         0.5000 
     36 O           0.5463  -19.3786  -46.0199 O.2       7 UNK        -0.5000 
     37 CA          1.7137  -17.3701  -46.5818 C.3       7 UNK         0.1400 
     38 CB          0.6790  -16.2635  -46.8300 C.3       7 UNK        -0.1800 
     39 N           2.9851  -16.7770  -46.1583 N.am      7 UNK        -0.5000 
     40 C           4.1255  -17.4600  -45.9700 C.2       6 UNK         0.5000 
     41 O           4.2350  -18.6748  -46.1410 O.2       6 UNK        -0.5000 
     42 CA          5.3349  -16.6553  -45.4679 C.3       6 UNK         0.1400 
     43 CB          6.0326  -15.9273  -46.6277 C.3       6 UNK        -0.1800 
     44 N           4.9275  -15.6884  -44.4493 N.am      6 UNK        -0.5000 
     45 C           4.7853  -15.9828  -43.1491 C.2       5 UNK         0.5000 
     46 O           5.0769  -17.0749  -42.6614 O.2       5 UNK        -0.5000 
     47 CA          4.2091  -14.8822  -42.2357 C.3       5 UNK         0.1400 
     48 CB          5.3426  -14.0638  -41.5993 C.3       5 UNK        -0.1800 
     49 N           3.2918  -13.9721  -42.9242 N.am      5 UNK        -0.5000 
     50 C           2.0947  -14.3217  -43.4156 C.2       4 UNK         0.5000 
     51 O           1.6209  -15.4521  -43.3161 O.2       4 UNK        -0.5000 
     52 CA          1.3177  -13.2379  -44.1881 C.3       4 UNK         0.1400 
     53 CB          0.4277  -12.4353  -43.2275 C.3       4 UNK        -0.1800 
     54 N           2.1658  -12.3140  -44.9486 N.am      4 UNK        -0.5000 
     55 C           3.0680  -12.6619  -45.8790 C.2       3 UNK         0.5000 
     56 O           3.3370  -13.8313  -46.1614 O.2       3 UNK        -0.5000 
     57 CA          3.7931  -11.4970  -46.5864 C.3       3 UNK         0.1400 
     58 CB          4.6335  -11.9513  -47.7988 C.3       3 UNK        -0.1800 
     59 N           2.8765  -10.4065  -46.9460 N.am      3 UNK        -0.5000 
     60 C           1.8350  -10.4808  -47.7876 C.2       2 UNK         0.5000 
     61 O           1.5604  -11.4709  -48.4697 O.2       2 UNK        -0.5000 
     62 CA          0.9574   -9.2173  -47.8906 C.3       2 UNK         0.1400 
     63 CB          1.4621   -8.2995  -49.0148 C.3       2 UNK        -0.1800 
     64 N          -0.4464   -9.5491  -48.1407 N.am      2 UNK        -0.5000 
     65 C          -1.2335  -10.2167  -47.2856 C.2       1 UNK         0.5000 
     66 O          -0.8853  -10.5254  -46.1419 O.2       1 UNK        -0.5000 
     67 C          -2.8895  -22.7706  -43.9768 C.2       11 UNK         0.5000 
     68 O          -4.0460  -23.1479  -43.7895 O.2       11 UNK        -0.5000 
     69 N          -1.8122  -23.4427  -43.5466 N.am      12 UNK        -0.5000 
     70 CA         -1.8341  -24.7494  -42.8822 C.3       12 UNK         0.1400 
     71 CB         -0.4009  -25.1114  -42.4649 C.3       12 UNK        -0.1800 
     72 C          -2.4507  -25.8821  -43.7354 C.2       12 UNK         0.5000 
     73 O          -2.9359  -26.8632  -43.1716 O.2       12 UNK        -0.5000 
     74 N          -2.4441  -25.7168  -45.0652 N.am      13 UNK        -0.5000 
     75 CA         -3.0738  -26.5998  -46.0475 C.3       13 UNK         0.1400 
     76 CB         -2.0195  -26.9776  -47.1037 C.3       13 UNK        -0.1800 
     77 C          -4.3025  -25.9312  -46.7010 C.2       13 UNK         0.5000 
     78 O          -4.7416  -26.3804  -47.7610 O.2       13 UNK        -0.5000 
     79 N          -4.8159  -24.8481  -46.0945 N.am      14 UNK        -0.5000 
     80 CA         -5.9233  -24.0077  -46.5656 C.3       14 UNK         0.1400 
     81 CB         -7.2561  -24.7830  -46.5041 C.3       14 UNK        -0.1800 
     82 C          -5.6531  -23.3853  -47.9520 C.2       14 UNK         0.5000 
     83 O          -6.5459  -23.3562  -48.7990 O.2       14 UNK        -0.5000 
     84 N          -4.4049  -22.9443  -48.1726 N.am      15 UNK        -0.5000 
     85 CA         -3.8572  -22.4432  -49.4385 C.3       15 UNK         0.1400 
     86 CB         -4.5407  -21.1271  -49.8601 C.3       15 UNK        -0.1800 
     87 C          -3.8755  -23.5282  -50.5343 C.2       15 UNK         0.5000 
     88 O          -4.2419  -23.2539  -51.6771 O.2       15 UNK        -0.5000 
     89 N          -3.5163  -24.7589  -50.1365 N.am      16 UNK        -0.5000 
     90 CA         -3.5888  -26.0009  -50.9146 C.3       16 UNK         0.1400 
     91 CB         -2.5706  -25.9787  -52.0733 C.3       16 UNK        -0.1800 
     92 C          -5.0297  -26.2934  -51.3823 C.2       16 UNK         0.5000 
     93 O          -5.2562  -26.5537  -52.5635 O.2       16 UNK        -0.5000 
     94 N          -5.9839  -26.1825  -50.4461 N.am      17 UNK        -0.5000 
     95 CA         -7.4362  -26.2191  -50.6617 C.3       17 UNK         0.1400 
     96 CB         -7.8958  -27.6429  -51.0375 C.3       17 UNK        -0.1800 
     97 C          -7.9050  -25.1406  -51.6663 C.2       17 UNK         0.5000 
     98 O          -8.6487  -25.4364  -52.6033 O.2       17 UNK        -0.5000 
     99 N          -7.4228  -23.9089  -51.4497 N.am      18 UNK        -0.5000 
    100 CA        -7.6423  -22.6882  -52.2332 C.3       18 UNK         0.1400 
    101 CB        -9.1294  -22.2788  -52.1941 C.3       18 UNK        -0.1800 
    102 C         -7.0767  -22.7153  -53.6716 C.2       18 UNK         0.5000 
    103 O         -7.4338  -21.8471  -54.4705 O.2       18 UNK        -0.5000 
    104 N         -6.2088  -23.6842  -53.9923 N.am      19 UNK        -0.5000 
    105 CA        -5.6095  -23.8368  -55.3178 C.3       19 UNK         0.1400 
    106 CB        -5.2907  -25.3186  -55.5653 C.3       19 UNK        -0.1800 
    107 C         -4.3414  -22.9869  -55.5130 C.2       19 UNK         0.5000 
    108 O         -4.0511  -22.6087  -56.6494 O.2       19 UNK        -0.5000 
    109 N         -3.5906  -22.7236  -54.4350 N.am      20 UNK        -0.5000 
    110 CA        -2.3121  -22.0186  -54.4900 C.3       20 UNK         0.1400 
    111 CB        -1.3570  -22.5996  -53.4338 C.3       20 UNK        -0.1800 
    112 C         -2.4980  -20.5129  -54.2588 C.2       20 UNK         0.5000 
    113 O         -3.1722  -20.1151  -53.3073 O.2       20 UNK        -0.5000 
    114 N         -1.8337  -19.7051  -55.0949 N.am      21 UNK        -0.5000 
    115 CA        -1.6616  -18.2642  -54.8836 C.3       21 UNK         0.1400 
    116 CB        -1.3557  -17.5932  -56.2317 C.3       21 UNK        -0.1800 
    117 C         -0.5463  -17.9588  -53.8608 C.2       21 UNK         0.5000 
    118 O         -0.5737  -16.8942  -53.2440 O.2       21 UNK        -0.5000 
    119 N          0.3861  -18.9117  -53.7051 N.am      22 UNK        -0.5000 
    120 CA         1.5452  -18.9267  -52.7989 C.3       22 UNK         0.1400 
    121 C          2.4815  -17.6789  -52.8855 C.2       22 UNK         0.5000 
    122 N          3.2207  -17.3421  -51.8366 N.am      22 UNK        -0.7600 
    123 O          2.6072  -17.0528  -53.9360 O.2       22 UNK        -0.5000 
    124 C124        1.1878  -19.4485  -51.3737 C.3       23 UNK        -0.0398 
    125 S125        0.4091  -18.2537  -50.2349 S.3       23 UNK        -0.2404 
    126 C126       -1.3417  -18.7424  -50.3120 C.3       23 UNK        -0.0205 
    127 H127       -4.5323  -10.4382  -43.7810 H         1 UNK         0.0600 
    128 H128       -4.9547  -11.8263  -44.7871 H         1 UNK         0.0600 
    129 H129       -5.9735  -10.3840  -44.8022 H         1 UNK         0.0600 
    130 H130       -3.6170  -11.9825  -46.5638 H         1 UNK         0.3000 
    131 H131       -3.0477   -9.7172  -48.2881 H         1 UNK         0.0600 
    132 H132       -1.8745  -11.4190  -49.7027 H         1 UNK         0.0800 
    133 H133       -3.5345  -11.7935  -49.3828 H         1 UNK         0.0800 
    134 H134       -3.6133  -14.2217  -49.9193 H         1 UNK         0.0800 
    135 H135       -4.3542  -14.0752  -48.3408 H         1 UNK         0.0800 
    136 H136       -2.0980  -16.1351  -50.4500 H         1 UNK         0.1150 
    137 H137       -2.3658  -19.5887  -47.9265 H         1 UNK         0.1150 
    138 H138       -4.1572  -15.8953  -46.6940 H         1 UNK         0.1150 
    139 H139       -4.5826  -17.9103  -45.4220 H         1 UNK         0.0800 
    140 H140       -4.2333  -19.4573  -46.1509 H         1 UNK         0.0800 
    141 H141       -3.7483  -20.1829  -43.4926 H         1 UNK         0.0800 
    142 H142       -2.0610  -20.3281  -43.0836 H         1 UNK         0.0800 
    143 H143       -3.4491  -21.4715  -45.5519 H         1 UNK         0.0600 
    144 H144       -0.7124  -20.8509  -45.4774 H         1 UNK         0.3000 
    145 H145        0.4533  -23.5683  -47.5267 H         1 UNK         0.0600 
    146 H146       -0.0348  -20.6324  -48.2400 H         1 UNK         0.0600 
    147 H147        1.2396  -21.6358  -48.9243 H         1 UNK         0.0600 
    148 H148       -0.4425  -22.0386  -49.2163 H         1 UNK         0.0600 
    149 H149        1.3881  -21.0930  -46.1991 H         1 UNK         0.3000 
    150 H150        2.9182  -22.8400  -43.5360 H         1 UNK         0.0600 
    151 H151        4.6781  -23.1670  -45.2797 H         1 UNK         0.0600 
    152 H152        5.0260  -21.7596  -44.2869 H         1 UNK         0.0600 
    153 H153        4.3707  -21.5530  -45.9109 H         1 UNK         0.0600 
    154 H154        3.0419  -20.1119  -44.4202 H         1 UNK         0.3000 
    155 H155       -0.0344  -19.0094  -43.0645 H         1 UNK         0.0600 
    156 H156        1.4202  -19.2008  -41.0260 H         1 UNK         0.0600 
    157 H157        1.3535  -17.5613  -41.6471 H         1 UNK         0.0600 
    158 H158        2.7765  -18.5588  -41.9460 H         1 UNK         0.0600 
    159 H159        1.8770  -17.3442  -44.0253 H         1 UNK         0.3000 
    160 H160        1.8936  -17.8851  -47.5273 H         1 UNK         0.0600 
    161 H161        1.0563  -15.5064  -47.5177 H         1 UNK         0.0600 
    162 H162        0.3916  -15.7699  -45.9029 H         1 UNK         0.0600 
    163 H163       -0.2299  -16.6775  -47.2689 H         1 UNK         0.0600 
    164 H164        2.9995  -15.7695  -46.0342 H         1 UNK         0.3000 
    165 H165        6.0523  -17.3563  -45.0356 H         1 UNK         0.0600 
    166 H166        5.3627  -15.2361  -47.1391 H         1 UNK         0.0600 
    167 H167        6.8944  -15.3603  -46.2757 H         1 UNK         0.0600 
    168 H168        6.3932  -16.6400  -47.3705 H         1 UNK         0.0600 
    169 H169        4.6033  -14.7911  -44.7881 H         1 UNK         0.3000 
    170 H170        3.6541  -15.3775  -41.4360 H         1 UNK         0.0600 
    171 H171        5.9215  -13.5254  -42.3508 H         1 UNK         0.0600 
    172 H172        4.9526  -13.3350  -40.8886 H         1 UNK         0.0600 
    173 H173        6.0323  -14.7100  -41.0545 H         1 UNK         0.0600 
    174 H174        3.6041  -13.0212  -43.0539 H         1 UNK         0.3000 
    175 H175        0.6686  -13.7410  -44.9053 H         1 UNK         0.0600 
    176 H176        1.0197  -11.8664  -42.5096 H         1 UNK         0.0600 
    177 H177       -0.2078  -11.7350  -43.7694 H         1 UNK         0.0600 
    178 H178       -0.2308  -13.0956  -42.6615 H         1 UNK         0.0600 
    179 H179        1.9953  -11.3307  -44.7972 H         1 UNK         0.3000 
    180 H180        4.4850  -11.0837  -45.8513 H         1 UNK         0.0600 
    181 H181        4.0265  -12.4565  -48.5506 H         1 UNK         0.0600 
    182 H182        5.4136  -12.6485  -47.4910 H         1 UNK         0.0600 
    183 H183        5.1260  -11.1050  -48.2774 H         1 UNK         0.0600 
    184 H184        3.0263   -9.5381  -46.4509 H         1 UNK         0.3000 
    185 H185        1.0113   -8.6732  -46.9452 H         1 UNK         0.0600 
    186 H186        0.8743   -7.3830  -49.0712 H         1 UNK         0.0600 
    187 H187        2.4998   -8.0086  -48.8461 H         1 UNK         0.0600 
    188 H188        1.4140   -8.7910  -49.9874 H         1 UNK         0.0600 
    189 H189       -0.7900   -9.3449  -49.0675 H         1 UNK         0.3000 
    190 H190       -0.9005  -23.0312  -43.7036 H         1 UNK         0.3000 
    191 H191       -2.4415  -24.6518  -41.9802 H         1 UNK         0.0600 
    192 H192        0.2546  -25.2131  -43.3306 H         1 UNK         0.0600 
    193 H193        0.0246  -24.3500  -41.8105 H         1 UNK         0.0600 
    194 H194       -0.3778  -26.0571  -41.9219 H         1 UNK         0.0600 
    195 H195       -2.0455  -24.8669  -45.4490 H         1 UNK         0.3000 
    196 H196       -3.4258  -27.5165  -45.5710 H         1 UNK         0.0600 
    197 H197       -1.1521  -27.4483  -46.6408 H         1 UNK         0.0600 
    198 H198       -1.6700  -26.1038  -47.6549 H         1 UNK         0.0600 
    199 H199       -2.4214  -27.6868  -47.8283 H         1 UNK         0.0600 
    200 H200       -4.3934  -24.5432  -45.2245 H         1 UNK         0.3000 
    201 H201       -5.9956  -23.1722  -45.8682 H         1 UNK         0.0600 
    202 H202       -8.0987  -24.1327  -46.7421 H         1 UNK         0.0600 
    203 H203       -7.4306  -25.1855  -45.5064 H         1 UNK         0.0600 
    204 H204       -7.2766  -25.6147  -47.2086 H         1 UNK         0.0600 
    205 H205       -3.7114  -23.0899  -47.4445 H         1 UNK         0.3000 
    206 H206       -2.8078  -22.2166  -49.2535 H         1 UNK         0.0600 
    207 H207       -4.5106  -20.3926  -49.0569 H         1 UNK         0.0600 
    208 H208       -5.5853  -21.2760  -50.1260 H         1 UNK         0.0600 
    209 H209       -4.0421  -20.6873  -50.7245 H         1 UNK         0.0600 
    210 H210       -3.2814  -24.8789  -49.1618 H         1 UNK         0.3000 
    211 H211       -3.3089  -26.8108  -50.2395 H         1 UNK         0.0600 
    212 H212       -1.5689  -25.7406  -51.7160 H         1 UNK         0.0600 
    213 H213       -2.5197  -26.9513  -52.5638 H         1 UNK         0.0600 
    214 H214       -2.8398  -25.2463  -52.8342 H         1 UNK         0.0600 
    215 H215       -5.6821  -26.0051  -49.4925 H         1 UNK         0.3000 
    216 H216       -7.8952  -25.9658  -49.7050 H         1 UNK         0.0600 
    217 H217       -8.9836  -27.6998  -51.0900 H         1 UNK         0.0600 
    218 H218       -7.5053  -27.9539  -52.0069 H         1 UNK         0.0600 
    219 H219       -7.5683  -28.3704  -50.2950 H         1 UNK         0.0600 
    220 H220       -6.8612  -23.7748  -50.6120 H         1 UNK         0.3000 
    221 H221       -7.0817  -21.9077  -51.7207 H         1 UNK         0.0600 
    222 H222       -9.7559  -22.9746  -52.7526 H         1 UNK         0.0600 
    223 H223       -9.5002  -22.2397  -51.1698 H         1 UNK         0.0600 
    224 H224       -9.2764  -21.2887  -52.6269 H         1 UNK         0.0600 
    225 H225       -5.9316  -24.3487  -53.2811 H         1 UNK         0.3000 
    226 H226       -6.3358  -23.5285  -56.0730 H         1 UNK         0.0600 
    227 H227       -6.1652  -25.9474  -55.3963 H         1 UNK         0.0600 
    228 H228       -4.9664  -25.4794  -56.5941 H         1 UNK         0.0600 
    229 H229       -4.4905  -25.6718  -54.9144 H         1 UNK         0.0600 
    230 H230       -3.9239  -22.9837  -53.5089 H         1 UNK         0.3000 
    231 H231       -1.8493  -22.1752  -55.4670 H         1 UNK         0.0600 
    232 H232       -0.3851  -22.1065  -53.4724 H         1 UNK         0.0600 
    233 H233       -1.1848  -23.6626  -53.6000 H         1 UNK         0.0600 
    234 H234       -1.7441  -22.4737  -52.4226 H         1 UNK         0.0600 
    235 H235       -1.3359  -20.1075  -55.8763 H         1 UNK         0.3000 
    236 H236       -2.5933  -17.8450  -54.4974 H         1 UNK         0.0600 
    237 H237       -2.1602  -17.7618  -56.9479 H         1 UNK         0.0600 
    238 H238       -1.2474  -16.5142  -56.1136 H         1 UNK         0.0600 
    239 H239       -0.4302  -17.9693  -56.6694 H         1 UNK         0.0600 
    240 H240        0.3096  -19.7198  -54.3026 H         1 UNK         0.3000 
    241 H241        2.1709  -19.7087  -53.2307 H         1 UNK         0.0600 
    242 H242        3.1250  -17.8192  -50.9546 H         1 UNK         0.3800 
    243 H243        3.8438  -16.5535  -51.9111 H         1 UNK         0.3800 
    244 H244        0.5502  -20.3297  -51.4554 H         1 UNK         0.0800 
    245 H245        2.0944  -19.8083  -50.8854 H         1 UNK         0.0800 
    246 H246       -1.4379  -19.8123  -50.1257 H         1 UNK         0.0800 
    247 H247       -1.7351  -18.5693  -51.3132 H         1 UNK         0.0800 
@<TRIPOS>BOND
     1    1    2 1    
     2    1  127 1    
     3    1  128 1    
     4    1  129 1    
     5    2    3 2    
     6    2    4 am   BACKBONE|DICT|INTERRES
     7    4    5 1    
     8    4  130 1    
     9    5    6 1    
    10    5   65 1    
    11    5  131 1    
    12    6    7 1    
    13    6  132 1    
    14    6  133 1    
    15    7    8 1    
    16    8    9 1    
    17    8  134 1    
    18    8  135 1    
    19    9   10 ar   
    20    9   14 ar   
    21   10   11 ar   
    22   10  136 1    
    23   11   12 ar   
    24   11  126 1    
    25   12   13 ar   
    26   12  137 1    
    27   13   14 ar   
    28   13   15 1    
    29   14  138 1    
    30   15   16 1    
    31   15  139 1    
    32   15  140 1    
    33   16   17 1    
    34   17   18 1    
    35   17  141 1    
    36   17  142 1    
    37   18   19 1    
    38   18   67 1    
    39   18  143 1    
    40   19   20 am   BACKBONE|DICT|INTERRES
    41   19  144 1    
    42   20   21 2    
    43   20   22 1    
    44   22   23 1    
    45   22   24 1    
    46   22  145 1    
    47   23  146 1    
    48   23  147 1    
    49   23  148 1    
    50   24   25 am   BACKBONE|DICT|INTERRES
    51   24  149 1    
    52   25   26 2    
    53   25   27 1    
    54   27   28 1    
    55   27   29 1    
    56   27  150 1    
    57   28  151 1    
    58   28  152 1    
    59   28  153 1    
    60   29   30 am   BACKBONE|DICT|INTERRES
    61   29  154 1    
    62   30   31 2    
    63   30   32 1    
    64   32   33 1    
    65   32   34 1    
    66   32  155 1    
    67   33  156 1    
    68   33  157 1    
    69   33  158 1    
    70   34   35 am   BACKBONE|DICT|INTERRES
    71   34  159 1    
    72   35   36 2    
    73   35   37 1    
    74   37   38 1    
    75   37   39 1    
    76   37  160 1    
    77   38  161 1    
    78   38  162 1    
    79   38  163 1    
    80   39   40 am   BACKBONE|DICT|INTERRES
    81   39  164 1    
    82   40   41 2    
    83   40   42 1    
    84   42   43 1    
    85   42   44 1    
    86   42  165 1    
    87   43  166 1    
    88   43  167 1    
    89   43  168 1    
    90   44   45 am   BACKBONE|DICT|INTERRES
    91   44  169 1    
    92   45   46 2    
    93   45   47 1    
    94   47   48 1    
    95   47   49 1    
    96   47  170 1    
    97   48  171 1    
    98   48  172 1    
    99   48  173 1    
   100   49   50 am   BACKBONE|DICT|INTERRES
   101   49  174 1    
   102   50   51 2    
   103   50   52 1    
   104   52   53 1    
   105   52   54 1    
   106   52  175 1    
   107   53  176 1    
   108   53  177 1    
   109   53  178 1    
   110   54   55 am   BACKBONE|DICT|INTERRES
   111   54  179 1    
   112   55   56 2    
   113   55   57 1    
   114   57   58 1    
   115   57   59 1    
   116   57  180 1    
   117   58  181 1    
   118   58  182 1    
   119   58  183 1    
   120   59   60 am   BACKBONE|DICT|INTERRES
   121   59  184 1    
   122   60   61 2    
   123   60   62 1    
   124   62   63 1    
   125   62   64 1    
   126   62  185 1    
   127   63  186 1    
   128   63  187 1    
   129   63  188 1    
   130   64   65 am   BACKBONE|DICT|INTERRES
   131   64  189 1    
   132   65   66 2    
   133   67   68 2    
   134   67   69 am   BACKBONE|DICT|INTERRES
   135   69   70 1    
   136   69  190 1    
   137   70   71 1    
   138   70   72 1    
   139   70  191 1    
   140   71  192 1    
   141   71  193 1    
   142   71  194 1    
   143   72   73 2    
   144   72   74 am   BACKBONE|DICT|INTERRES
   145   74   75 1    
   146   74  195 1    
   147   75   76 1    
   148   75   77 1    
   149   75  196 1    
   150   76  197 1    
   151   76  198 1    
   152   76  199 1    
   153   77   78 2    
   154   77   79 am   BACKBONE|DICT|INTERRES
   155   79   80 1    
   156   79  200 1    
   157   80   81 1    
   158   80   82 1    
   159   80  201 1    
   160   81  202 1    
   161   81  203 1    
   162   81  204 1    
   163   82   83 2    
   164   82   84 am   BACKBONE|DICT|INTERRES
   165   84   85 1    
   166   84  205 1    
   167   85   86 1    
   168   85   87 1    
   169   85  206 1    
   170   86  207 1    
   171   86  208 1    
   172   86  209 1    
   173   87   88 2    
   174   87   89 am   BACKBONE|DICT|INTERRES
   175   89   90 1    
   176   89  210 1    
   177   90   91 1    
   178   90   92 1    
   179   90  211 1    
   180   91  212 1    
   181   91  213 1    
   182   91  214 1    
   183   92   93 2    
   184   92   94 am   BACKBONE|DICT|INTERRES
   185   94   95 1    
   186   94  215 1    
   187   95   96 1    
   188   95   97 1    
   189   95  216 1    
   190   96  217 1    
   191   96  218 1    
   192   96  219 1    
   193   97   98 2    
   194   97   99 am   BACKBONE|DICT|INTERRES
   195   99  100 1    
   196   99  220 1    
   197  100  101 1    
   198  100  102 1    
   199  100  221 1    
   200  101  222 1    
   201  101  223 1    
   202  101  224 1    
   203  102  103 2    
   204  102  104 am   BACKBONE|DICT|INTERRES
   205  104  105 1    
   206  104  225 1    
   207  105  106 1    
   208  105  107 1    
   209  105  226 1    
   210  106  227 1    
   211  106  228 1    
   212  106  229 1    
   213  107  108 2    
   214  107  109 am   BACKBONE|DICT|INTERRES
   215  109  110 1    
   216  109  230 1    
   217  110  111 1    
   218  110  112 1    
   219  110  231 1    
   220  111  232 1    
   221  111  233 1    
   222  111  234 1    
   223  112  113 2    
   224  112  114 am   BACKBONE|DICT|INTERRES
   225  114  115 1    
   226  114  235 1    
   227  115  116 1    
   228  115  117 1    
   229  115  236 1    
   230  116  237 1    
   231  116  238 1    
   232  116  239 1    
   233  117  118 2    
   234  117  119 am   BACKBONE|DICT|INTERRES
   235  119  120 1    
   236  119  240 1    
   237  120  121 1    
   238  120  124 1    
   239  120  241 1    
   240  121  122 am   BACKBONE|DICT|INTERRES
   241  121  123 2    
   242  122  242 1    
   243  122  243 1    
   244  124  125 1    
   245  124  244 1    
   246  124  245 1    
   247  125  126 1    
   248  126  246 1    
   249  126  247 1    
@<TRIPOS>SUBSTRUCTURE
     1 UNK         1 GROUP             0       ****    0 ROOT    
