@<TRIPOS>MOLECULE
3R540
247   249    1
SMALL
USER_CHARGES


@<TRIPOS>ATOM
      1 CA         -4.8057  -11.6666  -48.4845 C.3       0 UNK        -0.1800 
      2 C          -3.3319  -11.9563  -48.2416 C.2       0 UNK         0.5000 
      3 O          -2.6378  -11.1348  -47.6437 O.2       0 UNK        -0.5000 
      4 N          -2.8551  -13.1262  -48.6863 N.am      1 UNK        -0.5000 
      5 CA         -1.4660  -13.6019  -48.5632 C.3       1 UNK         0.1400 
      6 C6         -1.2953  -14.9710  -49.2613 C.3       23 UNK        -0.0398 
      7 S7          0.3081  -15.2248  -50.1010 S.3       23 UNK        -0.2404 
      8 C8          0.9159  -16.8206  -49.4274 C.3       23 UNK        -0.0205 
      9 C9          0.1626  -18.0931  -49.8442 C.ar      23 UNK        -0.0193 
     10 C10        -1.1574  -18.0730  -50.3089 C.ar      23 UNK        -0.1150 
     11 C11        -1.8416  -19.2502  -50.6022 C.ar      23 UNK        -0.0193 
     12 C12        -1.1825  -20.4711  -50.4770 C.ar      23 UNK        -0.1150 
     13 C13         0.1513  -20.5256  -50.0659 C.ar      23 UNK        -0.0193 
     14 C14         0.8111  -19.3317  -49.7380 C.ar      23 UNK        -0.1150 
     15 C15         0.8533  -21.8841  -50.0377 C.3       23 UNK        -0.0205 
     16 S16         2.0335  -22.1335  -48.6690 S.3       23 UNK        -0.2404 
     17 C17         0.9920  -21.8324  -47.2073 C.3       23 UNK        -0.0398 
     18 CA          0.4608  -23.1171  -46.5250 C.3       11 UNK         0.1400 
     19 N           0.2399  -22.8841  -45.0945 N.am      11 UNK        -0.5000 
     20 C          -0.1719  -23.7869  -44.1953 C.2       10 UNK         0.5000 
     21 O          -0.3746  -24.9695  -44.4546 O.2       10 UNK        -0.5000 
     22 CA         -0.4614  -23.2654  -42.7782 C.3       10 UNK         0.1400 
     23 CB          0.8245  -23.1923  -41.9412 C.3       10 UNK        -0.1800 
     24 N          -1.1081  -21.9541  -42.8126 N.am      10 UNK        -0.5000 
     25 C          -2.3730  -21.7493  -43.2062 C.2       9 UNK         0.5000 
     26 O          -3.1460  -22.6555  -43.5195 O.2       9 UNK        -0.5000 
     27 CA         -2.8313  -20.2821  -43.3095 C.3       9 UNK         0.1400 
     28 CB         -3.2345  -19.7370  -41.9316 C.3       9 UNK        -0.1800 
     29 N          -1.8067  -19.4134  -43.8920 N.am      9 UNK        -0.5000 
     30 C          -1.3808  -19.4983  -45.1605 C.2       8 UNK         0.5000 
     31 O          -1.8331  -20.2976  -45.9779 O.2       8 UNK        -0.5000 
     32 CA         -0.2305  -18.5631  -45.5800 C.3       8 UNK         0.1400 
     33 CB         -0.8169  -17.2345  -46.0627 C.3       8 UNK        -0.1800 
     34 N           0.7579  -18.3045  -44.5281 N.am      8 UNK        -0.5000 
     35 C           1.4185  -19.2406  -43.8272 C.2       7 UNK         0.5000 
     36 O           1.2742  -20.4476  -44.0162 O.2       7 UNK        -0.5000 
     37 CA          2.3856  -18.7801  -42.7162 C.3       7 UNK         0.1400 
     38 CB          3.8396  -19.0546  -43.1289 C.3       7 UNK        -0.1800 
     39 N           2.2608  -17.3692  -42.3519 N.am      7 UNK        -0.5000 
     40 C           1.1834  -16.7823  -41.8129 C.2       6 UNK         0.5000 
     41 O           0.1712  -17.3961  -41.4724 O.2       6 UNK        -0.5000 
     42 CA          1.2275  -15.2454  -41.6771 C.3       6 UNK         0.1400 
     43 CB          1.4727  -14.8423  -40.2154 C.3       6 UNK        -0.1800 
     44 N           2.2258  -14.5803  -42.5280 N.am      6 UNK        -0.5000 
     45 C           2.2548  -14.6203  -43.8674 C.2       5 UNK         0.5000 
     46 O           1.4785  -15.2922  -44.5465 O.2       5 UNK        -0.5000 
     47 CA          3.3502  -13.8072  -44.5630 C.3       5 UNK         0.1400 
     48 CB          4.2587  -14.7097  -45.4168 C.3       5 UNK        -0.1800 
     49 N           2.7157  -12.7975  -45.4007 N.am      5 UNK        -0.5000 
     50 C           3.2578  -11.6153  -45.7172 C.2       4 UNK         0.5000 
     51 O           4.3839  -11.2616  -45.3647 O.2       4 UNK        -0.5000 
     52 CA          2.3882  -10.6513  -46.5412 C.3       4 UNK         0.1400 
     53 CB          2.4048  -11.0266  -48.0320 C.3       4 UNK        -0.1800 
     54 N           1.0114  -10.6342  -46.0493 N.am      4 UNK        -0.5000 
     55 C           0.5811   -9.8747  -45.0315 C.2       3 UNK         0.5000 
     56 O           1.2909   -9.0570  -44.4444 O.2       3 UNK        -0.5000 
     57 CA         -0.8842  -10.0492  -44.5870 C.3       3 UNK         0.1400 
     58 CB         -1.7753   -8.9792  -45.2357 C.3       3 UNK        -0.1800 
     59 N          -1.4106  -11.3787  -44.9000 N.am      3 UNK        -0.5000 
     60 C          -1.1330  -12.4771  -44.1812 C.2       2 UNK         0.5000 
     61 O          -0.4765  -12.4545  -43.1402 O.2       2 UNK        -0.5000 
     62 CA         -1.6563  -13.8306  -44.7051 C.3       2 UNK         0.1400 
     63 CB         -2.9630  -14.2098  -43.9927 C.3       2 UNK        -0.1800 
     64 N          -1.8704  -13.8875  -46.1525 N.am      2 UNK        -0.5000 
     65 C          -0.9577  -13.6371  -47.1029 C.2       1 UNK         0.5000 
     66 O           0.2179  -13.3660  -46.8604 O.2       1 UNK        -0.5000 
     67 C          -0.8112  -23.6469  -47.2249 C.2       11 UNK         0.5000 
     68 O          -0.7503  -24.6468  -47.9463 O.2       11 UNK        -0.5000 
     69 N          -1.9470  -22.9862  -46.9559 N.am      12 UNK        -0.5000 
     70 CA         -3.2797  -23.3554  -47.4287 C.3       12 UNK         0.1400 
     71 CB         -4.2840  -22.2674  -47.0235 C.3       12 UNK        -0.1800 
     72 C          -3.7391  -24.7296  -46.9145 C.2       12 UNK         0.5000 
     73 O          -4.2908  -25.5130  -47.6871 O.2       12 UNK        -0.5000 
     74 N          -3.4890  -25.0016  -45.6264 N.am      13 UNK        -0.5000 
     75 CA         -3.7990  -26.2768  -44.9811 C.3       13 UNK         0.1400 
     76 CB         -3.6677  -26.1225  -43.4582 C.3       13 UNK        -0.1800 
     77 C          -2.9193  -27.4335  -45.4920 C.2       13 UNK         0.5000 
     78 O          -3.4212  -28.5450  -45.6644 O.2       13 UNK        -0.5000 
     79 N          -1.6290  -27.1530  -45.7188 N.am      14 UNK        -0.5000 
     80 CA         -0.6296  -28.1150  -46.1758 C.3       14 UNK         0.1400 
     81 CB          0.7769  -27.5135  -46.0269 C.3       14 UNK        -0.1800 
     82 C          -0.8582  -28.5930  -47.6180 C.2       14 UNK         0.5000 
     83 O          -0.7552  -29.7953  -47.8685 O.2       14 UNK        -0.5000 
     84 N          -1.1528  -27.6624  -48.5371 N.am      15 UNK        -0.5000 
     85 CA         -1.3288  -27.9771  -49.9572 C.3       15 UNK         0.1400 
     86 CB          0.0384  -28.2387  -50.6217 C.3       15 UNK        -0.1800 
     87 C          -2.0833  -26.9005  -50.7475 C.2       15 UNK         0.5000 
     88 O          -2.7762  -27.2518  -51.7032 O.2       15 UNK        -0.5000 
     89 N          -1.8883  -25.6184  -50.4046 N.am      16 UNK        -0.5000 
     90 CA         -2.3345  -24.4094  -51.1179 C.3       16 UNK         0.1400 
     91 CB         -3.8677  -24.3453  -51.2571 C.3       16 UNK        -0.1800 
     92 C          -1.6438  -24.1774  -52.4801 C.2       16 UNK         0.5000 
     93 O          -1.2722  -23.0429  -52.7784 O.2       16 UNK        -0.5000 
     94 N          -1.4553  -25.2490  -53.2609 N.am      17 UNK        -0.5000 
     95 CA         -0.8215  -25.2982  -54.5793 C.3       17 UNK         0.1400 
     96 CB          0.6834  -24.9598  -54.4697 C.3       17 UNK        -0.1800 
     97 C          -1.5901  -24.4613  -55.6261 C.2       17 UNK         0.5000 
     98 O          -2.8228  -24.4783  -55.6303 O.2       17 UNK        -0.5000 
     99 N          -0.8601  -23.7742  -56.5136 N.am      18 UNK        -0.5000 
    100 CA        -1.4072  -22.9508  -57.5950 C.3       18 UNK         0.1400 
    101 CB        -0.3485  -22.8419  -58.7048 C.3       18 UNK        -0.1800 
    102 C         -1.8585  -21.5474  -57.1394 C.2       18 UNK         0.5000 
    103 O         -2.4864  -20.8359  -57.9258 O.2       18 UNK        -0.5000 
    104 N         -1.5148  -21.1560  -55.9052 N.am      19 UNK        -0.5000 
    105 CA        -1.8731  -19.8710  -55.3073 C.3       19 UNK         0.1400 
    106 CB        -0.9856  -19.6400  -54.0744 C.3       19 UNK        -0.1800 
    107 C         -3.3676  -19.7888  -54.9372 C.2       19 UNK         0.5000 
    108 O         -4.0367  -20.8144  -54.7897 O.2       19 UNK        -0.5000 
    109 N         -3.8523  -18.5570  -54.7622 N.am      20 UNK        -0.5000 
    110 CA        -5.2102  -18.2220  -54.3459 C.3       20 UNK         0.1400 
    111 CB        -6.0965  -18.0367  -55.5899 C.3       20 UNK        -0.1800 
    112 C         -5.1606  -16.9445  -53.4942 C.2       20 UNK         0.5000 
    113 O         -4.1354  -16.2571  -53.4915 O.2       20 UNK        -0.5000 
    114 N         -6.2640  -16.6614  -52.7860 N.am      21 UNK        -0.5000 
    115 CA        -6.4428  -15.5480  -51.8432 C.3       21 UNK         0.1400 
    116 CB        -6.4045  -14.1879  -52.5720 C.3       21 UNK        -0.1800 
    117 C         -5.4536  -15.6323  -50.6628 C.2       21 UNK         0.5000 
    118 O         -4.7091  -14.6863  -50.3931 O.2       21 UNK        -0.5000 
    119 N         -5.4426  -16.7962  -49.9985 N.am      22 UNK        -0.5000 
    120 CA        -4.5153  -17.1073  -48.8991 C.3       22 UNK         0.1400 
    121 C         -4.7166  -16.2433  -47.6197 C.2       22 UNK         0.5000 
    122 N         -5.8957  -15.6858  -47.3752 N.am      22 UNK        -0.7600 
    123 O         -3.7798  -16.0496  -46.8554 O.2       22 UNK        -0.5000 
    124 C124       -4.4749  -18.6170  -48.5365 C.3       23 UNK        -0.0398 
    125 S125       -4.4961  -19.8140  -49.9248 S.3       23 UNK        -0.2404 
    126 C126       -3.2699  -19.1933  -51.1192 C.3       23 UNK        -0.0205 
    127 H127       -5.2906  -11.3831  -47.5504 H         1 UNK         0.0600 
    128 H128       -5.3291  -12.5343  -48.8858 H         1 UNK         0.0600 
    129 H129       -4.9145  -10.8438  -49.1908 H         1 UNK         0.0600 
    130 H130       -3.4882  -13.7358  -49.1984 H         1 UNK         0.3000 
    131 H131       -0.8555  -12.8669  -49.0917 H         1 UNK         0.0600 
    132 H132       -2.0412  -15.0543  -50.0524 H         1 UNK         0.0800 
    133 H133       -1.4975  -15.7902  -48.5723 H         1 UNK         0.0800 
    134 H134        0.9405  -16.7611  -48.3410 H         1 UNK         0.0800 
    135 H135        1.9562  -16.9191  -49.7410 H         1 UNK         0.0800 
    136 H136       -1.6723  -17.1463  -50.4714 H         1 UNK         0.1150 
    137 H137       -1.7083  -21.3757  -50.7396 H         1 UNK         0.1150 
    138 H138        1.8395  -19.3647  -49.4076 H         1 UNK         0.1150 
    139 H139        0.1194  -22.6888  -49.9963 H         1 UNK         0.0800 
    140 H140        1.3853  -22.0109  -50.9813 H         1 UNK         0.0800 
    141 H141        0.1820  -21.1464  -47.4524 H         1 UNK         0.0800 
    142 H142        1.6313  -21.2852  -46.5139 H         1 UNK         0.0800 
    143 H143        1.2245  -23.8944  -46.5953 H         1 UNK         0.0600 
    144 H144        0.4357  -21.9451  -44.7569 H         1 UNK         0.3000 
    145 H145       -1.1397  -23.9706  -42.2933 H         1 UNK         0.0600 
    146 H146        0.6146  -22.8584  -40.9250 H         1 UNK         0.0600 
    147 H147        1.5563  -22.5100  -42.3740 H         1 UNK         0.0600 
    148 H148        1.2960  -24.1733  -41.8698 H         1 UNK         0.0600 
    149 H149       -0.5171  -21.1534  -42.6410 H         1 UNK         0.3000 
    150 H150       -3.7090  -20.2536  -43.9589 H         1 UNK         0.0600 
    151 H151       -4.0036  -20.3610  -41.4745 H         1 UNK         0.0600 
    152 H152       -3.6400  -18.7281  -42.0111 H         1 UNK         0.0600 
    153 H153       -2.3865  -19.7038  -41.2463 H         1 UNK         0.0600 
    154 H154       -1.3726  -18.7370  -43.2790 H         1 UNK         0.3000 
    155 H155        0.2987  -19.0243  -46.4147 H         1 UNK         0.0600 
    156 H156       -1.4424  -17.3960  -46.9402 H         1 UNK         0.0600 
    157 H157       -0.0403  -16.5219  -46.3341 H         1 UNK         0.0600 
    158 H158       -1.4397  -16.7708  -45.2979 H         1 UNK         0.0600 
    159 H159        0.9634  -17.3287  -44.3426 H         1 UNK         0.3000 
    160 H160        2.1611  -19.3755  -41.8290 H         1 UNK         0.0600 
    161 H161        4.1253  -18.4705  -44.0048 H         1 UNK         0.0600 
    162 H162        3.9856  -20.1075  -43.3745 H         1 UNK         0.0600 
    163 H163        4.5319  -18.8130  -42.3222 H         1 UNK         0.0600 
    164 H164        3.0364  -16.7742  -42.6019 H         1 UNK         0.3000 
    165 H165        0.2446  -14.8737  -41.9729 H         1 UNK         0.0600 
    166 H166        1.4012  -13.7619  -40.0873 H         1 UNK         0.0600 
    167 H167        0.7320  -15.2947  -39.5544 H         1 UNK         0.0600 
    168 H168        2.4578  -15.1590  -39.8707 H         1 UNK         0.0600 
    169 H169        2.9046  -14.0092  -42.0456 H         1 UNK         0.3000 
    170 H170        3.9591  -13.3181  -43.7995 H         1 UNK         0.0600 
    171 H171        3.7020  -15.1938  -46.2206 H         1 UNK         0.0600 
    172 H172        5.0696  -14.1390  -45.8695 H         1 UNK         0.0600 
    173 H173        4.7119  -15.4947  -44.8104 H         1 UNK         0.0600 
    174 H174        1.7905  -13.0360  -45.7522 H         1 UNK         0.3000 
    175 H175        2.8143   -9.6499  -46.4488 H         1 UNK         0.0600 
    176 H176        2.0292  -12.0349  -48.2066 H         1 UNK         0.0600 
    177 H177        1.7974  -10.3371  -48.6184 H         1 UNK         0.0600 
    178 H178        3.4195  -10.9851  -48.4296 H         1 UNK         0.0600 
    179 H179        0.3895  -11.3346  -46.4344 H         1 UNK         0.3000 
    180 H180       -0.9229   -9.9035  -43.5053 H         1 UNK         0.0600 
    181 H181       -2.8173   -9.0967  -44.9378 H         1 UNK         0.0600 
    182 H182       -1.7293   -9.0206  -46.3242 H         1 UNK         0.0600 
    183 H183       -1.4614   -7.9788  -44.9352 H         1 UNK         0.0600 
    184 H184       -1.9394  -11.4646  -45.7626 H         1 UNK         0.3000 
    185 H185       -0.9125  -14.5840  -44.4537 H         1 UNK         0.0600 
    186 H186       -3.7713  -13.5226  -44.2452 H         1 UNK         0.0600 
    187 H187       -3.2814  -15.2170  -44.2620 H         1 UNK         0.0600 
    188 H188       -2.8389  -14.1904  -42.9091 H         1 UNK         0.0600 
    189 H189       -2.7922  -14.1818  -46.4521 H         1 UNK         0.3000 
    190 H190       -1.8950  -22.1354  -46.4008 H         1 UNK         0.3000 
    191 H191       -3.2461  -23.3925  -48.5163 H         1 UNK         0.0600 
    192 H192       -4.3796  -22.1865  -45.9405 H         1 UNK         0.0600 
    193 H193       -5.2742  -22.4776  -47.4293 H         1 UNK         0.0600 
    194 H194       -3.9771  -21.2934  -47.4003 H         1 UNK         0.0600 
    195 H195       -3.0615  -24.2878  -45.0488 H         1 UNK         0.3000 
    196 H196       -4.8383  -26.5251  -45.2064 H         1 UNK         0.0600 
    197 H197       -4.3322  -25.3444  -43.0820 H         1 UNK         0.0600 
    198 H198       -2.6503  -25.8628  -43.1649 H         1 UNK         0.0600 
    199 H199       -3.9299  -27.0501  -42.9479 H         1 UNK         0.0600 
    200 H200       -1.2816  -26.2293  -45.4723 H         1 UNK         0.3000 
    201 H201       -0.6889  -28.9900  -45.5251 H         1 UNK         0.0600 
    202 H202        1.0002  -27.2896  -44.9837 H         1 UNK         0.0600 
    203 H203        0.8829  -26.5902  -46.5977 H         1 UNK         0.0600 
    204 H204        1.5404  -28.2082  -46.3790 H         1 UNK         0.0600 
    205 H205       -1.2406  -26.6942  -48.2500 H         1 UNK         0.3000 
    206 H206       -1.9293  -28.8864  -50.0343 H         1 UNK         0.0600 
    207 H207        0.7049  -27.3822  -50.5130 H         1 UNK         0.0600 
    208 H208        0.5368  -29.1067  -50.1905 H         1 UNK         0.0600 
    209 H209       -0.0733  -28.4338  -51.6893 H         1 UNK         0.0600 
    210 H210       -1.2907  -25.4210  -49.6073 H         1 UNK         0.3000 
    211 H211       -2.0347  -23.5835  -50.4756 H         1 UNK         0.0600 
    212 H212       -4.2443  -25.0775  -51.9715 H         1 UNK         0.0600 
    213 H213       -4.1800  -23.3612  -51.6093 H         1 UNK         0.0600 
    214 H214       -4.3653  -24.5239  -50.3046 H         1 UNK         0.0600 
    215 H215       -1.8666  -26.1187  -52.9347 H         1 UNK         0.3000 
    216 H216       -0.9004  -26.3347  -54.9097 H         1 UNK         0.0600 
    217 H217        1.2079  -25.1708  -55.4022 H         1 UNK         0.0600 
    218 H218        1.1613  -25.5621  -53.6968 H         1 UNK         0.0600 
    219 H219        0.8516  -23.9115  -54.2201 H         1 UNK         0.0600 
    220 H220        0.1466  -23.8115  -56.4428 H         1 UNK         0.3000 
    221 H221       -2.2831  -23.4527  -58.0118 H         1 UNK         0.0600 
    222 H222        0.5548  -22.3430  -58.3515 H         1 UNK         0.0600 
    223 H223       -0.0654  -23.8262  -59.0784 H         1 UNK         0.0600 
    224 H224       -0.7272  -22.2718  -59.5541 H         1 UNK         0.0600 
    225 H225       -1.0599  -21.8231  -55.2988 H         1 UNK         0.3000 
    226 H226       -1.6609  -19.0848  -56.0350 H         1 UNK         0.0600 
    227 H227        0.0708  -19.6329  -54.3430 H         1 UNK         0.0600 
    228 H228       -1.2042  -18.6830  -53.5990 H         1 UNK         0.0600 
    229 H229       -1.1330  -20.4191  -53.3273 H         1 UNK         0.0600 
    230 H230       -3.2341  -17.7565  -54.8148 H         1 UNK         0.3000 
    231 H231       -5.6135  -19.0239  -53.7235 H         1 UNK         0.0600 
    232 H232       -7.1233  -17.7965  -55.3121 H         1 UNK         0.0600 
    233 H233       -6.1285  -18.9468  -56.1893 H         1 UNK         0.0600 
    234 H234       -5.7300  -17.2302  -56.2263 H         1 UNK         0.0600 
    235 H235       -7.0518  -17.2898  -52.8625 H         1 UNK         0.3000 
    236 H236       -7.4404  -15.6591  -51.4157 H         1 UNK         0.0600 
    237 H237       -5.4217  -13.9763  -52.9940 H         1 UNK         0.0600 
    238 H238       -7.1317  -14.1550  -53.3831 H         1 UNK         0.0600 
    239 H239       -6.6446  -13.3741  -51.8868 H         1 UNK         0.0600 
    240 H240       -6.0691  -17.5360  -50.2795 H         1 UNK         0.3000 
    241 H241       -3.5245  -16.8501  -49.2647 H         1 UNK         0.0600 
    242 H242       -6.0146  -15.1267  -46.5461 H         1 UNK         0.3800 
    243 H243       -6.6735  -15.8281  -47.9987 H         1 UNK         0.3800 
    244 H244       -5.3268  -18.8691  -47.9025 H         1 UNK         0.0800 
    245 H245       -3.5880  -18.8250  -47.9343 H         1 UNK         0.0800 
    246 H246       -3.5284  -18.1820  -51.4291 H         1 UNK         0.0800 
    247 H247       -3.3380  -19.8093  -52.0154 H         1 UNK         0.0800 
@<TRIPOS>BOND
     1    1    2 1    
     2    1  127 1    
     3    1  128 1    
     4    1  129 1    
     5    2    3 2    
     6    2    4 am   BACKBONE|DICT|INTERRES
     7    4    5 1    
     8    4  130 1    
     9    5    6 1    
    10    5   65 1    
    11    5  131 1    
    12    6    7 1    
    13    6  132 1    
    14    6  133 1    
    15    7    8 1    
    16    8    9 1    
    17    8  134 1    
    18    8  135 1    
    19    9   10 ar   
    20    9   14 ar   
    21   10   11 ar   
    22   10  136 1    
    23   11   12 ar   
    24   11  126 1    
    25   12   13 ar   
    26   12  137 1    
    27   13   14 ar   
    28   13   15 1    
    29   14  138 1    
    30   15   16 1    
    31   15  139 1    
    32   15  140 1    
    33   16   17 1    
    34   17   18 1    
    35   17  141 1    
    36   17  142 1    
    37   18   19 1    
    38   18   67 1    
    39   18  143 1    
    40   19   20 am   BACKBONE|DICT|INTERRES
    41   19  144 1    
    42   20   21 2    
    43   20   22 1    
    44   22   23 1    
    45   22   24 1    
    46   22  145 1    
    47   23  146 1    
    48   23  147 1    
    49   23  148 1    
    50   24   25 am   BACKBONE|DICT|INTERRES
    51   24  149 1    
    52   25   26 2    
    53   25   27 1    
    54   27   28 1    
    55   27   29 1    
    56   27  150 1    
    57   28  151 1    
    58   28  152 1    
    59   28  153 1    
    60   29   30 am   BACKBONE|DICT|INTERRES
    61   29  154 1    
    62   30   31 2    
    63   30   32 1    
    64   32   33 1    
    65   32   34 1    
    66   32  155 1    
    67   33  156 1    
    68   33  157 1    
    69   33  158 1    
    70   34   35 am   BACKBONE|DICT|INTERRES
    71   34  159 1    
    72   35   36 2    
    73   35   37 1    
    74   37   38 1    
    75   37   39 1    
    76   37  160 1    
    77   38  161 1    
    78   38  162 1    
    79   38  163 1    
    80   39   40 am   BACKBONE|DICT|INTERRES
    81   39  164 1    
    82   40   41 2    
    83   40   42 1    
    84   42   43 1    
    85   42   44 1    
    86   42  165 1    
    87   43  166 1    
    88   43  167 1    
    89   43  168 1    
    90   44   45 am   BACKBONE|DICT|INTERRES
    91   44  169 1    
    92   45   46 2    
    93   45   47 1    
    94   47   48 1    
    95   47   49 1    
    96   47  170 1    
    97   48  171 1    
    98   48  172 1    
    99   48  173 1    
   100   49   50 am   BACKBONE|DICT|INTERRES
   101   49  174 1    
   102   50   51 2    
   103   50   52 1    
   104   52   53 1    
   105   52   54 1    
   106   52  175 1    
   107   53  176 1    
   108   53  177 1    
   109   53  178 1    
   110   54   55 am   BACKBONE|DICT|INTERRES
   111   54  179 1    
   112   55   56 2    
   113   55   57 1    
   114   57   58 1    
   115   57   59 1    
   116   57  180 1    
   117   58  181 1    
   118   58  182 1    
   119   58  183 1    
   120   59   60 am   BACKBONE|DICT|INTERRES
   121   59  184 1    
   122   60   61 2    
   123   60   62 1    
   124   62   63 1    
   125   62   64 1    
   126   62  185 1    
   127   63  186 1    
   128   63  187 1    
   129   63  188 1    
   130   64   65 am   BACKBONE|DICT|INTERRES
   131   64  189 1    
   132   65   66 2    
   133   67   68 2    
   134   67   69 am   BACKBONE|DICT|INTERRES
   135   69   70 1    
   136   69  190 1    
   137   70   71 1    
   138   70   72 1    
   139   70  191 1    
   140   71  192 1    
   141   71  193 1    
   142   71  194 1    
   143   72   73 2    
   144   72   74 am   BACKBONE|DICT|INTERRES
   145   74   75 1    
   146   74  195 1    
   147   75   76 1    
   148   75   77 1    
   149   75  196 1    
   150   76  197 1    
   151   76  198 1    
   152   76  199 1    
   153   77   78 2    
   154   77   79 am   BACKBONE|DICT|INTERRES
   155   79   80 1    
   156   79  200 1    
   157   80   81 1    
   158   80   82 1    
   159   80  201 1    
   160   81  202 1    
   161   81  203 1    
   162   81  204 1    
   163   82   83 2    
   164   82   84 am   BACKBONE|DICT|INTERRES
   165   84   85 1    
   166   84  205 1    
   167   85   86 1    
   168   85   87 1    
   169   85  206 1    
   170   86  207 1    
   171   86  208 1    
   172   86  209 1    
   173   87   88 2    
   174   87   89 am   BACKBONE|DICT|INTERRES
   175   89   90 1    
   176   89  210 1    
   177   90   91 1    
   178   90   92 1    
   179   90  211 1    
   180   91  212 1    
   181   91  213 1    
   182   91  214 1    
   183   92   93 2    
   184   92   94 am   BACKBONE|DICT|INTERRES
   185   94   95 1    
   186   94  215 1    
   187   95   96 1    
   188   95   97 1    
   189   95  216 1    
   190   96  217 1    
   191   96  218 1    
   192   96  219 1    
   193   97   98 2    
   194   97   99 am   BACKBONE|DICT|INTERRES
   195   99  100 1    
   196   99  220 1    
   197  100  101 1    
   198  100  102 1    
   199  100  221 1    
   200  101  222 1    
   201  101  223 1    
   202  101  224 1    
   203  102  103 2    
   204  102  104 am   BACKBONE|DICT|INTERRES
   205  104  105 1    
   206  104  225 1    
   207  105  106 1    
   208  105  107 1    
   209  105  226 1    
   210  106  227 1    
   211  106  228 1    
   212  106  229 1    
   213  107  108 2    
   214  107  109 am   BACKBONE|DICT|INTERRES
   215  109  110 1    
   216  109  230 1    
   217  110  111 1    
   218  110  112 1    
   219  110  231 1    
   220  111  232 1    
   221  111  233 1    
   222  111  234 1    
   223  112  113 2    
   224  112  114 am   BACKBONE|DICT|INTERRES
   225  114  115 1    
   226  114  235 1    
   227  115  116 1    
   228  115  117 1    
   229  115  236 1    
   230  116  237 1    
   231  116  238 1    
   232  116  239 1    
   233  117  118 2    
   234  117  119 am   BACKBONE|DICT|INTERRES
   235  119  120 1    
   236  119  240 1    
   237  120  121 1    
   238  120  124 1    
   239  120  241 1    
   240  121  122 am   BACKBONE|DICT|INTERRES
   241  121  123 2    
   242  122  242 1    
   243  122  243 1    
   244  124  125 1    
   245  124  244 1    
   246  124  245 1    
   247  125  126 1    
   248  126  246 1    
   249  126  247 1    
@<TRIPOS>SUBSTRUCTURE
     1 UNK         1 GROUP             0       ****    0 ROOT    
