@<TRIPOS>MOLECULE
3R540
247   249    1
SMALL
USER_CHARGES


@<TRIPOS>ATOM
      1 CA          4.8526  -16.8233  -46.2096 C.3       0 UNK        -0.1800 
      2 C           5.6283  -16.0050  -47.2347 C.2       0 UNK         0.5000 
      3 O           6.6694  -16.4571  -47.7064 O.2       0 UNK        -0.5000 
      4 N           5.1813  -14.7979  -47.6014 N.am      1 UNK        -0.5000 
      5 CA          3.9726  -14.1043  -47.1343 C.3       1 UNK         0.1400 
      6 C6          2.9041  -13.9872  -48.2548 C.3       23 UNK        -0.0398 
      7 S7          2.2218  -15.6077  -48.7444 S.3       23 UNK        -0.2404 
      8 C8          0.9889  -15.0913  -49.9760 C.3       23 UNK        -0.0205 
      9 C9          0.0265  -16.2181  -50.3253 C.ar      23 UNK        -0.0193 
     10 C10         0.4524  -17.2927  -51.1140 C.ar      23 UNK        -0.1150 
     11 C11        -0.4399  -18.3096  -51.4666 C.ar      23 UNK        -0.0193 
     12 C12        -1.7692  -18.2290  -51.0452 C.ar      23 UNK        -0.1150 
     13 C13        -2.2065  -17.1768  -50.2379 C.ar      23 UNK        -0.0193 
     14 C14        -1.2994  -16.1745  -49.8791 C.ar      23 UNK        -0.1150 
     15 C15        -3.6597  -17.1051  -49.7729 C.3       23 UNK        -0.0205 
     16 S16        -4.2951  -18.6729  -49.0778 S.3       23 UNK        -0.2404 
     17 C17        -3.1387  -18.9616  -47.6980 C.3       23 UNK        -0.0398 
     18 CA         -2.1962  -20.1610  -47.9672 C.3       11 UNK         0.1400 
     19 N          -0.9055  -20.0147  -47.2939 N.am      11 UNK        -0.5000 
     20 C           0.1555  -20.8073  -47.4949 C.2       10 UNK         0.5000 
     21 O           0.1722  -21.7357  -48.3011 O.2       10 UNK        -0.5000 
     22 CA          1.3883  -20.5627  -46.6095 C.3       10 UNK         0.1400 
     23 CB          2.2358  -19.4071  -47.1589 C.3       10 UNK        -0.1800 
     24 N           1.0355  -20.3077  -45.2122 N.am      10 UNK        -0.5000 
     25 C           0.4207  -21.1909  -44.4124 C.2       9 UNK         0.5000 
     26 O           0.1321  -22.3368  -44.7572 O.2       9 UNK        -0.5000 
     27 CA          0.0123  -20.6990  -43.0114 C.3       9 UNK         0.1400 
     28 CB          1.2115  -20.7040  -42.0519 C.3       9 UNK        -0.1800 
     29 N          -0.5975  -19.3688  -43.0361 N.am      9 UNK        -0.5000 
     30 C          -1.7488  -19.0754  -43.6587 C.2       8 UNK         0.5000 
     31 O          -2.4434  -19.9063  -44.2449 O.2       8 UNK        -0.5000 
     32 CA         -2.1677  -17.5944  -43.6789 C.3       8 UNK         0.1400 
     33 CB         -2.8089  -17.1858  -42.3446 C.3       8 UNK        -0.1800 
     34 N          -1.0521  -16.6992  -43.9884 N.am      8 UNK        -0.5000 
     35 C          -0.3607  -16.7244  -45.1368 C.2       7 UNK         0.5000 
     36 O          -0.6214  -17.4756  -46.0729 O.2       7 UNK        -0.5000 
     37 CA          0.8590  -15.7981  -45.2408 C.3       7 UNK         0.1400 
     38 CB          0.4270  -14.3587  -45.5585 C.3       7 UNK        -0.1800 
     39 N           1.6809  -15.8197  -44.0338 N.am      7 UNK        -0.5000 
     40 C           2.3190  -16.8982  -43.5584 C.2       6 UNK         0.5000 
     41 O           2.3310  -17.9905  -44.1229 O.2       6 UNK        -0.5000 
     42 CA          3.0209  -16.7410  -42.1991 C.3       6 UNK         0.1400 
     43 CB          4.4053  -16.0933  -42.3543 C.3       6 UNK        -0.1800 
     44 N           2.2157  -15.9560  -41.2657 N.am      6 UNK        -0.5000 
     45 C           1.0649  -16.3764  -40.7225 C.2       5 UNK         0.5000 
     46 O           0.5773  -17.4894  -40.9234 O.2       5 UNK        -0.5000 
     47 CA          0.3180  -15.3601  -39.8403 C.3       5 UNK         0.1400 
     48 CB          0.8918  -15.3516  -38.4156 C.3       5 UNK        -0.1800 
     49 N           0.3636  -14.0040  -40.3925 N.am      5 UNK        -0.5000 
     50 C          -0.2585  -13.6334  -41.5201 C.2       4 UNK         0.5000 
     51 O          -0.9500  -14.3922  -42.1986 O.2       4 UNK        -0.5000 
     52 CA         -0.0380  -12.1840  -41.9910 C.3       4 UNK         0.1400 
     53 CB         -0.9995  -11.2293  -41.2676 C.3       4 UNK        -0.1800 
     54 N           1.3392  -11.7057  -41.8277 N.am      4 UNK        -0.5000 
     55 C           2.4092  -12.2506  -42.4200 C.2       3 UNK         0.5000 
     56 O           2.3692  -13.2814  -43.0948 O.2       3 UNK        -0.5000 
     57 CA          3.7550  -11.5487  -42.2101 C.3       3 UNK         0.1400 
     58 CB          4.4383  -12.0538  -40.9293 C.3       3 UNK        -0.1800 
     59 N           4.6007  -11.8499  -43.3602 N.am      3 UNK        -0.5000 
     60 C           5.3937  -10.9847  -43.9998 C.2       2 UNK         0.5000 
     61 O           5.5679   -9.8213  -43.6345 O.2       2 UNK        -0.5000 
     62 CA          6.1241  -11.4966  -45.2591 C.3       2 UNK         0.1400 
     63 CB          7.5980  -11.7899  -44.9374 C.3       2 UNK        -0.1800 
     64 N           5.5300  -12.6962  -45.8594 N.am      2 UNK        -0.5000 
     65 C           4.3727  -12.7357  -46.5376 C.2       1 UNK         0.5000 
     66 O           3.6550  -11.7490  -46.7035 O.2       1 UNK        -0.5000 
     67 C          -2.8722  -21.5040  -47.6266 C.2       11 UNK         0.5000 
     68 O          -3.3542  -22.1904  -48.5283 O.2       11 UNK        -0.5000 
     69 N          -2.8643  -21.8827  -46.3414 N.am      12 UNK        -0.5000 
     70 CA         -3.3701  -23.1683  -45.8599 C.3       12 UNK         0.1400 
     71 CB         -3.3478  -23.1898  -44.3245 C.3       12 UNK        -0.1800 
     72 C          -2.6006  -24.3698  -46.4412 C.2       12 UNK         0.5000 
     73 O          -3.2247  -25.3603  -46.8208 O.2       12 UNK        -0.5000 
     74 N          -1.2691  -24.2516  -46.5135 N.am      13 UNK        -0.5000 
     75 CA         -0.3719  -25.2873  -47.0159 C.3       13 UNK         0.1400 
     76 CB          1.0548  -25.0106  -46.5130 C.3       13 UNK        -0.1800 
     77 C          -0.3970  -25.4249  -48.5491 C.2       13 UNK         0.5000 
     78 O          -0.6787  -26.5116  -49.0556 O.2       13 UNK        -0.5000 
     79 N          -0.0571  -24.3424  -49.2603 N.am      14 UNK        -0.5000 
     80 CA          0.2450  -24.3693  -50.6927 C.3       14 UNK         0.1400 
     81 CB          1.3112  -23.3062  -51.0025 C.3       14 UNK        -0.1800 
     82 C          -0.9856  -24.1516  -51.5838 C.2       14 UNK         0.5000 
     83 O          -1.0071  -24.6610  -52.7048 O.2       14 UNK        -0.5000 
     84 N          -1.9716  -23.3893  -51.0954 N.am      15 UNK        -0.5000 
     85 CA         -3.1769  -23.0330  -51.8459 C.3       15 UNK         0.1400 
     86 CB         -3.3593  -21.5103  -51.8150 C.3       15 UNK        -0.1800 
     87 C          -4.4366  -23.7403  -51.3303 C.2       15 UNK         0.5000 
     88 O          -5.5170  -23.4676  -51.8562 O.2       15 UNK        -0.5000 
     89 N          -4.2963  -24.6084  -50.3182 N.am      16 UNK        -0.5000 
     90 CA         -5.3712  -25.3511  -49.6512 C.3       16 UNK         0.1400 
     91 CB         -5.9530  -26.4193  -50.6013 C.3       16 UNK        -0.1800 
     92 C          -6.4456  -24.4205  -49.0458 C.2       16 UNK         0.5000 
     93 O          -7.6399  -24.6963  -49.1602 O.2       16 UNK        -0.5000 
     94 N          -5.9879  -23.3091  -48.4493 N.am      17 UNK        -0.5000 
     95 CA         -6.7789  -22.2022  -47.9008 C.3       17 UNK         0.1400 
     96 CB         -7.6545  -22.6650  -46.7177 C.3       17 UNK        -0.1800 
     97 C          -7.5621  -21.4604  -49.0028 C.2       17 UNK         0.5000 
     98 O          -8.7556  -21.1941  -48.8546 O.2       17 UNK        -0.5000 
     99 N          -6.8497  -21.1592  -50.0983 N.am      18 UNK        -0.5000 
    100 CA        -7.2975  -20.4566  -51.3066 C.3       18 UNK         0.1400 
    101 CB        -7.8191  -19.0423  -50.9774 C.3       18 UNK        -0.1800 
    102 C         -8.2760  -21.2576  -52.1926 C.2       18 UNK         0.5000 
    103 O         -8.8632  -20.6817  -53.1094 O.2       18 UNK        -0.5000 
    104 N         -8.4144  -22.5677  -51.9458 N.am      19 UNK        -0.5000 
    105 CA        -9.2228  -23.4772  -52.7594 C.3       19 UNK         0.1400 
    106 CB        -9.5553  -24.7379  -51.9487 C.3       19 UNK        -0.1800 
    107 C         -8.5254  -23.8434  -54.0825 C.2       19 UNK         0.5000 
    108 O         -9.1849  -23.8928  -55.1215 O.2       19 UNK        -0.5000 
    109 N         -7.2061  -24.0712  -54.0237 N.am      20 UNK        -0.5000 
    110 CA        -6.3479  -24.3120  -55.1864 C.3       20 UNK         0.1400 
    111 CB        -5.2742  -25.3470  -54.8150 C.3       20 UNK        -0.1800 
    112 C         -5.6939  -23.0108  -55.6884 C.2       20 UNK         0.5000 
    113 O         -5.2997  -22.9429  -56.8526 O.2       20 UNK        -0.5000 
    114 N         -5.5888  -22.0071  -54.8022 N.am      21 UNK        -0.5000 
    115 CA        -5.1257  -20.6324  -55.0493 C.3       21 UNK         0.1400 
    116 CB        -6.0755  -19.9142  -56.0302 C.3       21 UNK        -0.1800 
    117 C         -3.6408  -20.4983  -55.4629 C.2       21 UNK         0.5000 
    118 O         -3.2487  -19.4281  -55.9279 O.2       21 UNK        -0.5000 
    119 N         -2.8545  -21.5712  -55.2780 N.am      22 UNK        -0.5000 
    120 CA        -1.4153  -21.7175  -55.5862 C.3       22 UNK         0.1400 
    121 C         -0.9664  -21.3329  -57.0314 C.2       22 UNK         0.5000 
    122 N         -1.8495  -21.3812  -58.0215 N.am      22 UNK        -0.7600 
    123 O          0.1995  -21.0333  -57.2754 O.2       22 UNK        -0.5000 
    124 C124       -0.4607  -21.2275  -54.4532 C.3       23 UNK        -0.0398 
    125 S125       -0.5772  -19.4632  -53.9881 S.3       23 UNK        -0.2404 
    126 C126        0.0240  -19.5162  -52.2688 C.3       23 UNK        -0.0205 
    127 H127        4.8500  -16.3150  -45.2475 H         1 UNK         0.0600 
    128 H128        5.3059  -17.8049  -46.0714 H         1 UNK         0.0600 
    129 H129        3.8229  -16.9732  -46.5304 H         1 UNK         0.0600 
    130 H130        5.7281  -14.2752  -48.2718 H         1 UNK         0.3000 
    131 H131        3.5161  -14.6369  -46.3003 H         1 UNK         0.0600 
    132 H132        2.0668  -13.3682  -47.9289 H         1 UNK         0.0800 
    133 H133        3.3234  -13.4979  -49.1354 H         1 UNK         0.0800 
    134 H134        1.5008  -14.7550  -50.8787 H         1 UNK         0.0800 
    135 H135        0.4367  -14.2304  -49.5960 H         1 UNK         0.0800 
    136 H136        1.4804  -17.3378  -51.4452 H         1 UNK         0.1150 
    137 H137       -2.4689  -18.9955  -51.3347 H         1 UNK         0.1150 
    138 H138       -1.6294  -15.3496  -49.2635 H         1 UNK         0.1150 
    139 H139       -3.7853  -16.3197  -49.0261 H         1 UNK         0.0800 
    140 H140       -4.2824  -16.8236  -50.6228 H         1 UNK         0.0800 
    141 H141       -3.7008  -19.0864  -46.7706 H         1 UNK         0.0800 
    142 H142       -2.5594  -18.0497  -47.5627 H         1 UNK         0.0800 
    143 H143       -1.9654  -20.1846  -49.0334 H         1 UNK         0.0600 
    144 H144       -0.8117  -19.2267  -46.6570 H         1 UNK         0.3000 
    145 H145        1.9973  -21.4685  -46.6367 H         1 UNK         0.0600 
    146 H146        3.1616  -19.3034  -46.5939 H         1 UNK         0.0600 
    147 H147        2.5072  -19.5796  -48.2011 H         1 UNK         0.0600 
    148 H148        1.7041  -18.4566  -47.1124 H         1 UNK         0.0600 
    149 H149        1.2876  -19.3963  -44.8378 H         1 UNK         0.3000 
    150 H150       -0.7326  -21.3961  -42.6220 H         1 UNK         0.0600 
    151 H151        1.6600  -21.6964  -41.9938 H         1 UNK         0.0600 
    152 H152        0.9093  -20.4232  -41.0428 H         1 UNK         0.0600 
    153 H153        1.9893  -20.0107  -42.3716 H         1 UNK         0.0600 
    154 H154       -0.1000  -18.6292  -42.5523 H         1 UNK         0.3000 
    155 H155       -2.9160  -17.4740  -44.4650 H         1 UNK         0.0600 
    156 H156       -2.0985  -17.2449  -41.5198 H         1 UNK         0.0600 
    157 H157       -3.6513  -17.8343  -42.1010 H         1 UNK         0.0600 
    158 H158       -3.1865  -16.1640  -42.3866 H         1 UNK         0.0600 
    159 H159       -0.8095  -16.0101  -43.2825 H         1 UNK         0.3000 
    160 H160        1.4792  -16.1632  -46.0585 H         1 UNK         0.0600 
    161 H161       -0.2477  -13.9628  -44.8000 H         1 UNK         0.0600 
    162 H162       -0.0931  -14.3140  -46.5162 H         1 UNK         0.0600 
    163 H163        1.2833  -13.6883  -45.6194 H         1 UNK         0.0600 
    164 H164        1.7728  -14.9384  -43.5334 H         1 UNK         0.3000 
    165 H165        3.1583  -17.7374  -41.7737 H         1 UNK         0.0600 
    166 H166        4.8837  -15.9477  -41.3856 H         1 UNK         0.0600 
    167 H167        5.0652  -16.7302  -42.9437 H         1 UNK         0.0600 
    168 H168        4.3506  -15.1236  -42.8495 H         1 UNK         0.0600 
    169 H169        2.5166  -15.0099  -41.0881 H         1 UNK         0.3000 
    170 H170       -0.7273  -15.6723  -39.7853 H         1 UNK         0.0600 
    171 H171        0.8563  -16.3491  -37.9754 H         1 UNK         0.0600 
    172 H172        1.9315  -15.0223  -38.3998 H         1 UNK         0.0600 
    173 H173        0.3199  -14.6900  -37.7648 H         1 UNK         0.0600 
    174 H174        0.9144  -13.3202  -39.8947 H         1 UNK         0.3000 
    175 H175       -0.2704  -12.1510  -43.0574 H         1 UNK         0.0600 
    176 H176       -0.7925  -11.1817  -40.1978 H         1 UNK         0.0600 
    177 H177       -0.9282  -10.2183  -41.6691 H         1 UNK         0.0600 
    178 H178       -2.0346  -11.5523  -41.3877 H         1 UNK         0.0600 
    179 H179        1.4594  -10.8691  -41.2749 H         1 UNK         0.3000 
    180 H180        3.5783  -10.4737  -42.1356 H         1 UNK         0.0600 
    181 H181        4.6162  -13.1294  -40.9642 H         1 UNK         0.0600 
    182 H182        3.8267  -11.8484  -40.0500 H         1 UNK         0.0600 
    183 H183        5.3994  -11.5621  -40.7782 H         1 UNK         0.0600 
    184 H184        4.4476  -12.7635  -43.7642 H         1 UNK         0.3000 
    185 H185        6.0911  -10.6950  -46.0001 H         1 UNK         0.0600 
    186 H186        8.0907  -10.9105  -44.5206 H         1 UNK         0.0600 
    187 H187        7.6978  -12.5971  -44.2106 H         1 UNK         0.0600 
    188 H188        8.1494  -12.0738  -45.8340 H         1 UNK         0.0600 
    189 H189        6.0700  -13.5465  -45.7869 H         1 UNK         0.3000 
    190 H190       -2.4865  -21.2497  -45.6413 H         1 UNK         0.3000 
    191 H191       -4.4102  -23.2574  -46.1752 H         1 UNK         0.0600 
    192 H192       -2.3368  -23.0781  -43.9329 H         1 UNK         0.0600 
    193 H193       -3.7471  -24.1296  -43.9413 H         1 UNK         0.0600 
    194 H194       -3.9561  -22.3850  -43.9113 H         1 UNK         0.0600 
    195 H195       -0.8330  -23.4172  -46.1328 H         1 UNK         0.3000 
    196 H196       -0.6878  -26.2442  -46.5947 H         1 UNK         0.0600 
    197 H197        1.7531  -25.7645  -46.8785 H         1 UNK         0.0600 
    198 H198        1.0966  -25.0294  -45.4238 H         1 UNK         0.0600 
    199 H199        1.4190  -24.0364  -46.8411 H         1 UNK         0.0600 
    200 H200        0.1024  -23.4553  -48.7838 H         1 UNK         0.3000 
    201 H201        0.6679  -25.3430  -50.9501 H         1 UNK         0.0600 
    202 H202        2.2133  -23.4691  -50.4126 H         1 UNK         0.0600 
    203 H203        0.9519  -22.2989  -50.7917 H         1 UNK         0.0600 
    204 H204        1.6001  -23.3363  -52.0539 H         1 UNK         0.0600 
    205 H205       -1.8955  -23.0178  -50.1566 H         1 UNK         0.3000 
    206 H206       -3.0800  -23.3262  -52.8920 H         1 UNK         0.0600 
    207 H207       -2.5503  -21.0175  -52.3463 H         1 UNK         0.0600 
    208 H208       -4.2829  -21.2074  -52.3005 H         1 UNK         0.0600 
    209 H209       -3.3871  -21.1173  -50.8019 H         1 UNK         0.0600 
    210 H210       -3.3690  -24.7440  -49.9422 H         1 UNK         0.3000 
    211 H211       -4.9164  -25.8755  -48.8107 H         1 UNK         0.0600 
    212 H212       -6.4177  -25.9746  -51.4807 H         1 UNK         0.0600 
    213 H213       -6.7093  -27.0236  -50.0993 H         1 UNK         0.0600 
    214 H214       -5.1746  -27.0991  -50.9473 H         1 UNK         0.0600 
    215 H215       -4.9843  -23.1444  -48.4741 H         1 UNK         0.3000 
    216 H216       -6.0604  -21.4818  -47.5068 H         1 UNK         0.0600 
    217 H217       -8.1323  -21.8130  -46.2330 H         1 UNK         0.0600 
    218 H218       -7.0578  -23.1754  -45.9618 H         1 UNK         0.0600 
    219 H219       -8.4466  -23.3434  -47.0351 H         1 UNK         0.0600 
    220 H220       -5.8877  -21.4656  -50.1161 H         1 UNK         0.3000 
    221 H221       -6.4020  -20.3253  -51.9124 H         1 UNK         0.0600 
    222 H222       -8.7719  -19.0726  -50.4486 H         1 UNK         0.0600 
    223 H223       -7.1093  -18.4921  -50.3601 H         1 UNK         0.0600 
    224 H224       -7.9721  -18.4603  -51.8868 H         1 UNK         0.0600 
    225 H225       -7.8765  -22.9779  -51.1943 H         1 UNK         0.3000 
    226 H226      -10.1645  -22.9805  -53.0032 H         1 UNK         0.0600 
    227 H227      -10.0774  -24.4864  -51.0253 H         1 UNK         0.0600 
    228 H228      -10.2013  -25.4079  -52.5172 H         1 UNK         0.0600 
    229 H229       -8.6584  -25.2958  -51.6823 H         1 UNK         0.0600 
    230 H230       -6.7344  -23.9870  -53.1260 H         1 UNK         0.3000 
    231 H231       -6.9401  -24.7228  -56.0067 H         1 UNK         0.0600 
    232 H232       -5.7272  -26.2767  -54.4705 H         1 UNK         0.0600 
    233 H233       -4.6134  -24.9869  -54.0277 H         1 UNK         0.0600 
    234 H234       -4.6522  -25.5891  -55.6777 H         1 UNK         0.0600 
    235 H235       -5.9199  -22.1966  -53.8669 H         1 UNK         0.3000 
    236 H236       -5.2098  -20.1092  -54.0971 H         1 UNK         0.0600 
    237 H237       -6.0053  -20.3252  -57.0375 H         1 UNK         0.0600 
    238 H238       -7.1128  -19.9973  -55.7045 H         1 UNK         0.0600 
    239 H239       -5.8440  -18.8505  -56.0955 H         1 UNK         0.0600 
    240 H240       -3.3066  -22.4072  -54.9433 H         1 UNK         0.3000 
    241 H241       -1.2811  -22.8000  -55.5984 H         1 UNK         0.0600 
    242 H242       -1.5600  -21.1461  -58.9578 H         1 UNK         0.3800 
    243 H243       -2.8091  -21.6328  -57.8398 H         1 UNK         0.3800 
    244 H244        0.5782  -21.4429  -54.7075 H         1 UNK         0.0800 
    245 H245       -0.6586  -21.8280  -53.5661 H         1 UNK         0.0800 
    246 H246        1.1129  -19.5831  -52.2734 H         1 UNK         0.0800 
    247 H247       -0.3335  -20.4168  -51.7689 H         1 UNK         0.0800 
@<TRIPOS>BOND
     1    1    2 1    
     2    1  127 1    
     3    1  128 1    
     4    1  129 1    
     5    2    3 2    
     6    2    4 am   BACKBONE|DICT|INTERRES
     7    4    5 1    
     8    4  130 1    
     9    5    6 1    
    10    5   65 1    
    11    5  131 1    
    12    6    7 1    
    13    6  132 1    
    14    6  133 1    
    15    7    8 1    
    16    8    9 1    
    17    8  134 1    
    18    8  135 1    
    19    9   10 ar   
    20    9   14 ar   
    21   10   11 ar   
    22   10  136 1    
    23   11   12 ar   
    24   11  126 1    
    25   12   13 ar   
    26   12  137 1    
    27   13   14 ar   
    28   13   15 1    
    29   14  138 1    
    30   15   16 1    
    31   15  139 1    
    32   15  140 1    
    33   16   17 1    
    34   17   18 1    
    35   17  141 1    
    36   17  142 1    
    37   18   19 1    
    38   18   67 1    
    39   18  143 1    
    40   19   20 am   BACKBONE|DICT|INTERRES
    41   19  144 1    
    42   20   21 2    
    43   20   22 1    
    44   22   23 1    
    45   22   24 1    
    46   22  145 1    
    47   23  146 1    
    48   23  147 1    
    49   23  148 1    
    50   24   25 am   BACKBONE|DICT|INTERRES
    51   24  149 1    
    52   25   26 2    
    53   25   27 1    
    54   27   28 1    
    55   27   29 1    
    56   27  150 1    
    57   28  151 1    
    58   28  152 1    
    59   28  153 1    
    60   29   30 am   BACKBONE|DICT|INTERRES
    61   29  154 1    
    62   30   31 2    
    63   30   32 1    
    64   32   33 1    
    65   32   34 1    
    66   32  155 1    
    67   33  156 1    
    68   33  157 1    
    69   33  158 1    
    70   34   35 am   BACKBONE|DICT|INTERRES
    71   34  159 1    
    72   35   36 2    
    73   35   37 1    
    74   37   38 1    
    75   37   39 1    
    76   37  160 1    
    77   38  161 1    
    78   38  162 1    
    79   38  163 1    
    80   39   40 am   BACKBONE|DICT|INTERRES
    81   39  164 1    
    82   40   41 2    
    83   40   42 1    
    84   42   43 1    
    85   42   44 1    
    86   42  165 1    
    87   43  166 1    
    88   43  167 1    
    89   43  168 1    
    90   44   45 am   BACKBONE|DICT|INTERRES
    91   44  169 1    
    92   45   46 2    
    93   45   47 1    
    94   47   48 1    
    95   47   49 1    
    96   47  170 1    
    97   48  171 1    
    98   48  172 1    
    99   48  173 1    
   100   49   50 am   BACKBONE|DICT|INTERRES
   101   49  174 1    
   102   50   51 2    
   103   50   52 1    
   104   52   53 1    
   105   52   54 1    
   106   52  175 1    
   107   53  176 1    
   108   53  177 1    
   109   53  178 1    
   110   54   55 am   BACKBONE|DICT|INTERRES
   111   54  179 1    
   112   55   56 2    
   113   55   57 1    
   114   57   58 1    
   115   57   59 1    
   116   57  180 1    
   117   58  181 1    
   118   58  182 1    
   119   58  183 1    
   120   59   60 am   BACKBONE|DICT|INTERRES
   121   59  184 1    
   122   60   61 2    
   123   60   62 1    
   124   62   63 1    
   125   62   64 1    
   126   62  185 1    
   127   63  186 1    
   128   63  187 1    
   129   63  188 1    
   130   64   65 am   BACKBONE|DICT|INTERRES
   131   64  189 1    
   132   65   66 2    
   133   67   68 2    
   134   67   69 am   BACKBONE|DICT|INTERRES
   135   69   70 1    
   136   69  190 1    
   137   70   71 1    
   138   70   72 1    
   139   70  191 1    
   140   71  192 1    
   141   71  193 1    
   142   71  194 1    
   143   72   73 2    
   144   72   74 am   BACKBONE|DICT|INTERRES
   145   74   75 1    
   146   74  195 1    
   147   75   76 1    
   148   75   77 1    
   149   75  196 1    
   150   76  197 1    
   151   76  198 1    
   152   76  199 1    
   153   77   78 2    
   154   77   79 am   BACKBONE|DICT|INTERRES
   155   79   80 1    
   156   79  200 1    
   157   80   81 1    
   158   80   82 1    
   159   80  201 1    
   160   81  202 1    
   161   81  203 1    
   162   81  204 1    
   163   82   83 2    
   164   82   84 am   BACKBONE|DICT|INTERRES
   165   84   85 1    
   166   84  205 1    
   167   85   86 1    
   168   85   87 1    
   169   85  206 1    
   170   86  207 1    
   171   86  208 1    
   172   86  209 1    
   173   87   88 2    
   174   87   89 am   BACKBONE|DICT|INTERRES
   175   89   90 1    
   176   89  210 1    
   177   90   91 1    
   178   90   92 1    
   179   90  211 1    
   180   91  212 1    
   181   91  213 1    
   182   91  214 1    
   183   92   93 2    
   184   92   94 am   BACKBONE|DICT|INTERRES
   185   94   95 1    
   186   94  215 1    
   187   95   96 1    
   188   95   97 1    
   189   95  216 1    
   190   96  217 1    
   191   96  218 1    
   192   96  219 1    
   193   97   98 2    
   194   97   99 am   BACKBONE|DICT|INTERRES
   195   99  100 1    
   196   99  220 1    
   197  100  101 1    
   198  100  102 1    
   199  100  221 1    
   200  101  222 1    
   201  101  223 1    
   202  101  224 1    
   203  102  103 2    
   204  102  104 am   BACKBONE|DICT|INTERRES
   205  104  105 1    
   206  104  225 1    
   207  105  106 1    
   208  105  107 1    
   209  105  226 1    
   210  106  227 1    
   211  106  228 1    
   212  106  229 1    
   213  107  108 2    
   214  107  109 am   BACKBONE|DICT|INTERRES
   215  109  110 1    
   216  109  230 1    
   217  110  111 1    
   218  110  112 1    
   219  110  231 1    
   220  111  232 1    
   221  111  233 1    
   222  111  234 1    
   223  112  113 2    
   224  112  114 am   BACKBONE|DICT|INTERRES
   225  114  115 1    
   226  114  235 1    
   227  115  116 1    
   228  115  117 1    
   229  115  236 1    
   230  116  237 1    
   231  116  238 1    
   232  116  239 1    
   233  117  118 2    
   234  117  119 am   BACKBONE|DICT|INTERRES
   235  119  120 1    
   236  119  240 1    
   237  120  121 1    
   238  120  124 1    
   239  120  241 1    
   240  121  122 am   BACKBONE|DICT|INTERRES
   241  121  123 2    
   242  122  242 1    
   243  122  243 1    
   244  124  125 1    
   245  124  244 1    
   246  124  245 1    
   247  125  126 1    
   248  126  246 1    
   249  126  247 1    
@<TRIPOS>SUBSTRUCTURE
     1 UNK         1 GROUP             0       ****    0 ROOT    
