@<TRIPOS>MOLECULE
3R540
247   249    1
SMALL
USER_CHARGES


@<TRIPOS>ATOM
      1 CA         -2.8720  -15.4451  -44.3030 C.3       0 UNK        -0.1800 
      2 C          -3.2852  -14.7545  -45.5938 C.2       0 UNK         0.5000 
      3 O          -4.4432  -14.3609  -45.7330 O.2       0 UNK        -0.5000 
      4 N          -2.3414  -14.5933  -46.5297 N.am      1 UNK        -0.5000 
      5 CA         -2.5278  -13.8363  -47.7759 C.3       1 UNK         0.1400 
      6 C6         -1.4515  -14.1700  -48.8372 C.3       23 UNK        -0.0398 
      7 S7         -1.4394  -15.9289  -49.3144 S.3       23 UNK        -0.2404 
      8 C8          0.3361  -16.3231  -49.1971 C.3       23 UNK        -0.0205 
      9 C9          0.6272  -17.7071  -49.7586 C.ar      23 UNK        -0.0193 
     10 C10         0.4539  -17.9510  -51.1243 C.ar      23 UNK        -0.1150 
     11 C11         0.6419  -19.2336  -51.6427 C.ar      23 UNK        -0.0193 
     12 C12         1.0719  -20.2620  -50.7999 C.ar      23 UNK        -0.1150 
     13 C13         1.2496  -20.0344  -49.4333 C.ar      23 UNK        -0.0193 
     14 C14         1.0290  -18.7522  -48.9192 C.ar      23 UNK        -0.1150 
     15 C15         1.6513  -21.1885  -48.5250 C.3       23 UNK        -0.0205 
     16 S16         0.2113  -22.2058  -48.0532 S.3       23 UNK        -0.2404 
     17 C17         1.0283  -23.7208  -47.4429 C.3       23 UNK        -0.0398 
     18 CA          0.4665  -24.3235  -46.1274 C.3       11 UNK         0.1400 
     19 N           0.7277  -23.4872  -44.9483 N.am      11 UNK        -0.5000 
     20 C           0.9876  -23.9636  -43.7205 C.2       10 UNK         0.5000 
     21 O           1.0537  -25.1643  -43.4571 O.2       10 UNK        -0.5000 
     22 CA          1.1351  -22.9363  -42.5872 C.3       10 UNK         0.1400 
     23 CB          2.5313  -22.2932  -42.5966 C.3       10 UNK        -0.1800 
     24 N           0.1050  -21.9020  -42.6793 N.am      10 UNK        -0.5000 
     25 C          -1.1391  -22.0263  -42.1948 C.2       9 UNK         0.5000 
     26 O          -1.5302  -23.0191  -41.5817 O.2       9 UNK        -0.5000 
     27 CA         -2.1164  -20.8570  -42.4289 C.3       9 UNK         0.1400 
     28 CB         -2.1819  -19.9565  -41.1863 C.3       9 UNK        -0.1800 
     29 N          -1.7542  -20.0408  -43.5860 N.am      9 UNK        -0.5000 
     30 C          -1.9764  -20.3900  -44.8624 C.2       8 UNK         0.5000 
     31 O          -2.5919  -21.4012  -45.1994 O.2       8 UNK        -0.5000 
     32 CA         -1.3785  -19.4677  -45.9445 C.3       8 UNK         0.1400 
     33 CB         -2.4244  -18.4457  -46.4054 C.3       8 UNK        -0.1800 
     34 N          -0.1605  -18.7724  -45.5093 N.am      8 UNK        -0.5000 
     35 C           0.9620  -19.3915  -45.1132 C.2       7 UNK         0.5000 
     36 O           1.0971  -20.6137  -45.1349 O.2       7 UNK        -0.5000 
     37 CA          2.1140  -18.5353  -44.5535 C.3       7 UNK         0.1400 
     38 CB          3.2379  -18.4079  -45.5928 C.3       7 UNK        -0.1800 
     39 N           1.7475  -17.1949  -44.0916 N.am      7 UNK        -0.5000 
     40 C           0.8152  -16.8698  -43.1843 C.2       6 UNK         0.5000 
     41 O           0.0708  -17.6928  -42.6493 O.2       6 UNK        -0.5000 
     42 CA          0.6851  -15.3742  -42.8177 C.3       6 UNK         0.1400 
     43 CB          1.0846  -15.1430  -41.3524 C.3       6 UNK        -0.1800 
     44 N           1.4697  -14.4666  -43.6625 N.am      6 UNK        -0.5000 
     45 C           1.2548  -14.2142  -44.9606 C.2       5 UNK         0.5000 
     46 O           0.3603  -14.7446  -45.6234 O.2       5 UNK        -0.5000 
     47 CA          2.2083  -13.1934  -45.6001 C.3       5 UNK         0.1400 
     48 CB          1.8533  -12.8577  -47.0591 C.3       5 UNK        -0.1800 
     49 N           2.2190  -11.9668  -44.8042 N.am      5 UNK        -0.5000 
     50 C           3.3121  -11.2587  -44.4879 C.2       4 UNK         0.5000 
     51 O           4.4527  -11.6106  -44.7923 O.2       4 UNK        -0.5000 
     52 CA          3.1205   -9.9283  -43.7265 C.3       4 UNK         0.1400 
     53 CB          3.7548   -8.7620  -44.5036 C.3       4 UNK        -0.1800 
     54 N           1.7129   -9.6051  -43.4901 N.am      4 UNK        -0.5000 
     55 C           1.0246   -9.8878  -42.3765 C.2       3 UNK         0.5000 
     56 O           1.5152  -10.4245  -41.3831 O.2       3 UNK        -0.5000 
     57 CA         -0.4795   -9.5369  -42.3933 C.3       3 UNK         0.1400 
     58 CB         -0.7129   -8.1431  -41.7907 C.3       3 UNK        -0.1800 
     59 N          -1.0838   -9.5904  -43.7320 N.am      3 UNK        -0.5000 
     60 C          -1.1491  -10.6972  -44.4823 C.2       2 UNK         0.5000 
     61 O          -0.7115  -11.7901  -44.1103 O.2       2 UNK        -0.5000 
     62 CA         -1.7395  -10.5580  -45.8939 C.3       2 UNK         0.1400 
     63 CB         -0.8303   -9.6965  -46.7923 C.3       2 UNK        -0.1800 
     64 N          -1.8554  -11.9049  -46.4344 N.am      2 UNK        -0.5000 
     65 C          -2.5457  -12.3153  -47.5026 C.2       1 UNK         0.5000 
     66 O          -3.1796  -11.5632  -48.2435 O.2       1 UNK        -0.5000 
     67 C          -1.0065  -24.7918  -46.2257 C.2       11 UNK         0.5000 
     68 O          -1.4102  -25.3126  -47.2686 O.2       11 UNK        -0.5000 
     69 N          -1.7802  -24.6479  -45.1385 N.am      12 UNK        -0.5000 
     70 CA         -3.1743  -25.0804  -44.9933 C.3       12 UNK         0.1400 
     71 CB         -3.6905  -24.6734  -43.6066 C.3       12 UNK        -0.1800 
     72 C          -3.3950  -26.5842  -45.2327 C.2       12 UNK         0.5000 
     73 O          -4.4221  -26.9663  -45.7930 O.2       12 UNK        -0.5000 
     74 N          -2.4152  -27.4031  -44.8302 N.am      13 UNK        -0.5000 
     75 CA         -2.4105  -28.8500  -45.0461 C.3       13 UNK         0.1400 
     76 CB         -1.4426  -29.4935  -44.0409 C.3       13 UNK        -0.1800 
     77 C          -2.0277  -29.2461  -46.4863 C.2       13 UNK         0.5000 
     78 O          -2.3479  -30.3587  -46.9065 O.2       13 UNK        -0.5000 
     79 N          -1.3331  -28.3525  -47.2037 N.am      14 UNK        -0.5000 
     80 CA         -0.8223  -28.5898  -48.5511 C.3       14 UNK         0.1400 
     81 CB          0.5380  -27.8910  -48.7116 C.3       14 UNK        -0.1800 
     82 C          -1.8107  -28.1167  -49.6275 C.2       14 UNK         0.5000 
     83 O          -2.1184  -28.8855  -50.5397 O.2       14 UNK        -0.5000 
     84 N          -2.2775  -26.8654  -49.5166 N.am      15 UNK        -0.5000 
     85 CA         -3.1161  -26.2191  -50.5312 C.3       15 UNK         0.1400 
     86 CB         -2.2304  -25.7232  -51.6921 C.3       15 UNK        -0.1800 
     87 C          -3.9743  -25.0594  -49.9989 C.2       15 UNK         0.5000 
     88 O          -4.8803  -24.6288  -50.7145 O.2       15 UNK        -0.5000 
     89 N          -3.6646  -24.5301  -48.8028 N.am      16 UNK        -0.5000 
     90 CA         -4.2740  -23.3312  -48.2033 C.3       16 UNK         0.1400 
     91 CB         -5.7286  -23.6078  -47.7707 C.3       16 UNK        -0.1800 
     92 C          -4.1293  -22.0919  -49.1063 C.2       16 UNK         0.5000 
     93 O          -5.0765  -21.3254  -49.2890 O.2       16 UNK        -0.5000 
     94 N          -2.9332  -21.9719  -49.6971 N.am      17 UNK        -0.5000 
     95 CA         -2.4772  -20.9463  -50.6343 C.3       17 UNK         0.1400 
     96 CB         -2.5408  -19.5529  -49.9818 C.3       17 UNK        -0.1800 
     97 C          -3.1530  -20.9643  -52.0203 C.2       17 UNK         0.5000 
     98 O          -2.7876  -20.1453  -52.8641 O.2       17 UNK        -0.5000 
     99 N          -4.1153  -21.8711  -52.2528 N.am      18 UNK        -0.5000 
    100 CA        -4.9161  -21.9968  -53.4773 C.3       18 UNK         0.1400 
    101 CB        -4.0568  -22.5815  -54.6176 C.3       18 UNK        -0.1800 
    102 C         -5.6003  -20.6647  -53.8596 C.2       18 UNK         0.5000 
    103 O         -5.4537  -20.1902  -54.9866 O.2       18 UNK        -0.5000 
    104 N         -6.2652  -20.0467  -52.8702 N.am      19 UNK        -0.5000 
    105 CA        -6.8879  -18.7154  -52.9235 C.3       19 UNK         0.1400 
    106 CB        -8.0743  -18.7010  -53.9108 C.3       19 UNK        -0.1800 
    107 C         -5.8731  -17.5766  -53.1826 C.2       19 UNK         0.5000 
    108 O         -6.2118  -16.5795  -53.8212 O.2       19 UNK        -0.5000 
    109 N         -4.6419  -17.7642  -52.6834 N.am      20 UNK        -0.5000 
    110 CA        -3.4608  -16.9003  -52.8088 C.3       20 UNK         0.1400 
    111 CB        -3.7211  -15.4971  -52.2221 C.3       20 UNK        -0.1800 
    112 C         -2.8562  -16.8498  -54.2278 C.2       20 UNK         0.5000 
    113 O         -1.9699  -16.0297  -54.4721 O.2       20 UNK        -0.5000 
    114 N         -3.3150  -17.7224  -55.1357 N.am      21 UNK        -0.5000 
    115 CA        -2.8485  -17.7824  -56.5205 C.3       21 UNK         0.1400 
    116 CB        -4.0081  -18.2434  -57.4171 C.3       21 UNK        -0.1800 
    117 C         -1.6317  -18.7066  -56.7064 C.2       21 UNK         0.5000 
    118 O         -0.9120  -18.5443  -57.6925 O.2       21 UNK        -0.5000 
    119 N         -1.4383  -19.6698  -55.7917 N.am      22 UNK        -0.5000 
    120 CA        -0.4216  -20.7402  -55.8691 C.3       22 UNK         0.1400 
    121 C         -0.6316  -21.7371  -57.0555 C.2       22 UNK         0.5000 
    122 N         -1.8180  -21.8255  -57.6456 N.am      22 UNK        -0.7600 
    123 O          0.2792  -22.4713  -57.4293 O.2       22 UNK        -0.5000 
    124 C124        1.0518  -20.2184  -55.7806 C.3       23 UNK        -0.0398 
    125 S125        1.6107  -19.3517  -54.2577 S.3       23 UNK        -0.2404 
    126 C126        0.2491  -19.5451  -53.0749 C.3       23 UNK        -0.0205 
    127 H127       -1.9357  -15.9882  -44.4255 H         1 UNK         0.0600 
    128 H128       -3.6368  -16.1553  -43.9889 H         1 UNK         0.0600 
    129 H129       -2.7439  -14.7078  -43.5106 H         1 UNK         0.0600 
    130 H130       -1.3884  -14.8902  -46.3343 H         1 UNK         0.3000 
    131 H131       -3.5016  -14.1012  -48.1937 H         1 UNK         0.0600 
    132 H132       -0.4631  -13.8887  -48.4750 H         1 UNK         0.0800 
    133 H133       -1.6196  -13.5888  -49.7457 H         1 UNK         0.0800 
    134 H134        0.6521  -16.2497  -48.1550 H         1 UNK         0.0800 
    135 H135        0.9129  -15.5842  -49.7551 H         1 UNK         0.0800 
    136 H136        0.1077  -17.1561  -51.7702 H         1 UNK         0.1150 
    137 H137        1.2097  -21.2583  -51.1962 H         1 UNK         0.1150 
    138 H138        1.1523  -18.5710  -47.8642 H         1 UNK         0.1150 
    139 H139        2.3826  -21.8108  -49.0430 H         1 UNK         0.0800 
    140 H140        2.1454  -20.8169  -47.6271 H         1 UNK         0.0800 
    141 H141        0.9809  -24.4607  -48.2429 H         1 UNK         0.0800 
    142 H142        2.0911  -23.5184  -47.3045 H         1 UNK         0.0800 
    143 H143        1.0256  -25.2516  -45.9906 H         1 UNK         0.0600 
    144 H144        0.7115  -22.4804  -45.0952 H         1 UNK         0.3000 
    145 H145        1.0235  -23.4640  -41.6374 H         1 UNK         0.0600 
    146 H146        2.6294  -21.5518  -41.8036 H         1 UNK         0.0600 
    147 H147        2.7546  -21.8029  -43.5437 H         1 UNK         0.0600 
    148 H148        3.3029  -23.0465  -42.4339 H         1 UNK         0.0600 
    149 H149        0.3311  -21.0932  -43.2426 H         1 UNK         0.3000 
    150 H150       -3.1094  -21.2799  -42.5948 H         1 UNK         0.0600 
    151 H151       -2.4948  -20.5237  -40.3088 H         1 UNK         0.0600 
    152 H152       -2.8990  -19.1468  -41.3229 H         1 UNK         0.0600 
    153 H153       -1.2123  -19.5108  -40.9607 H         1 UNK         0.0600 
    154 H154       -1.2277  -19.1952  -43.3930 H         1 UNK         0.3000 
    155 H155       -1.1152  -20.0840  -46.8025 H         1 UNK         0.0600 
    156 H156       -3.2588  -18.9444  -46.9003 H         1 UNK         0.0600 
    157 H157       -2.0029  -17.7359  -47.1150 H         1 UNK         0.0600 
    158 H158       -2.8355  -17.8879  -45.5668 H         1 UNK         0.0600 
    159 H159       -0.1990  -17.7655  -45.4532 H         1 UNK         0.3000 
    160 H160        2.5098  -19.0733  -43.6899 H         1 UNK         0.0600 
    161 H161        2.9292  -17.8081  -46.4495 H         1 UNK         0.0600 
    162 H162        3.5419  -19.3865  -45.9674 H         1 UNK         0.0600 
    163 H163        4.1230  -17.9414  -45.1600 H         1 UNK         0.0600 
    164 H164        2.2905  -16.4359  -44.4738 H         1 UNK         0.3000 
    165 H165       -0.3649  -15.1015  -42.9232 H         1 UNK         0.0600 
    166 H166        0.9241  -14.1050  -41.0593 H         1 UNK         0.0600 
    167 H167        0.4899  -15.7632  -40.6803 H         1 UNK         0.0600 
    168 H168        2.1342  -15.3836  -41.1791 H         1 UNK         0.0600 
    169 H169        2.2192  -13.9703  -43.2023 H         1 UNK         0.3000 
    170 H170        3.1963  -13.6580  -45.5930 H         1 UNK         0.0600 
    171 H171        0.8652  -12.4064  -47.1367 H         1 UNK         0.0600 
    172 H172        2.5727  -12.1602  -47.4880 H         1 UNK         0.0600 
    173 H173        1.8622  -13.7540  -47.6801 H         1 UNK         0.0600 
    174 H174        1.3144  -11.6680  -44.4557 H         1 UNK         0.3000 
    175 H175        3.6442  -10.0236  -42.7731 H         1 UNK         0.0600 
    176 H176        3.2963   -8.6359  -45.4853 H         1 UNK         0.0600 
    177 H177        3.6485   -7.8229  -43.9603 H         1 UNK         0.0600 
    178 H178        4.8223   -8.9246  -44.6579 H         1 UNK         0.0600 
    179 H179        1.2220   -9.1610  -44.2521 H         1 UNK         0.3000 
    180 H180       -0.9919  -10.2702  -41.7668 H         1 UNK         0.0600 
    181 H181       -0.2452   -7.3616  -42.3908 H         1 UNK         0.0600 
    182 H182       -0.2968   -8.0778  -40.7845 H         1 UNK         0.0600 
    183 H183       -1.7770   -7.9186  -41.7155 H         1 UNK         0.0600 
    184 H184       -1.4564   -8.7242  -44.0944 H         1 UNK         0.3000 
    185 H185       -2.7332  -10.1124  -45.8200 H         1 UNK         0.0600 
    186 H186        0.1826  -10.0971  -46.8445 H         1 UNK         0.0600 
    187 H187       -1.2164   -9.6351  -47.8096 H         1 UNK         0.0600 
    188 H188       -0.7596   -8.6750  -46.4176 H         1 UNK         0.0600 
    189 H189       -1.4071  -12.6015  -45.8492 H         1 UNK         0.3000 
    190 H190       -1.3693  -24.2009  -44.3326 H         1 UNK         0.3000 
    191 H191       -3.7721  -24.5523  -45.7299 H         1 UNK         0.0600 
    192 H192       -3.6658  -23.5909  -43.4831 H         1 UNK         0.0600 
    193 H193       -3.0955  -25.1178  -42.8078 H         1 UNK         0.0600 
    194 H194       -4.7244  -24.9901  -43.4634 H         1 UNK         0.0600 
    195 H195       -1.6102  -27.0061  -44.3672 H         1 UNK         0.3000 
    196 H196       -3.4121  -29.2396  -44.8511 H         1 UNK         0.0600 
    197 H197       -1.7372  -29.2749  -43.0142 H         1 UNK         0.0600 
    198 H198       -0.4210  -29.1376  -44.1807 H         1 UNK         0.0600 
    199 H199       -1.4300  -30.5788  -44.1495 H         1 UNK         0.0600 
    200 H200       -1.1762  -27.4338  -46.8145 H         1 UNK         0.3000 
    201 H201       -0.6573  -29.6597  -48.6967 H         1 UNK         0.0600 
    202 H202        1.2602  -28.2657  -47.9861 H         1 UNK         0.0600 
    203 H203        0.4617  -26.8122  -48.5802 H         1 UNK         0.0600 
    204 H204        0.9524  -28.0704  -49.7045 H         1 UNK         0.0600 
    205 H205       -1.9731  -26.3019  -48.7288 H         1 UNK         0.3000 
    206 H206       -3.8216  -26.9551  -50.9227 H         1 UNK         0.0600 
    207 H207       -1.7104  -26.5486  -52.1782 H         1 UNK         0.0600 
    208 H208       -1.4795  -25.0125  -51.3450 H         1 UNK         0.0600 
    209 H209       -2.8247  -25.2246  -52.4590 H         1 UNK         0.0600 
    210 H210       -2.8825  -24.9146  -48.2819 H         1 UNK         0.3000 
    211 H211       -3.6930  -23.0889  -47.3143 H         1 UNK         0.0600 
    212 H212       -6.3825  -23.7713  -48.6277 H         1 UNK         0.0600 
    213 H213       -6.1332  -22.7669  -47.2065 H         1 UNK         0.0600 
    214 H214       -5.7910  -24.4885  -47.1316 H         1 UNK         0.0600 
    215 H215       -2.2416  -22.6742  -49.4744 H         1 UNK         0.3000 
    216 H216       -1.4319  -21.1810  -50.8222 H         1 UNK         0.0600 
    217 H217       -2.0931  -18.8004  -50.6245 H         1 UNK         0.0600 
    218 H218       -1.9819  -19.5368  -49.0477 H         1 UNK         0.0600 
    219 H219       -3.5617  -19.2336  -49.7742 H         1 UNK         0.0600 
    220 H220       -4.3604  -22.5075  -51.5045 H         1 UNK         0.3000 
    221 H221       -5.7140  -22.7085  -53.2610 H         1 UNK         0.0600 
    222 H222       -3.2437  -21.9122  -54.8974 H         1 UNK         0.0600 
    223 H223       -3.6181  -23.5366  -54.3293 H         1 UNK         0.0600 
    224 H224       -4.6581  -22.7569  -55.5103 H         1 UNK         0.0600 
    225 H225       -6.2961  -20.5052  -51.9691 H         1 UNK         0.3000 
    226 H226       -7.2920  -18.5318  -51.9270 H         1 UNK         0.0600 
    227 H227       -8.7724  -19.5111  -53.7006 H         1 UNK         0.0600 
    228 H228       -8.6324  -17.7669  -53.8373 H         1 UNK         0.0600 
    229 H229       -7.7440  -18.8018  -54.9450 H         1 UNK         0.0600 
    230 H230       -4.4578  -18.6553  -52.2445 H         1 UNK         0.3000 
    231 H231       -2.6897  -17.3598  -52.1933 H         1 UNK         0.0600 
    232 H232       -2.7947  -14.9259  -52.1532 H         1 UNK         0.0600 
    233 H233       -4.1328  -15.5612  -51.2148 H         1 UNK         0.0600 
    234 H234       -4.4130  -14.9194  -52.8349 H         1 UNK         0.0600 
    235 H235       -4.0327  -18.3836  -54.8651 H         1 UNK         0.3000 
    236 H236       -2.5561  -16.7824  -56.8480 H         1 UNK         0.0600 
    237 H237       -4.3165  -19.2634  -57.1879 H         1 UNK         0.0600 
    238 H238       -4.8780  -17.5964  -57.3023 H         1 UNK         0.0600 
    239 H239       -3.7206  -18.2184  -58.4690 H         1 UNK         0.0600 
    240 H240       -2.0719  -19.7197  -55.0031 H         1 UNK         0.3000 
    241 H241       -0.6010  -21.3810  -55.0087 H         1 UNK         0.0600 
    242 H242       -1.9454  -22.4796  -58.4018 H         1 UNK         0.3800 
    243 H243       -2.5853  -21.2447  -57.3504 H         1 UNK         0.3800 
    244 H244        1.2666  -19.5670  -56.6280 H         1 UNK         0.0800 
    245 H245        1.7417  -21.0565  -55.8890 H         1 UNK         0.0800 
    246 H246       -0.1253  -20.5665  -53.0975 H         1 UNK         0.0800 
    247 H247       -0.5720  -18.8939  -53.3734 H         1 UNK         0.0800 
@<TRIPOS>BOND
     1    1    2 1    
     2    1  127 1    
     3    1  128 1    
     4    1  129 1    
     5    2    3 2    
     6    2    4 am   BACKBONE|DICT|INTERRES
     7    4    5 1    
     8    4  130 1    
     9    5    6 1    
    10    5   65 1    
    11    5  131 1    
    12    6    7 1    
    13    6  132 1    
    14    6  133 1    
    15    7    8 1    
    16    8    9 1    
    17    8  134 1    
    18    8  135 1    
    19    9   10 ar   
    20    9   14 ar   
    21   10   11 ar   
    22   10  136 1    
    23   11   12 ar   
    24   11  126 1    
    25   12   13 ar   
    26   12  137 1    
    27   13   14 ar   
    28   13   15 1    
    29   14  138 1    
    30   15   16 1    
    31   15  139 1    
    32   15  140 1    
    33   16   17 1    
    34   17   18 1    
    35   17  141 1    
    36   17  142 1    
    37   18   19 1    
    38   18   67 1    
    39   18  143 1    
    40   19   20 am   BACKBONE|DICT|INTERRES
    41   19  144 1    
    42   20   21 2    
    43   20   22 1    
    44   22   23 1    
    45   22   24 1    
    46   22  145 1    
    47   23  146 1    
    48   23  147 1    
    49   23  148 1    
    50   24   25 am   BACKBONE|DICT|INTERRES
    51   24  149 1    
    52   25   26 2    
    53   25   27 1    
    54   27   28 1    
    55   27   29 1    
    56   27  150 1    
    57   28  151 1    
    58   28  152 1    
    59   28  153 1    
    60   29   30 am   BACKBONE|DICT|INTERRES
    61   29  154 1    
    62   30   31 2    
    63   30   32 1    
    64   32   33 1    
    65   32   34 1    
    66   32  155 1    
    67   33  156 1    
    68   33  157 1    
    69   33  158 1    
    70   34   35 am   BACKBONE|DICT|INTERRES
    71   34  159 1    
    72   35   36 2    
    73   35   37 1    
    74   37   38 1    
    75   37   39 1    
    76   37  160 1    
    77   38  161 1    
    78   38  162 1    
    79   38  163 1    
    80   39   40 am   BACKBONE|DICT|INTERRES
    81   39  164 1    
    82   40   41 2    
    83   40   42 1    
    84   42   43 1    
    85   42   44 1    
    86   42  165 1    
    87   43  166 1    
    88   43  167 1    
    89   43  168 1    
    90   44   45 am   BACKBONE|DICT|INTERRES
    91   44  169 1    
    92   45   46 2    
    93   45   47 1    
    94   47   48 1    
    95   47   49 1    
    96   47  170 1    
    97   48  171 1    
    98   48  172 1    
    99   48  173 1    
   100   49   50 am   BACKBONE|DICT|INTERRES
   101   49  174 1    
   102   50   51 2    
   103   50   52 1    
   104   52   53 1    
   105   52   54 1    
   106   52  175 1    
   107   53  176 1    
   108   53  177 1    
   109   53  178 1    
   110   54   55 am   BACKBONE|DICT|INTERRES
   111   54  179 1    
   112   55   56 2    
   113   55   57 1    
   114   57   58 1    
   115   57   59 1    
   116   57  180 1    
   117   58  181 1    
   118   58  182 1    
   119   58  183 1    
   120   59   60 am   BACKBONE|DICT|INTERRES
   121   59  184 1    
   122   60   61 2    
   123   60   62 1    
   124   62   63 1    
   125   62   64 1    
   126   62  185 1    
   127   63  186 1    
   128   63  187 1    
   129   63  188 1    
   130   64   65 am   BACKBONE|DICT|INTERRES
   131   64  189 1    
   132   65   66 2    
   133   67   68 2    
   134   67   69 am   BACKBONE|DICT|INTERRES
   135   69   70 1    
   136   69  190 1    
   137   70   71 1    
   138   70   72 1    
   139   70  191 1    
   140   71  192 1    
   141   71  193 1    
   142   71  194 1    
   143   72   73 2    
   144   72   74 am   BACKBONE|DICT|INTERRES
   145   74   75 1    
   146   74  195 1    
   147   75   76 1    
   148   75   77 1    
   149   75  196 1    
   150   76  197 1    
   151   76  198 1    
   152   76  199 1    
   153   77   78 2    
   154   77   79 am   BACKBONE|DICT|INTERRES
   155   79   80 1    
   156   79  200 1    
   157   80   81 1    
   158   80   82 1    
   159   80  201 1    
   160   81  202 1    
   161   81  203 1    
   162   81  204 1    
   163   82   83 2    
   164   82   84 am   BACKBONE|DICT|INTERRES
   165   84   85 1    
   166   84  205 1    
   167   85   86 1    
   168   85   87 1    
   169   85  206 1    
   170   86  207 1    
   171   86  208 1    
   172   86  209 1    
   173   87   88 2    
   174   87   89 am   BACKBONE|DICT|INTERRES
   175   89   90 1    
   176   89  210 1    
   177   90   91 1    
   178   90   92 1    
   179   90  211 1    
   180   91  212 1    
   181   91  213 1    
   182   91  214 1    
   183   92   93 2    
   184   92   94 am   BACKBONE|DICT|INTERRES
   185   94   95 1    
   186   94  215 1    
   187   95   96 1    
   188   95   97 1    
   189   95  216 1    
   190   96  217 1    
   191   96  218 1    
   192   96  219 1    
   193   97   98 2    
   194   97   99 am   BACKBONE|DICT|INTERRES
   195   99  100 1    
   196   99  220 1    
   197  100  101 1    
   198  100  102 1    
   199  100  221 1    
   200  101  222 1    
   201  101  223 1    
   202  101  224 1    
   203  102  103 2    
   204  102  104 am   BACKBONE|DICT|INTERRES
   205  104  105 1    
   206  104  225 1    
   207  105  106 1    
   208  105  107 1    
   209  105  226 1    
   210  106  227 1    
   211  106  228 1    
   212  106  229 1    
   213  107  108 2    
   214  107  109 am   BACKBONE|DICT|INTERRES
   215  109  110 1    
   216  109  230 1    
   217  110  111 1    
   218  110  112 1    
   219  110  231 1    
   220  111  232 1    
   221  111  233 1    
   222  111  234 1    
   223  112  113 2    
   224  112  114 am   BACKBONE|DICT|INTERRES
   225  114  115 1    
   226  114  235 1    
   227  115  116 1    
   228  115  117 1    
   229  115  236 1    
   230  116  237 1    
   231  116  238 1    
   232  116  239 1    
   233  117  118 2    
   234  117  119 am   BACKBONE|DICT|INTERRES
   235  119  120 1    
   236  119  240 1    
   237  120  121 1    
   238  120  124 1    
   239  120  241 1    
   240  121  122 am   BACKBONE|DICT|INTERRES
   241  121  123 2    
   242  122  242 1    
   243  122  243 1    
   244  124  125 1    
   245  124  244 1    
   246  124  245 1    
   247  125  126 1    
   248  126  246 1    
   249  126  247 1    
@<TRIPOS>SUBSTRUCTURE
     1 UNK         1 GROUP             0       ****    0 ROOT    
