@<TRIPOS>MOLECULE
3R540
247   249    1
SMALL
USER_CHARGES


@<TRIPOS>ATOM
      1 CA          2.1915  -14.6394  -45.4231 C.3       0 UNK        -0.1800 
      2 C           0.9818  -14.9097  -46.3046 C.2       0 UNK         0.5000 
      3 O          -0.0740  -15.3104  -45.8087 O.2       0 UNK        -0.5000 
      4 N           1.1277  -14.6765  -47.6145 N.am      1 UNK        -0.5000 
      5 CA          0.1123  -14.8925  -48.6535 C.3       1 UNK         0.1400 
      6 C6          0.7440  -15.0512  -50.0621 C.3       23 UNK        -0.0398 
      7 S7          1.9777  -16.3897  -50.1600 S.3       23 UNK        -0.2404 
      8 C8          0.9031  -17.8449  -50.3875 C.3       23 UNK        -0.0205 
      9 C9          1.6964  -19.1329  -50.5751 C.ar      23 UNK        -0.0193 
     10 C10         1.3928  -19.9968  -51.6329 C.ar      23 UNK        -0.1150 
     11 C11         2.1208  -21.1762  -51.8193 C.ar      23 UNK        -0.0193 
     12 C12         3.1644  -21.4852  -50.9434 C.ar      23 UNK        -0.1150 
     13 C13         3.4724  -20.6373  -49.8764 C.ar      23 UNK        -0.0193 
     14 C14         2.7259  -19.4715  -49.6898 C.ar      23 UNK        -0.1150 
     15 C15         4.6356  -20.9589  -48.9496 C.3       23 UNK        -0.0205 
     16 S16         4.0932  -21.5676  -47.3234 S.3       23 UNK        -0.2404 
     17 C17         3.3261  -23.1683  -47.7480 C.3       23 UNK        -0.0398 
     18 CA          1.8963  -23.3705  -47.1926 C.3       11 UNK         0.1400 
     19 N           1.8213  -23.2067  -45.7392 N.am      11 UNK        -0.5000 
     20 C           1.0703  -23.9722  -44.9379 C.2       10 UNK         0.5000 
     21 O           0.3721  -24.9031  -45.3380 O.2       10 UNK        -0.5000 
     22 CA          1.0962  -23.6451  -43.4341 C.3       10 UNK         0.1400 
     23 CB          2.2949  -24.3241  -42.7553 C.3       10 UNK        -0.1800 
     24 N           1.1274  -22.2120  -43.1440 N.am      10 UNK        -0.5000 
     25 C           0.1400  -21.3558  -43.4367 C.2       9 UNK         0.5000 
     26 O          -0.8853  -21.6663  -44.0425 O.2       9 UNK        -0.5000 
     27 CA          0.3460  -19.8969  -42.9925 C.3       9 UNK         0.1400 
     28 CB         -0.0361  -19.7402  -41.5128 C.3       9 UNK        -0.1800 
     29 N           1.6942  -19.3609  -43.2114 N.am      9 UNK        -0.5000 
     30 C           2.3480  -19.3617  -44.3817 C.2       8 UNK         0.5000 
     31 O           1.9543  -19.9810  -45.3686 O.2       8 UNK        -0.5000 
     32 CA          3.6417  -18.5338  -44.4841 C.3       8 UNK         0.1400 
     33 CB          3.8022  -17.8996  -45.8809 C.3       8 UNK        -0.1800 
     34 N           3.7359  -17.4949  -43.4514 N.am      8 UNK        -0.5000 
     35 C           4.8991  -17.0308  -42.9681 C.2       7 UNK         0.5000 
     36 O           5.9979  -17.4733  -43.3069 O.2       7 UNK        -0.5000 
     37 CA          4.8562  -15.8747  -41.9457 C.3       7 UNK         0.1400 
     38 CB          5.0762  -14.5275  -42.6513 C.3       7 UNK        -0.1800 
     39 N           3.6194  -15.8028  -41.1702 N.am      7 UNK        -0.5000 
     40 C           3.2124  -16.7180  -40.2820 C.2       6 UNK         0.5000 
     41 O           3.8768  -17.7068  -39.9708 O.2       6 UNK        -0.5000 
     42 CA          1.8220  -16.5151  -39.6433 C.3       6 UNK         0.1400 
     43 CB          1.9704  -15.9515  -38.2215 C.3       6 UNK        -0.1800 
     44 N           0.8711  -15.6728  -40.3846 N.am      6 UNK        -0.5000 
     45 C           0.5036  -15.8156  -41.6651 C.2       5 UNK         0.5000 
     46 O           1.0712  -16.5655  -42.4628 O.2       5 UNK        -0.5000 
     47 CA         -0.6910  -14.9648  -42.1321 C.3       5 UNK         0.1400 
     48 CB         -0.2344  -13.5734  -42.5924 C.3       5 UNK        -0.1800 
     49 N          -1.3949  -15.6255  -43.2283 N.am      5 UNK        -0.5000 
     50 C          -2.1599  -16.7136  -43.0818 C.2       4 UNK         0.5000 
     51 O          -2.4524  -17.2031  -41.9887 O.2       4 UNK        -0.5000 
     52 CA         -2.6887  -17.3371  -44.3880 C.3       4 UNK         0.1400 
     53 CB         -3.3545  -18.7142  -44.1757 C.3       4 UNK        -0.1800 
     54 N          -3.5783  -16.4275  -45.1189 N.am      4 UNK        -0.5000 
     55 C          -4.7116  -15.8610  -44.6716 C.2       3 UNK         0.5000 
     56 O          -5.2081  -16.0871  -43.5672 O.2       3 UNK        -0.5000 
     57 CA         -5.4133  -14.8838  -45.6409 C.3       3 UNK         0.1400 
     58 CB         -6.3943  -13.9257  -44.9310 C.3       3 UNK        -0.1800 
     59 N          -4.4754  -14.1421  -46.4950 N.am      3 UNK        -0.5000 
     60 C          -3.5552  -13.2537  -46.0914 C.2       2 UNK         0.5000 
     61 O          -3.3512  -12.9530  -44.9147 O.2       2 UNK        -0.5000 
     62 CA         -2.6721  -12.6602  -47.1951 C.3       2 UNK         0.1400 
     63 CB         -2.0536  -11.3033  -46.8075 C.3       2 UNK        -0.1800 
     64 N          -1.6152  -13.6228  -47.4671 N.am      2 UNK        -0.5000 
     65 C          -0.9852  -13.8003  -48.6301 C.2       1 UNK         0.5000 
     66 O          -1.2341  -13.1416  -49.6411 O.2       1 UNK        -0.5000 
     67 C           0.8254  -22.5238  -47.9075 C.2       11 UNK         0.5000 
     68 O           0.2684  -22.9880  -48.9003 O.2       11 UNK        -0.5000 
     69 N           0.4797  -21.3478  -47.3598 N.am      12 UNK        -0.5000 
     70 CA         -0.6070  -20.4958  -47.8496 C.3       12 UNK         0.1400 
     71 CB         -0.6249  -19.1743  -47.0698 C.3       12 UNK        -0.1800 
     72 C          -1.9847  -21.1768  -47.7791 C.2       12 UNK         0.5000 
     73 O          -2.8179  -20.9467  -48.6557 O.2       12 UNK        -0.5000 
     74 N          -2.1900  -22.0404  -46.7744 N.am      13 UNK        -0.5000 
     75 CA         -3.3726  -22.8905  -46.6253 C.3       13 UNK         0.1400 
     76 CB         -3.2755  -23.6735  -45.3090 C.3       13 UNK        -0.1800 
     77 C          -3.5972  -23.8513  -47.8109 C.2       13 UNK         0.5000 
     78 O          -4.7480  -24.0930  -48.1754 O.2       13 UNK        -0.5000 
     79 N          -2.5095  -24.3353  -48.4309 N.am      14 UNK        -0.5000 
     80 CA         -2.5509  -25.1754  -49.6333 C.3       14 UNK         0.1400 
     81 CB         -1.1979  -25.8771  -49.8257 C.3       14 UNK        -0.1800 
     82 C          -2.9504  -24.3902  -50.8989 C.2       14 UNK         0.5000 
     83 O          -3.4395  -24.9935  -51.8529 O.2       14 UNK        -0.5000 
     84 N          -2.7888  -23.0612  -50.8629 N.am      15 UNK        -0.5000 
     85 CA         -3.2638  -22.1137  -51.8684 C.3       15 UNK         0.1400 
     86 CB         -2.2065  -21.0098  -52.0522 C.3       15 UNK        -0.1800 
     87 C          -4.6428  -21.5301  -51.4996 C.2       15 UNK         0.5000 
     88 O          -4.9831  -20.4466  -51.9741 O.2       15 UNK        -0.5000 
     89 N          -5.4063  -22.2290  -50.6447 N.am      16 UNK        -0.5000 
     90 CA         -6.7378  -21.8638  -50.1470 C.3       16 UNK         0.1400 
     91 CB         -7.7692  -21.8707  -51.2959 C.3       16 UNK        -0.1800 
     92 C          -6.7248  -20.5405  -49.3546 C.2       16 UNK         0.5000 
     93 O          -7.5789  -19.6807  -49.5664 O.2       16 UNK        -0.5000 
     94 N          -5.7140  -20.3887  -48.4875 N.am      17 UNK        -0.5000 
     95 CA         -5.3757  -19.1797  -47.7262 C.3       17 UNK         0.1400 
     96 CB         -6.4991  -18.7946  -46.7422 C.3       17 UNK        -0.1800 
     97 C          -4.9311  -18.0223  -48.6444 C.2       17 UNK         0.5000 
     98 O          -5.2280  -16.8584  -48.3747 O.2       17 UNK        -0.5000 
     99 N          -4.2231  -18.3880  -49.7218 N.am      18 UNK        -0.5000 
    100 CA        -3.7400  -17.5434  -50.8173 C.3       18 UNK         0.1400 
    101 CB        -2.7501  -16.4843  -50.2999 C.3       18 UNK        -0.1800 
    102 C         -4.8554  -16.9427  -51.7007 C.2       18 UNK         0.5000 
    103 O         -4.6021  -15.9758  -52.4212 O.2       18 UNK        -0.5000 
    104 N         -6.0591  -17.5323  -51.6656 N.am      19 UNK        -0.5000 
    105 CA        -7.1623  -17.1984  -52.5697 C.3       19 UNK         0.1400 
    106 CB        -8.4906  -17.6404  -51.9387 C.3       19 UNK        -0.1800 
    107 C         -6.9914  -17.8396  -53.9614 C.2       19 UNK         0.5000 
    108 O         -7.5461  -17.3266  -54.9344 O.2       19 UNK        -0.5000 
    109 N         -6.2358  -18.9413  -54.0284 N.am      20 UNK        -0.5000 
    110 CA        -5.8894  -19.6811  -55.2351 C.3       20 UNK         0.1400 
    111 CB        -6.6098  -21.0452  -55.1991 C.3       20 UNK        -0.1800 
    112 C         -4.3534  -19.7843  -55.3246 C.2       20 UNK         0.5000 
    113 O         -3.6588  -18.8093  -55.0282 O.2       20 UNK        -0.5000 
    114 N         -3.8435  -20.9499  -55.7325 N.am      21 UNK        -0.5000 
    115 CA        -2.4258  -21.2800  -55.8285 C.3       21 UNK         0.1400 
    116 CB        -1.9279  -20.9962  -57.2557 C.3       21 UNK        -0.1800 
    117 C         -2.2459  -22.7589  -55.4582 C.2       21 UNK         0.5000 
    118 O         -3.2178  -23.5187  -55.4913 O.2       21 UNK        -0.5000 
    119 N         -1.0110  -23.1371  -55.1111 N.am      22 UNK        -0.5000 
    120 CA        -0.6410  -24.5007  -54.6880 C.3       22 UNK         0.1400 
    121 C         -0.6590  -25.5700  -55.8224 C.2       22 UNK         0.5000 
    122 N         -0.7397  -25.1970  -57.0940 N.am      22 UNK        -0.7600 
    123 O         -0.6000  -26.7640  -55.5416 O.2       22 UNK        -0.5000 
    124 C124        0.7241  -24.5257  -53.9522 C.3       23 UNK        -0.0398 
    125 S125        0.7558  -23.4971  -52.4455 S.3       23 UNK        -0.2404 
    126 C126        1.8049  -22.1093  -52.9780 C.3       23 UNK        -0.0205 
    127 H127        3.1231  -14.7898  -45.9688 H         1 UNK         0.0600 
    128 H128        2.1913  -15.3105  -44.5656 H         1 UNK         0.0600 
    129 H129        2.1717  -13.6131  -45.0582 H         1 UNK         0.0600 
    130 H130        2.0155  -14.3335  -47.9522 H         1 UNK         0.3000 
    131 H131       -0.3915  -15.8309  -48.4170 H         1 UNK         0.0600 
    132 H132       -0.0213  -15.2336  -50.8172 H         1 UNK         0.0800 
    133 H133        1.2390  -14.1247  -50.3582 H         1 UNK         0.0800 
    134 H134        0.2501  -17.6717  -51.2443 H         1 UNK         0.0800 
    135 H135        0.2576  -17.9538  -49.5179 H         1 UNK         0.0800 
    136 H136        0.5927  -19.7499  -52.3160 H         1 UNK         0.1150 
    137 H137        3.7374  -22.3888  -51.0967 H         1 UNK         0.1150 
    138 H138        2.9597  -18.8164  -48.8628 H         1 UNK         0.1150 
    139 H139        5.3026  -21.6928  -49.4047 H         1 UNK         0.0800 
    140 H140        5.2329  -20.0581  -48.8023 H         1 UNK         0.0800 
    141 H141        3.9740  -23.9490  -47.3478 H         1 UNK         0.0800 
    142 H142        3.3322  -23.3200  -48.8275 H         1 UNK         0.0800 
    143 H143        1.6455  -24.4068  -47.4306 H         1 UNK         0.0600 
    144 H144        2.3278  -22.4241  -45.3491 H         1 UNK         0.3000 
    145 H145        0.1827  -24.0518  -42.9951 H         1 UNK         0.0600 
    146 H146        2.2713  -24.1786  -41.6753 H         1 UNK         0.0600 
    147 H147        2.2889  -25.3995  -42.9369 H         1 UNK         0.0600 
    148 H148        3.2431  -23.9339  -43.1270 H         1 UNK         0.0600 
    149 H149        1.9419  -21.8588  -42.6644 H         1 UNK         0.3000 
    150 H150       -0.3320  -19.2804  -43.5831 H         1 UNK         0.0600 
    151 H151       -1.0306  -20.1454  -41.3204 H         1 UNK         0.0600 
    152 H152       -0.0607  -18.6930  -41.2178 H         1 UNK         0.0600 
    153 H153        0.6643  -20.2583  -40.8571 H         1 UNK         0.0600 
    154 H154        2.0808  -18.8166  -42.4550 H         1 UNK         0.3000 
    155 H155        4.4542  -19.2490  -44.3411 H         1 UNK         0.0600 
    156 H156        3.9093  -18.6671  -46.6466 H         1 UNK         0.0600 
    157 H157        4.6866  -17.2656  -45.9398 H         1 UNK         0.0600 
    158 H158        2.9343  -17.2981  -46.1484 H         1 UNK         0.0600 
    159 H159        2.8601  -17.0865  -43.1338 H         1 UNK         0.3000 
    160 H160        5.6801  -16.0296  -41.2460 H         1 UNK         0.0600 
    161 H161        5.1479  -13.7120  -41.9314 H         1 UNK         0.0600 
    162 H162        6.0031  -14.5333  -43.2265 H         1 UNK         0.0600 
    163 H163        4.2641  -14.2965  -43.3408 H         1 UNK         0.0600 
    164 H164        2.9983  -15.0345  -41.3747 H         1 UNK         0.3000 
    165 H165        1.3702  -17.5056  -39.5652 H         1 UNK         0.0600 
    166 H166        1.0119  -15.9276  -37.7028 H         1 UNK         0.0600 
    167 H167        2.6444  -16.5658  -37.6226 H         1 UNK         0.0600 
    168 H168        2.3731  -14.9379  -38.2327 H         1 UNK         0.0600 
    169 H169        0.3671  -15.0016  -39.8232 H         1 UNK         0.3000 
    170 H170       -1.3847  -14.8442  -41.2974 H         1 UNK         0.0600 
    171 H171        0.2631  -13.0351  -41.7849 H         1 UNK         0.0600 
    172 H172        0.4631  -13.6335  -43.4255 H         1 UNK         0.0600 
    173 H173       -1.0829  -12.9682  -42.9131 H         1 UNK         0.0600 
    174 H174       -1.1187  -15.3503  -44.1654 H         1 UNK         0.3000 
    175 H175       -1.8141  -17.4881  -45.0204 H         1 UNK         0.0600 
    176 H176       -3.5530  -19.2065  -45.1246 H         1 UNK         0.0600 
    177 H177       -2.7096  -19.3822  -43.6047 H         1 UNK         0.0600 
    178 H178       -4.2963  -18.6350  -43.6327 H         1 UNK         0.0600 
    179 H179       -3.2634  -16.1523  -46.0373 H         1 UNK         0.3000 
    180 H180       -6.0105  -15.5034  -46.3095 H         1 UNK         0.0600 
    181 H181       -5.8959  -13.3189  -44.1746 H         1 UNK         0.0600 
    182 H182       -7.1884  -14.4809  -44.4305 H         1 UNK         0.0600 
    183 H183       -6.8715  -13.2517  -45.6422 H         1 UNK         0.0600 
    184 H184       -4.5364  -14.3608  -47.4807 H         1 UNK         0.3000 
    185 H185       -3.2895  -12.5210  -48.0853 H         1 UNK         0.0600 
    186 H186       -2.8286  -10.5828  -46.5438 H         1 UNK         0.0600 
    187 H187       -1.3824  -11.3951  -45.9525 H         1 UNK         0.0600 
    188 H188       -1.4834  -10.8801  -47.6344 H         1 UNK         0.0600 
    189 H189       -1.3142  -14.1931  -46.6805 H         1 UNK         0.3000 
    190 H190        1.0098  -20.9918  -46.5669 H         1 UNK         0.3000 
    191 H191       -0.4081  -20.2769  -48.8999 H         1 UNK         0.0600 
    192 H192        0.3174  -18.6366  -47.1778 H         1 UNK         0.0600 
    193 H193       -0.7852  -19.3507  -46.0067 H         1 UNK         0.0600 
    194 H194       -1.4200  -18.5166  -47.4238 H         1 UNK         0.0600 
    195 H195       -1.4822  -22.1207  -46.0529 H         1 UNK         0.3000 
    196 H196       -4.2434  -22.2355  -46.5640 H         1 UNK         0.0600 
    197 H197       -4.1400  -24.3249  -45.1747 H         1 UNK         0.0600 
    198 H198       -3.2423  -23.0002  -44.4526 H         1 UNK         0.0600 
    199 H199       -2.3829  -24.2989  -45.2783 H         1 UNK         0.0600 
    200 H200       -1.5926  -24.0404  -48.1206 H         1 UNK         0.3000 
    201 H201       -3.3066  -25.9483  -49.4776 H         1 UNK         0.0600 
    202 H202       -0.9044  -26.4267  -48.9315 H         1 UNK         0.0600 
    203 H203       -0.4034  -25.1708  -50.0634 H         1 UNK         0.0600 
    204 H204       -1.2473  -26.5926  -50.6469 H         1 UNK         0.0600 
    205 H205       -2.3964  -22.6489  -50.0264 H         1 UNK         0.3000 
    206 H206       -3.3911  -22.6237  -52.8230 H         1 UNK         0.0600 
    207 H207       -1.2637  -21.4286  -52.3976 H         1 UNK         0.0600 
    208 H208       -2.5187  -20.2760  -52.7951 H         1 UNK         0.0600 
    209 H209       -2.0107  -20.4734  -51.1244 H         1 UNK         0.0600 
    210 H210       -5.0277  -23.0879  -50.2680 H         1 UNK         0.3000 
    211 H211       -7.0266  -22.6414  -49.4386 H         1 UNK         0.0600 
    212 H212       -7.5747  -21.0842  -52.0253 H         1 UNK         0.0600 
    213 H213       -8.7792  -21.7173  -50.9144 H         1 UNK         0.0600 
    214 H214       -7.7637  -22.8240  -51.8240 H         1 UNK         0.0600 
    215 H215       -5.0141  -21.1187  -48.4572 H         1 UNK         0.3000 
    216 H216       -4.5003  -19.4398  -47.1345 H         1 UNK         0.0600 
    217 H217       -6.1622  -18.0237  -46.0507 H         1 UNK         0.0600 
    218 H218       -6.8084  -19.6505  -46.1427 H         1 UNK         0.0600 
    219 H219       -7.3787  -18.4078  -47.2571 H         1 UNK         0.0600 
    220 H220       -4.0267  -19.3756  -49.8227 H         1 UNK         0.3000 
    221 H221       -3.1814  -18.2093  -51.4755 H         1 UNK         0.0600 
    222 H222       -3.2460  -15.7207  -49.7006 H         1 UNK         0.0600 
    223 H223       -1.9778  -16.9477  -49.6892 H         1 UNK         0.0600 
    224 H224       -2.2559  -15.9770  -51.1284 H         1 UNK         0.0600 
    225 H225       -6.1946  -18.3274  -51.0551 H         1 UNK         0.3000 
    226 H226       -7.1959  -16.1148  -52.7006 H         1 UNK         0.0600 
    227 H227       -9.3365  -17.3091  -52.5419 H         1 UNK         0.0600 
    228 H228       -8.5550  -18.7256  -51.8566 H         1 UNK         0.0600 
    229 H229       -8.6159  -17.2194  -50.9409 H         1 UNK         0.0600 
    230 H230       -5.7875  -19.2816  -53.1803 H         1 UNK         0.3000 
    231 H231       -6.2185  -19.1388  -56.1234 H         1 UNK         0.0600 
    232 H232       -7.6850  -20.9136  -55.0763 H         1 UNK         0.0600 
    233 H233       -6.2591  -21.6661  -54.3733 H         1 UNK         0.0600 
    234 H234       -6.4630  -21.6001  -56.1263 H         1 UNK         0.0600 
    235 H235       -4.4604  -21.7362  -55.8948 H         1 UNK         0.3000 
    236 H236       -1.8535  -20.6797  -55.1183 H         1 UNK         0.0600 
    237 H237       -0.8667  -21.2266  -57.3566 H         1 UNK         0.0600 
    238 H238       -2.4671  -21.5902  -57.9947 H         1 UNK         0.0600 
    239 H239       -2.0560  -19.9450  -57.5146 H         1 UNK         0.0600 
    240 H240       -0.2629  -22.4610  -55.1259 H         1 UNK         0.3000 
    241 H241       -1.3983  -24.8250  -53.9709 H         1 UNK         0.0600 
    242 H242       -0.7538  -25.8998  -57.8167 H         1 UNK         0.3800 
    243 H243       -0.7927  -24.2227  -57.3422 H         1 UNK         0.3800 
    244 H244        0.9662  -25.5430  -53.6391 H         1 UNK         0.0800 
    245 H245        1.5265  -24.2229  -54.6267 H         1 UNK         0.0800 
    246 H246        2.7360  -22.4947  -53.3960 H         1 UNK         0.0800 
    247 H247        1.3079  -21.5621  -53.7796 H         1 UNK         0.0800 
@<TRIPOS>BOND
     1    1    2 1    
     2    1  127 1    
     3    1  128 1    
     4    1  129 1    
     5    2    3 2    
     6    2    4 am   BACKBONE|DICT|INTERRES
     7    4    5 1    
     8    4  130 1    
     9    5    6 1    
    10    5   65 1    
    11    5  131 1    
    12    6    7 1    
    13    6  132 1    
    14    6  133 1    
    15    7    8 1    
    16    8    9 1    
    17    8  134 1    
    18    8  135 1    
    19    9   10 ar   
    20    9   14 ar   
    21   10   11 ar   
    22   10  136 1    
    23   11   12 ar   
    24   11  126 1    
    25   12   13 ar   
    26   12  137 1    
    27   13   14 ar   
    28   13   15 1    
    29   14  138 1    
    30   15   16 1    
    31   15  139 1    
    32   15  140 1    
    33   16   17 1    
    34   17   18 1    
    35   17  141 1    
    36   17  142 1    
    37   18   19 1    
    38   18   67 1    
    39   18  143 1    
    40   19   20 am   BACKBONE|DICT|INTERRES
    41   19  144 1    
    42   20   21 2    
    43   20   22 1    
    44   22   23 1    
    45   22   24 1    
    46   22  145 1    
    47   23  146 1    
    48   23  147 1    
    49   23  148 1    
    50   24   25 am   BACKBONE|DICT|INTERRES
    51   24  149 1    
    52   25   26 2    
    53   25   27 1    
    54   27   28 1    
    55   27   29 1    
    56   27  150 1    
    57   28  151 1    
    58   28  152 1    
    59   28  153 1    
    60   29   30 am   BACKBONE|DICT|INTERRES
    61   29  154 1    
    62   30   31 2    
    63   30   32 1    
    64   32   33 1    
    65   32   34 1    
    66   32  155 1    
    67   33  156 1    
    68   33  157 1    
    69   33  158 1    
    70   34   35 am   BACKBONE|DICT|INTERRES
    71   34  159 1    
    72   35   36 2    
    73   35   37 1    
    74   37   38 1    
    75   37   39 1    
    76   37  160 1    
    77   38  161 1    
    78   38  162 1    
    79   38  163 1    
    80   39   40 am   BACKBONE|DICT|INTERRES
    81   39  164 1    
    82   40   41 2    
    83   40   42 1    
    84   42   43 1    
    85   42   44 1    
    86   42  165 1    
    87   43  166 1    
    88   43  167 1    
    89   43  168 1    
    90   44   45 am   BACKBONE|DICT|INTERRES
    91   44  169 1    
    92   45   46 2    
    93   45   47 1    
    94   47   48 1    
    95   47   49 1    
    96   47  170 1    
    97   48  171 1    
    98   48  172 1    
    99   48  173 1    
   100   49   50 am   BACKBONE|DICT|INTERRES
   101   49  174 1    
   102   50   51 2    
   103   50   52 1    
   104   52   53 1    
   105   52   54 1    
   106   52  175 1    
   107   53  176 1    
   108   53  177 1    
   109   53  178 1    
   110   54   55 am   BACKBONE|DICT|INTERRES
   111   54  179 1    
   112   55   56 2    
   113   55   57 1    
   114   57   58 1    
   115   57   59 1    
   116   57  180 1    
   117   58  181 1    
   118   58  182 1    
   119   58  183 1    
   120   59   60 am   BACKBONE|DICT|INTERRES
   121   59  184 1    
   122   60   61 2    
   123   60   62 1    
   124   62   63 1    
   125   62   64 1    
   126   62  185 1    
   127   63  186 1    
   128   63  187 1    
   129   63  188 1    
   130   64   65 am   BACKBONE|DICT|INTERRES
   131   64  189 1    
   132   65   66 2    
   133   67   68 2    
   134   67   69 am   BACKBONE|DICT|INTERRES
   135   69   70 1    
   136   69  190 1    
   137   70   71 1    
   138   70   72 1    
   139   70  191 1    
   140   71  192 1    
   141   71  193 1    
   142   71  194 1    
   143   72   73 2    
   144   72   74 am   BACKBONE|DICT|INTERRES
   145   74   75 1    
   146   74  195 1    
   147   75   76 1    
   148   75   77 1    
   149   75  196 1    
   150   76  197 1    
   151   76  198 1    
   152   76  199 1    
   153   77   78 2    
   154   77   79 am   BACKBONE|DICT|INTERRES
   155   79   80 1    
   156   79  200 1    
   157   80   81 1    
   158   80   82 1    
   159   80  201 1    
   160   81  202 1    
   161   81  203 1    
   162   81  204 1    
   163   82   83 2    
   164   82   84 am   BACKBONE|DICT|INTERRES
   165   84   85 1    
   166   84  205 1    
   167   85   86 1    
   168   85   87 1    
   169   85  206 1    
   170   86  207 1    
   171   86  208 1    
   172   86  209 1    
   173   87   88 2    
   174   87   89 am   BACKBONE|DICT|INTERRES
   175   89   90 1    
   176   89  210 1    
   177   90   91 1    
   178   90   92 1    
   179   90  211 1    
   180   91  212 1    
   181   91  213 1    
   182   91  214 1    
   183   92   93 2    
   184   92   94 am   BACKBONE|DICT|INTERRES
   185   94   95 1    
   186   94  215 1    
   187   95   96 1    
   188   95   97 1    
   189   95  216 1    
   190   96  217 1    
   191   96  218 1    
   192   96  219 1    
   193   97   98 2    
   194   97   99 am   BACKBONE|DICT|INTERRES
   195   99  100 1    
   196   99  220 1    
   197  100  101 1    
   198  100  102 1    
   199  100  221 1    
   200  101  222 1    
   201  101  223 1    
   202  101  224 1    
   203  102  103 2    
   204  102  104 am   BACKBONE|DICT|INTERRES
   205  104  105 1    
   206  104  225 1    
   207  105  106 1    
   208  105  107 1    
   209  105  226 1    
   210  106  227 1    
   211  106  228 1    
   212  106  229 1    
   213  107  108 2    
   214  107  109 am   BACKBONE|DICT|INTERRES
   215  109  110 1    
   216  109  230 1    
   217  110  111 1    
   218  110  112 1    
   219  110  231 1    
   220  111  232 1    
   221  111  233 1    
   222  111  234 1    
   223  112  113 2    
   224  112  114 am   BACKBONE|DICT|INTERRES
   225  114  115 1    
   226  114  235 1    
   227  115  116 1    
   228  115  117 1    
   229  115  236 1    
   230  116  237 1    
   231  116  238 1    
   232  116  239 1    
   233  117  118 2    
   234  117  119 am   BACKBONE|DICT|INTERRES
   235  119  120 1    
   236  119  240 1    
   237  120  121 1    
   238  120  124 1    
   239  120  241 1    
   240  121  122 am   BACKBONE|DICT|INTERRES
   241  121  123 2    
   242  122  242 1    
   243  122  243 1    
   244  124  125 1    
   245  124  244 1    
   246  124  245 1    
   247  125  126 1    
   248  126  246 1    
   249  126  247 1    
@<TRIPOS>SUBSTRUCTURE
     1 UNK         1 GROUP             0       ****    0 ROOT    
