@<TRIPOS>MOLECULE
3R540
247   249    1
SMALL
USER_CHARGES


@<TRIPOS>ATOM
      1 CA         -2.8803  -14.4622  -45.6725 C.3       0 UNK        -0.1800 
      2 C          -2.0132  -13.5112  -46.4855 C.2       0 UNK         0.5000 
      3 O          -2.3170  -12.3204  -46.5523 O.2       0 UNK        -0.5000 
      4 N          -0.9399  -14.0245  -47.1043 N.am      1 UNK        -0.5000 
      5 CA          0.0070  -13.2477  -47.9178 C.3       1 UNK         0.1400 
      6 C6          0.9020  -14.1592  -48.7965 C.3       23 UNK        -0.0398 
      7 S7          1.9568  -15.3118  -47.8467 S.3       23 UNK        -0.2404 
      8 C8          3.0236  -16.0012  -49.1505 C.3       23 UNK        -0.0205 
      9 C9          2.4821  -17.3097  -49.7103 C.ar      23 UNK        -0.0193 
     10 C10         1.5004  -17.3009  -50.7054 C.ar      23 UNK        -0.1150 
     11 C11         1.0241  -18.5005  -51.2413 C.ar      23 UNK        -0.0193 
     12 C12         1.5532  -19.7143  -50.7938 C.ar      23 UNK        -0.1150 
     13 C13         2.5435  -19.7393  -49.8077 C.ar      23 UNK        -0.0193 
     14 C14         2.9928  -18.5325  -49.2602 C.ar      23 UNK        -0.1150 
     15 C15         3.1745  -21.0609  -49.3803 C.3       23 UNK        -0.0205 
     16 S16         1.9735  -22.2800  -48.7496 S.3       23 UNK        -0.2404 
     17 C17         1.4670  -21.5059  -47.1785 C.3       23 UNK        -0.0398 
     18 CA         -0.0503  -21.6055  -46.8894 C.3       11 UNK         0.1400 
     19 N          -0.3621  -21.1560  -45.5295 N.am      11 UNK        -0.5000 
     20 C          -1.5638  -21.2455  -44.9422 C.2       10 UNK         0.5000 
     21 O          -2.5410  -21.7816  -45.4628 O.2       10 UNK        -0.5000 
     22 CA         -1.7143  -20.5846  -43.5600 C.3       10 UNK         0.1400 
     23 CB         -1.1875  -21.5108  -42.4542 C.3       10 UNK        -0.1800 
     24 N          -1.0448  -19.2853  -43.4796 N.am      10 UNK        -0.5000 
     25 C          -1.3849  -18.2095  -44.2050 C.2       9 UNK         0.5000 
     26 O          -2.3415  -18.1819  -44.9782 O.2       9 UNK        -0.5000 
     27 CA         -0.4668  -16.9773  -44.0983 C.3       9 UNK         0.1400 
     28 CB         -0.7599  -16.1707  -42.8258 C.3       9 UNK        -0.1800 
     29 N           0.9506  -17.3285  -44.1438 N.am      9 UNK        -0.5000 
     30 C           1.5498  -17.9417  -45.1735 C.2       8 UNK         0.5000 
     31 O           0.9747  -18.2358  -46.2195 O.2       8 UNK        -0.5000 
     32 CA          3.0150  -18.3592  -44.9708 C.3       8 UNK         0.1400 
     33 CB          3.9708  -17.1842  -45.2231 C.3       8 UNK        -0.1800 
     34 N           3.2308  -18.8940  -43.6268 N.am      8 UNK        -0.5000 
     35 C           2.7880  -20.0887  -43.2117 C.2       7 UNK         0.5000 
     36 O           2.1833  -20.8798  -43.9358 O.2       7 UNK        -0.5000 
     37 CA          3.0329  -20.4449  -41.7331 C.3       7 UNK         0.1400 
     38 CB          4.4461  -21.0147  -41.5410 C.3       7 UNK        -0.1800 
     39 N           2.8430  -19.3047  -40.8341 N.am      7 UNK        -0.5000 
     40 C           1.6588  -18.7247  -40.5950 C.2       6 UNK         0.5000 
     41 O           0.5995  -19.1127  -41.0859 O.2       6 UNK        -0.5000 
     42 CA          1.6594  -17.4744  -39.6928 C.3       6 UNK         0.1400 
     43 CB          1.5641  -17.8787  -38.2143 C.3       6 UNK        -0.1800 
     44 N           2.8068  -16.5777  -39.8755 N.am      6 UNK        -0.5000 
     45 C           3.2095  -16.0584  -41.0428 C.2       5 UNK         0.5000 
     46 O           2.7152  -16.3574  -42.1293 O.2       5 UNK        -0.5000 
     47 CA          4.3179  -15.0007  -40.9688 C.3       5 UNK         0.1400 
     48 CB          5.1002  -14.8779  -42.2884 C.3       5 UNK        -0.1800 
     49 N           3.6849  -13.7210  -40.6775 N.am      5 UNK        -0.5000 
     50 C           3.6698  -13.1174  -39.4824 C.2       4 UNK         0.5000 
     51 O           4.2439  -13.5635  -38.4880 O.2       4 UNK        -0.5000 
     52 CA          2.8826  -11.7953  -39.3672 C.3       4 UNK         0.1400 
     53 CB          3.8345  -10.5948  -39.4833 C.3       4 UNK        -0.1800 
     54 N           1.8250  -11.6570  -40.3701 N.am      4 UNK        -0.5000 
     55 C           0.6872  -12.3648  -40.3857 C.2       3 UNK         0.5000 
     56 O           0.3704  -13.1664  -39.5063 O.2       3 UNK        -0.5000 
     57 CA         -0.2483  -12.1583  -41.5957 C.3       3 UNK         0.1400 
     58 CB         -1.3653  -11.1633  -41.2465 C.3       3 UNK        -0.1800 
     59 N           0.4150  -11.7151  -42.8300 N.am      3 UNK        -0.5000 
     60 C           1.3908  -12.3783  -43.4639 C.2       2 UNK         0.5000 
     61 O           1.9035  -13.4103  -43.0351 O.2       2 UNK        -0.5000 
     62 CA          1.8267  -11.8335  -44.8263 C.3       2 UNK         0.1400 
     63 CB          3.3477  -11.9511  -45.0421 C.3       2 UNK        -0.1800 
     64 N           1.1145  -12.6185  -45.8216 N.am      2 UNK        -0.5000 
     65 C           0.8418  -12.2519  -47.0783 C.2       1 UNK         0.5000 
     66 O           1.1976  -11.1815  -47.5738 O.2       1 UNK        -0.5000 
     67 C          -0.9077  -20.8668  -47.9402 C.2       11 UNK         0.5000 
     68 O          -1.5440  -21.5160  -48.7700 O.2       11 UNK        -0.5000 
     69 N          -0.9612  -19.5323  -47.8447 N.am      12 UNK        -0.5000 
     70 CA         -1.7653  -18.6688  -48.7074 C.3       12 UNK         0.1400 
     71 CB         -1.4177  -17.2056  -48.4129 C.3       12 UNK        -0.1800 
     72 C          -3.2810  -18.9050  -48.5764 C.2       12 UNK         0.5000 
     73 O          -3.9900  -18.8158  -49.5778 O.2       12 UNK        -0.5000 
     74 N          -3.7482  -19.2107  -47.3582 N.am      13 UNK        -0.5000 
     75 CA         -5.1386  -19.5642  -47.0731 C.3       13 UNK         0.1400 
     76 CB         -5.3856  -19.4925  -45.5585 C.3       13 UNK        -0.1800 
     77 C          -5.5265  -20.9489  -47.6264 C.2       13 UNK         0.5000 
     78 O          -6.6440  -21.1101  -48.1177 O.2       13 UNK        -0.5000 
     79 N          -4.6072  -21.9203  -47.5347 N.am      14 UNK        -0.5000 
     80 CA         -4.7805  -23.2762  -48.0568 C.3       14 UNK         0.1400 
     81 CB         -3.7198  -24.2022  -47.4435 C.3       14 UNK        -0.1800 
     82 C          -4.7248  -23.3356  -49.5931 C.2       14 UNK         0.5000 
     83 O          -5.4615  -24.1197  -50.1936 O.2       14 UNK        -0.5000 
     84 N          -3.8610  -22.5131  -50.2032 N.am      15 UNK        -0.5000 
     85 CA         -3.7026  -22.3926  -51.6511 C.3       15 UNK         0.1400 
     86 CB         -2.5738  -21.4044  -51.9652 C.3       15 UNK        -0.1800 
     87 C          -5.0064  -21.9643  -52.3505 C.2       15 UNK         0.5000 
     88 O          -5.7160  -21.0889  -51.8526 O.2       15 UNK        -0.5000 
     89 N          -5.3068  -22.6261  -53.4729 N.am      16 UNK        -0.5000 
     90 CA         -6.5179  -22.5528  -54.2988 C.3       16 UNK         0.1400 
     91 CB         -6.8394  -21.1103  -54.7374 C.3       16 UNK        -0.1800 
     92 C          -7.7443  -23.2306  -53.6567 C.2       16 UNK         0.5000 
     93 O          -8.5515  -23.8127  -54.3818 O.2       16 UNK        -0.5000 
     94 N          -7.8670  -23.1602  -52.3253 N.am      17 UNK        -0.5000 
     95 CA         -8.9351  -23.7814  -51.5476 C.3       17 UNK         0.1400 
     96 CB         -8.9861  -23.1446  -50.1493 C.3       17 UNK        -0.1800 
     97 C          -8.7717  -25.3084  -51.4583 C.2       17 UNK         0.5000 
     98 O          -9.7063  -26.0390  -51.7904 O.2       17 UNK        -0.5000 
     99 N          -7.5933  -25.7596  -51.0102 N.am      18 UNK        -0.5000 
    100 CA        -7.2689  -27.1730  -50.8254 C.3       18 UNK         0.1400 
    101 CB        -6.3690  -27.3291  -49.5883 C.3       18 UNK        -0.1800 
    102 C         -6.5858  -27.7701  -52.0655 C.2       18 UNK         0.5000 
    103 O         -6.9159  -28.8902  -52.4575 O.2       18 UNK        -0.5000 
    104 N         -5.6470  -27.0219  -52.6561 N.am      19 UNK        -0.5000 
    105 CA        -4.8192  -27.4243  -53.7912 C.3       19 UNK         0.1400 
    106 CB        -3.7913  -28.4862  -53.3476 C.3       19 UNK        -0.1800 
    107 C         -4.1073  -26.1868  -54.3567 C.2       19 UNK         0.5000 
    108 O         -4.1342  -25.1271  -53.7273 O.2       19 UNK        -0.5000 
    109 N         -3.4605  -26.3485  -55.5182 N.am      20 UNK        -0.5000 
    110 CA        -2.6961  -25.3267  -56.2438 C.3       20 UNK         0.1400 
    111 CB        -1.4619  -24.8809  -55.4237 C.3       20 UNK        -0.1800 
    112 C         -3.5832  -24.1569  -56.7276 C.2       20 UNK         0.5000 
    113 O         -4.7513  -24.3781  -57.0552 O.2       20 UNK        -0.5000 
    114 N         -3.0153  -22.9468  -56.7904 N.am      21 UNK        -0.5000 
    115 CA        -3.6846  -21.7220  -57.2324 C.3       21 UNK         0.1400 
    116 CB        -3.8490  -21.7106  -58.7640 C.3       21 UNK        -0.1800 
    117 C         -2.9287  -20.4694  -56.7621 C.2       21 UNK         0.5000 
    118 O         -3.5672  -19.4702  -56.4332 O.2       21 UNK        -0.5000 
    119 N         -1.5889  -20.5458  -56.7298 N.am      22 UNK        -0.5000 
    120 CA        -0.6688  -19.4534  -56.3534 C.3       22 UNK         0.1400 
    121 C         -0.5245  -18.3234  -57.4218 C.2       22 UNK         0.5000 
    122 N         -0.9812  -18.5156  -58.6537 N.am      22 UNK        -0.7600 
    123 O          0.0329  -17.2645  -57.1467 O.2       22 UNK        -0.5000 
    124 C124       -0.9289  -18.9057  -54.9170 C.3       23 UNK        -0.0398 
    125 S125        0.6060  -18.6108  -53.9752 S.3       23 UNK        -0.2404 
    126 C126       -0.0718  -18.4935  -52.2929 C.3       23 UNK        -0.0205 
    127 H127       -2.6991  -14.3160  -44.6080 H         1 UNK         0.0600 
    128 H128       -2.6865  -15.5052  -45.9164 H         1 UNK         0.0600 
    129 H129       -3.9350  -14.2679  -45.8675 H         1 UNK         0.0600 
    130 H130       -0.7283  -15.0080  -47.0213 H         1 UNK         0.3000 
    131 H131       -0.5902  -12.6412  -48.6023 H         1 UNK         0.0600 
    132 H132        0.2736  -14.7425  -49.4697 H         1 UNK         0.0800 
    133 H133        1.5371  -13.5473  -49.4395 H         1 UNK         0.0800 
    134 H134        4.0175  -16.1626  -48.7308 H         1 UNK         0.0800 
    135 H135        3.1561  -15.2767  -49.9551 H         1 UNK         0.0800 
    136 H136        1.1051  -16.3606  -51.0615 H         1 UNK         0.1150 
    137 H137        1.1986  -20.6426  -51.2196 H         1 UNK         0.1150 
    138 H138        3.7611  -18.5411  -48.5001 H         1 UNK         0.1150 
    139 H139        3.6848  -21.4924  -50.2423 H         1 UNK         0.0800 
    140 H140        3.9430  -20.8987  -48.6228 H         1 UNK         0.0800 
    141 H141        1.7895  -20.4660  -47.1662 H         1 UNK         0.0800 
    142 H142        2.0256  -22.0013  -46.3837 H         1 UNK         0.0800 
    143 H143       -0.3258  -22.6612  -46.9374 H         1 UNK         0.0600 
    144 H144        0.3997  -20.7347  -45.0102 H         1 UNK         0.3000 
    145 H145       -2.7797  -20.4212  -43.3854 H         1 UNK         0.0600 
    146 H146       -1.3772  -21.0909  -41.4662 H         1 UNK         0.0600 
    147 H147       -1.6775  -22.4845  -42.4930 H         1 UNK         0.0600 
    148 H148       -0.1140  -21.6782  -42.5454 H         1 UNK         0.0600 
    149 H149       -0.2781  -19.2099  -42.8172 H         1 UNK         0.3000 
    150 H150       -0.6641  -16.3379  -44.9592 H         1 UNK         0.0600 
    151 H151       -1.7954  -15.8297  -42.8081 H         1 UNK         0.0600 
    152 H152       -0.1213  -15.2900  -42.7643 H         1 UNK         0.0600 
    153 H153       -0.5956  -16.7640  -41.9271 H         1 UNK         0.0600 
    154 H154        1.5174  -17.0749  -43.3369 H         1 UNK         0.3000 
    155 H155        3.2496  -19.1435  -45.6933 H         1 UNK         0.0600 
    156 H156        3.7114  -16.3126  -44.6222 H         1 UNK         0.0600 
    157 H157        3.9371  -16.8797  -46.2685 H         1 UNK         0.0600 
    158 H158        5.0026  -17.4544  -44.9989 H         1 UNK         0.0600 
    159 H159        3.6235  -18.2569  -42.9477 H         1 UNK         0.3000 
    160 H160        2.3141  -21.2191  -41.4560 H         1 UNK         0.0600 
    161 H161        5.2147  -20.2777  -41.7772 H         1 UNK         0.0600 
    162 H162        4.6094  -21.8782  -42.1873 H         1 UNK         0.0600 
    163 H163        4.6016  -21.3452  -40.5138 H         1 UNK         0.0600 
    164 H164        3.6669  -18.9197  -40.3962 H         1 UNK         0.3000 
    165 H165        0.7663  -16.8981  -39.9405 H         1 UNK         0.0600 
    166 H166        1.4409  -17.0054  -37.5734 H         1 UNK         0.0600 
    167 H167        0.7059  -18.5297  -38.0413 H         1 UNK         0.0600 
    168 H168        2.4551  -18.4149  -37.8853 H         1 UNK         0.0600 
    169 H169        3.2575  -16.2551  -39.0309 H         1 UNK         0.3000 
    170 H170        5.0210  -15.2857  -40.1836 H         1 UNK         0.0600 
    171 H171        5.5381  -15.8347  -42.5749 H         1 UNK         0.0600 
    172 H172        4.4621  -14.5476  -43.1088 H         1 UNK         0.0600 
    173 H173        5.9153  -14.1605  -42.1944 H         1 UNK         0.0600 
    174 H174        3.1047  -13.3529  -41.4250 H         1 UNK         0.3000 
    175 H175        2.4218  -11.7717  -38.3775 H         1 UNK         0.0600 
    176 H176        4.3168  -10.5568  -40.4610 H         1 UNK         0.0600 
    177 H177        3.3045   -9.6543  -39.3323 H         1 UNK         0.0600 
    178 H178        4.6224  -10.6466  -38.7306 H         1 UNK         0.0600 
    179 H179        1.9994  -11.0169  -41.1306 H         1 UNK         0.3000 
    180 H180       -0.7123  -13.1237  -41.8061 H         1 UNK         0.0600 
    181 H181       -0.9695  -10.1638  -41.0623 H         1 UNK         0.0600 
    182 H182       -1.9013  -11.4748  -40.3489 H         1 UNK         0.0600 
    183 H183       -2.0977  -11.0929  -42.0510 H         1 UNK         0.0600 
    184 H184        0.0387  -10.8819  -43.2592 H         1 UNK         0.3000 
    185 H185        1.5344  -10.7841  -44.9019 H         1 UNK         0.0600 
    186 H186        3.6469  -11.5073  -45.9916 H         1 UNK         0.0600 
    187 H187        3.8953  -11.4340  -44.2534 H         1 UNK         0.0600 
    188 H188        3.6756  -12.9916  -45.0445 H         1 UNK         0.0600 
    189 H189        0.7825  -13.5173  -45.5001 H         1 UNK         0.3000 
    190 H190       -0.3731  -19.0662  -47.1563 H         1 UNK         0.3000 
    191 H191       -1.4884  -18.8859  -49.7397 H         1 UNK         0.0600 
    192 H192       -1.9786  -16.5259  -49.0555 H         1 UNK         0.0600 
    193 H193       -0.3585  -17.0205  -48.5804 H         1 UNK         0.0600 
    194 H194       -1.6388  -16.9510  -47.3780 H         1 UNK         0.0600 
    195 H195       -3.1107  -19.1841  -46.5691 H         1 UNK         0.3000 
    196 H196       -5.7815  -18.8236  -47.5533 H         1 UNK         0.0600 
    197 H197       -4.7573  -20.1972  -45.0136 H         1 UNK         0.0600 
    198 H198       -5.1797  -18.4939  -45.1728 H         1 UNK         0.0600 
    199 H199       -6.4241  -19.7261  -45.3209 H         1 UNK         0.0600 
    200 H200       -3.7333  -21.7253  -47.0557 H         1 UNK         0.3000 
    201 H201       -5.7635  -23.6386  -47.7485 H         1 UNK         0.0600 
    202 H202       -3.8040  -24.2316  -46.3570 H         1 UNK         0.0600 
    203 H203       -2.7091  -23.8754  -47.6912 H         1 UNK         0.0600 
    204 H204       -3.8353  -25.2240  -47.8074 H         1 UNK         0.0600 
    205 H205       -3.2484  -21.9403  -49.6309 H         1 UNK         0.3000 
    206 H206       -3.4018  -23.3740  -52.0187 H         1 UNK         0.0600 
    207 H207       -1.6334  -21.7165  -51.5105 H         1 UNK         0.0600 
    208 H208       -2.4090  -21.3395  -53.0406 H         1 UNK         0.0600 
    209 H209       -2.8114  -20.4042  -51.6016 H         1 UNK         0.0600 
    210 H210       -4.7068  -23.4171  -53.7035 H         1 UNK         0.3000 
    211 H211       -6.2849  -23.1230  -55.1986 H         1 UNK         0.0600 
    212 H212       -7.5922  -21.1071  -55.5262 H         1 UNK         0.0600 
    213 H213       -5.9571  -20.6014  -55.1241 H         1 UNK         0.0600 
    214 H214       -7.2331  -20.5124  -53.9151 H         1 UNK         0.0600 
    215 H215       -7.1649  -22.6411  -51.8113 H         1 UNK         0.3000 
    216 H216       -9.8858  -23.5745  -52.0437 H         1 UNK         0.0600 
    217 H217       -8.0495  -23.2759  -49.6063 H         1 UNK         0.0600 
    218 H218       -9.7799  -23.5879  -49.5468 H         1 UNK         0.0600 
    219 H219       -9.1841  -22.0744  -50.2115 H         1 UNK         0.0600 
    220 H220       -6.8672  -25.0904  -50.7578 H         1 UNK         0.3000 
    221 H221       -8.1839  -27.7398  -50.6402 H         1 UNK         0.0600 
    222 H222       -6.8534  -26.9316  -48.6963 H         1 UNK         0.0600 
    223 H223       -5.4169  -26.8113  -49.7100 H         1 UNK         0.0600 
    224 H224       -6.1477  -28.3800  -49.3983 H         1 UNK         0.0600 
    225 H225       -5.4492  -26.0912  -52.3089 H         1 UNK         0.3000 
    226 H226       -5.4630  -27.8337  -54.5722 H         1 UNK         0.0600 
    227 H227       -3.1464  -28.1084  -52.5532 H         1 UNK         0.0600 
    228 H228       -4.2784  -29.3890  -52.9796 H         1 UNK         0.0600 
    229 H229       -3.1491  -28.7892  -54.1751 H         1 UNK         0.0600 
    230 H230       -3.5209  -27.2462  -55.9775 H         1 UNK         0.3000 
    231 H231       -2.3286  -25.8145  -57.1476 H         1 UNK         0.0600 
    232 H232       -1.7388  -24.2754  -54.5597 H         1 UNK         0.0600 
    233 H233       -0.7690  -24.2980  -56.0312 H         1 UNK         0.0600 
    234 H234       -0.9067  -25.7439  -55.0558 H         1 UNK         0.0600 
    235 H235       -2.0744  -22.8425  -56.4409 H         1 UNK         0.3000 
    236 H236       -4.6764  -21.6895  -56.7788 H         1 UNK         0.0600 
    237 H237       -4.4926  -22.5226  -59.1021 H         1 UNK         0.0600 
    238 H238       -4.3052  -20.7791  -59.1018 H         1 UNK         0.0600 
    239 H239       -2.8895  -21.8118  -59.2720 H         1 UNK         0.0600 
    240 H240       -1.1387  -21.3754  -57.0860 H         1 UNK         0.3000 
    241 H241        0.3086  -19.9371  -56.3499 H         1 UNK         0.0600 
    242 H242       -0.8749  -17.7842  -59.3395 H         1 UNK         0.3800 
    243 H243       -1.4313  -19.3791  -58.9095 H         1 UNK         0.3800 
    244 H244       -1.5164  -19.6252  -54.3483 H         1 UNK         0.0800 
    245 H245       -1.5277  -17.9933  -54.9366 H         1 UNK         0.0800 
    246 H246       -0.6796  -17.5914  -52.2070 H         1 UNK         0.0800 
    247 H247       -0.7395  -19.3337  -52.1112 H         1 UNK         0.0800 
@<TRIPOS>BOND
     1    1    2 1    
     2    1  127 1    
     3    1  128 1    
     4    1  129 1    
     5    2    3 2    
     6    2    4 am   BACKBONE|DICT|INTERRES
     7    4    5 1    
     8    4  130 1    
     9    5    6 1    
    10    5   65 1    
    11    5  131 1    
    12    6    7 1    
    13    6  132 1    
    14    6  133 1    
    15    7    8 1    
    16    8    9 1    
    17    8  134 1    
    18    8  135 1    
    19    9   10 ar   
    20    9   14 ar   
    21   10   11 ar   
    22   10  136 1    
    23   11   12 ar   
    24   11  126 1    
    25   12   13 ar   
    26   12  137 1    
    27   13   14 ar   
    28   13   15 1    
    29   14  138 1    
    30   15   16 1    
    31   15  139 1    
    32   15  140 1    
    33   16   17 1    
    34   17   18 1    
    35   17  141 1    
    36   17  142 1    
    37   18   19 1    
    38   18   67 1    
    39   18  143 1    
    40   19   20 am   BACKBONE|DICT|INTERRES
    41   19  144 1    
    42   20   21 2    
    43   20   22 1    
    44   22   23 1    
    45   22   24 1    
    46   22  145 1    
    47   23  146 1    
    48   23  147 1    
    49   23  148 1    
    50   24   25 am   BACKBONE|DICT|INTERRES
    51   24  149 1    
    52   25   26 2    
    53   25   27 1    
    54   27   28 1    
    55   27   29 1    
    56   27  150 1    
    57   28  151 1    
    58   28  152 1    
    59   28  153 1    
    60   29   30 am   BACKBONE|DICT|INTERRES
    61   29  154 1    
    62   30   31 2    
    63   30   32 1    
    64   32   33 1    
    65   32   34 1    
    66   32  155 1    
    67   33  156 1    
    68   33  157 1    
    69   33  158 1    
    70   34   35 am   BACKBONE|DICT|INTERRES
    71   34  159 1    
    72   35   36 2    
    73   35   37 1    
    74   37   38 1    
    75   37   39 1    
    76   37  160 1    
    77   38  161 1    
    78   38  162 1    
    79   38  163 1    
    80   39   40 am   BACKBONE|DICT|INTERRES
    81   39  164 1    
    82   40   41 2    
    83   40   42 1    
    84   42   43 1    
    85   42   44 1    
    86   42  165 1    
    87   43  166 1    
    88   43  167 1    
    89   43  168 1    
    90   44   45 am   BACKBONE|DICT|INTERRES
    91   44  169 1    
    92   45   46 2    
    93   45   47 1    
    94   47   48 1    
    95   47   49 1    
    96   47  170 1    
    97   48  171 1    
    98   48  172 1    
    99   48  173 1    
   100   49   50 am   BACKBONE|DICT|INTERRES
   101   49  174 1    
   102   50   51 2    
   103   50   52 1    
   104   52   53 1    
   105   52   54 1    
   106   52  175 1    
   107   53  176 1    
   108   53  177 1    
   109   53  178 1    
   110   54   55 am   BACKBONE|DICT|INTERRES
   111   54  179 1    
   112   55   56 2    
   113   55   57 1    
   114   57   58 1    
   115   57   59 1    
   116   57  180 1    
   117   58  181 1    
   118   58  182 1    
   119   58  183 1    
   120   59   60 am   BACKBONE|DICT|INTERRES
   121   59  184 1    
   122   60   61 2    
   123   60   62 1    
   124   62   63 1    
   125   62   64 1    
   126   62  185 1    
   127   63  186 1    
   128   63  187 1    
   129   63  188 1    
   130   64   65 am   BACKBONE|DICT|INTERRES
   131   64  189 1    
   132   65   66 2    
   133   67   68 2    
   134   67   69 am   BACKBONE|DICT|INTERRES
   135   69   70 1    
   136   69  190 1    
   137   70   71 1    
   138   70   72 1    
   139   70  191 1    
   140   71  192 1    
   141   71  193 1    
   142   71  194 1    
   143   72   73 2    
   144   72   74 am   BACKBONE|DICT|INTERRES
   145   74   75 1    
   146   74  195 1    
   147   75   76 1    
   148   75   77 1    
   149   75  196 1    
   150   76  197 1    
   151   76  198 1    
   152   76  199 1    
   153   77   78 2    
   154   77   79 am   BACKBONE|DICT|INTERRES
   155   79   80 1    
   156   79  200 1    
   157   80   81 1    
   158   80   82 1    
   159   80  201 1    
   160   81  202 1    
   161   81  203 1    
   162   81  204 1    
   163   82   83 2    
   164   82   84 am   BACKBONE|DICT|INTERRES
   165   84   85 1    
   166   84  205 1    
   167   85   86 1    
   168   85   87 1    
   169   85  206 1    
   170   86  207 1    
   171   86  208 1    
   172   86  209 1    
   173   87   88 2    
   174   87   89 am   BACKBONE|DICT|INTERRES
   175   89   90 1    
   176   89  210 1    
   177   90   91 1    
   178   90   92 1    
   179   90  211 1    
   180   91  212 1    
   181   91  213 1    
   182   91  214 1    
   183   92   93 2    
   184   92   94 am   BACKBONE|DICT|INTERRES
   185   94   95 1    
   186   94  215 1    
   187   95   96 1    
   188   95   97 1    
   189   95  216 1    
   190   96  217 1    
   191   96  218 1    
   192   96  219 1    
   193   97   98 2    
   194   97   99 am   BACKBONE|DICT|INTERRES
   195   99  100 1    
   196   99  220 1    
   197  100  101 1    
   198  100  102 1    
   199  100  221 1    
   200  101  222 1    
   201  101  223 1    
   202  101  224 1    
   203  102  103 2    
   204  102  104 am   BACKBONE|DICT|INTERRES
   205  104  105 1    
   206  104  225 1    
   207  105  106 1    
   208  105  107 1    
   209  105  226 1    
   210  106  227 1    
   211  106  228 1    
   212  106  229 1    
   213  107  108 2    
   214  107  109 am   BACKBONE|DICT|INTERRES
   215  109  110 1    
   216  109  230 1    
   217  110  111 1    
   218  110  112 1    
   219  110  231 1    
   220  111  232 1    
   221  111  233 1    
   222  111  234 1    
   223  112  113 2    
   224  112  114 am   BACKBONE|DICT|INTERRES
   225  114  115 1    
   226  114  235 1    
   227  115  116 1    
   228  115  117 1    
   229  115  236 1    
   230  116  237 1    
   231  116  238 1    
   232  116  239 1    
   233  117  118 2    
   234  117  119 am   BACKBONE|DICT|INTERRES
   235  119  120 1    
   236  119  240 1    
   237  120  121 1    
   238  120  124 1    
   239  120  241 1    
   240  121  122 am   BACKBONE|DICT|INTERRES
   241  121  123 2    
   242  122  242 1    
   243  122  243 1    
   244  124  125 1    
   245  124  244 1    
   246  124  245 1    
   247  125  126 1    
   248  126  246 1    
   249  126  247 1    
@<TRIPOS>SUBSTRUCTURE
     1 UNK         1 GROUP             0       ****    0 ROOT    
