@<TRIPOS>MOLECULE
3R540
247   249    1
SMALL
USER_CHARGES


@<TRIPOS>ATOM
      1 CA          6.2848  -17.7267  -46.5814 C.3       0 UNK        -0.1800 
      2 C           4.9523  -17.0314  -46.8204 C.2       0 UNK         0.5000 
      3 O           4.1110  -16.9952  -45.9237 O.2       0 UNK        -0.5000 
      4 N           4.7548  -16.4860  -48.0266 N.am      1 UNK        -0.5000 
      5 CA          3.5473  -15.7593  -48.4191 C.3       1 UNK         0.1400 
      6 C6          3.3815  -15.7104  -49.9639 C.3       23 UNK        -0.0398 
      7 S7          1.6461  -15.9460  -50.4767 S.3       23 UNK        -0.2404 
      8 C8          1.8381  -16.7664  -52.0950 C.3       23 UNK        -0.0205 
      9 C9          1.7787  -18.2921  -52.0383 C.ar      23 UNK        -0.0193 
     10 C10         1.0041  -18.9842  -52.9769 C.ar      23 UNK        -0.1150 
     11 C11         0.9845  -20.3814  -52.9963 C.ar      23 UNK        -0.0193 
     12 C12         1.7299  -21.0870  -52.0496 C.ar      23 UNK        -0.1150 
     13 C13         2.5067  -20.4189  -51.0996 C.ar      23 UNK        -0.0193 
     14 C14         2.5332  -19.0200  -51.1095 C.ar      23 UNK        -0.1150 
     15 C15         3.3547  -21.2436  -50.1310 C.3       23 UNK        -0.0205 
     16 S16         3.6558  -20.5016  -48.4877 S.3       23 UNK        -0.2404 
     17 C17         1.9797  -20.1668  -47.8528 C.3       23 UNK        -0.0398 
     18 CA          1.2498  -21.4139  -47.2814 C.3       11 UNK         0.1400 
     19 N           0.4025  -21.0788  -46.1324 N.am      11 UNK        -0.5000 
     20 C          -0.3212  -21.9430  -45.4041 C.2       10 UNK         0.5000 
     21 O          -0.3039  -23.1631  -45.5644 O.2       10 UNK        -0.5000 
     22 CA         -1.2746  -21.3316  -44.3590 C.3       10 UNK         0.1400 
     23 CB         -0.5291  -20.9596  -43.0684 C.3       10 UNK        -0.1800 
     24 N          -1.9834  -20.1613  -44.8808 N.am      10 UNK        -0.5000 
     25 C          -2.8735  -20.2118  -45.8825 C.2       9 UNK         0.5000 
     26 O          -3.2475  -21.2565  -46.4122 O.2       9 UNK        -0.5000 
     27 CA         -3.3890  -18.8695  -46.4245 C.3       9 UNK         0.1400 
     28 CB         -4.5927  -18.3624  -45.6166 C.3       9 UNK        -0.1800 
     29 N          -2.3366  -17.8544  -46.4534 N.am      9 UNK        -0.5000 
     30 C          -1.3192  -17.8680  -47.3263 C.2       8 UNK         0.5000 
     31 O          -1.1875  -18.7195  -48.2040 O.2       8 UNK        -0.5000 
     32 CA         -0.2541  -16.7681  -47.1832 C.3       8 UNK         0.1400 
     33 CB         -0.7125  -15.4909  -47.9016 C.3       8 UNK        -0.1800 
     34 N           0.0793  -16.4449  -45.7961 N.am      8 UNK        -0.5000 
     35 C           0.5540  -17.3089  -44.8889 C.2       7 UNK         0.5000 
     36 O           0.8202  -18.4811  -45.1410 O.2       7 UNK        -0.5000 
     37 CA          0.6731  -16.8061  -43.4381 C.3       7 UNK         0.1400 
     38 CB          2.0398  -16.1522  -43.1980 C.3       7 UNK        -0.1800 
     39 N          -0.3920  -15.8798  -43.0423 N.am      7 UNK        -0.5000 
     40 C          -1.7061  -16.1512  -43.0920 C.2       6 UNK         0.5000 
     41 O          -2.1594  -17.2149  -43.5196 O.2       6 UNK        -0.5000 
     42 CA         -2.6669  -15.0494  -42.5930 C.3       6 UNK         0.1400 
     43 CB         -4.0873  -15.5753  -42.3007 C.3       6 UNK        -0.1800 
     44 N          -2.1385  -14.3050  -41.4460 N.am      6 UNK        -0.5000 
     45 C          -1.7631  -14.8019  -40.2552 C.2       5 UNK         0.5000 
     46 O          -1.9313  -15.9762  -39.9225 O.2       5 UNK        -0.5000 
     47 CA         -1.0722  -13.8265  -39.2721 C.3       5 UNK         0.1400 
     48 CB          0.0173  -14.5232  -38.4300 C.3       5 UNK        -0.1800 
     49 N          -0.5304  -12.6142  -39.9032 N.am      5 UNK        -0.5000 
     50 C           0.3925  -12.5494  -40.8736 C.2       4 UNK         0.5000 
     51 O           0.9400  -13.5303  -41.3810 O.2       4 UNK        -0.5000 
     52 CA          0.7039  -11.1442  -41.4164 C.3       4 UNK         0.1400 
     53 CB          2.1777  -10.7801  -41.1790 C.3       4 UNK        -0.1800 
     54 N           0.4115  -11.0452  -42.8459 N.am      4 UNK        -0.5000 
     55 C          -0.7729  -11.2840  -43.4297 C.2       3 UNK         0.5000 
     56 O          -1.7956  -11.5862  -42.8121 O.2       3 UNK        -0.5000 
     57 CA         -0.8174  -11.1784  -44.9667 C.3       3 UNK         0.1400 
     58 CB         -1.2961   -9.7836  -45.3967 C.3       3 UNK        -0.1800 
     59 N           0.4816  -11.4545  -45.5874 N.am      3 UNK        -0.5000 
     60 C           1.0132  -12.6784  -45.6837 C.2       2 UNK         0.5000 
     61 O           0.4348  -13.7045  -45.3193 O.2       2 UNK        -0.5000 
     62 CA          2.4354  -12.7647  -46.2508 C.3       2 UNK         0.1400 
     63 CB          3.4768  -12.5543  -45.1354 C.3       2 UNK        -0.1800 
     64 N           2.6231  -14.0667  -46.8854 N.am      2 UNK        -0.5000 
     65 C           3.5606  -14.3470  -47.7972 C.2       1 UNK         0.5000 
     66 O           4.4224  -13.5417  -48.1576 O.2       1 UNK        -0.5000 
     67 C           0.4355  -22.1305  -48.3760 C.2       11 UNK         0.5000 
     68 O           0.7961  -23.2362  -48.7792 O.2       11 UNK        -0.5000 
     69 N          -0.6739  -21.5042  -48.7924 N.am      12 UNK        -0.5000 
     70 CA         -1.6057  -22.0206  -49.7898 C.3       12 UNK         0.1400 
     71 CB         -2.7160  -20.9933  -50.0342 C.3       12 UNK        -0.1800 
     72 C          -2.2067  -23.3828  -49.4150 C.2       12 UNK         0.5000 
     73 O          -2.1671  -24.2993  -50.2332 O.2       12 UNK        -0.5000 
     74 N          -2.7071  -23.5065  -48.1783 N.am      13 UNK        -0.5000 
     75 CA         -3.2892  -24.7367  -47.6426 C.3       13 UNK         0.1400 
     76 CB         -3.9106  -24.4501  -46.2679 C.3       13 UNK        -0.1800 
     77 C          -2.2877  -25.9036  -47.5524 C.2       13 UNK         0.5000 
     78 O          -2.6825  -27.0513  -47.7592 O.2       13 UNK        -0.5000 
     79 N          -1.0179  -25.5972  -47.2533 N.am      14 UNK        -0.5000 
     80 CA          0.0720  -26.5696  -47.2200 C.3       14 UNK         0.1400 
     81 CB          1.2530  -25.9899  -46.4260 C.3       14 UNK        -0.1800 
     82 C           0.5185  -26.9968  -48.6301 C.2       14 UNK         0.5000 
     83 O           0.7214  -28.1886  -48.8663 O.2       14 UNK        -0.5000 
     84 N           0.6828  -26.0204  -49.5320 N.am      15 UNK        -0.5000 
     85 CA          1.1862  -26.2265  -50.8895 C.3       15 UNK         0.1400 
     86 CB          1.6607  -24.8819  -51.4558 C.3       15 UNK        -0.1800 
     87 C           0.1577  -26.8593  -51.8412 C.2       15 UNK         0.5000 
     88 O           0.5328  -27.6963  -52.6640 O.2       15 UNK        -0.5000 
     89 N          -1.1038  -26.4314  -51.7370 N.am      16 UNK        -0.5000 
     90 CA         -2.1895  -26.8039  -52.6326 C.3       16 UNK         0.1400 
     91 CB         -2.2416  -25.8110  -53.8142 C.3       16 UNK        -0.1800 
     92 C          -3.4910  -26.8877  -51.8225 C.2       16 UNK         0.5000 
     93 O          -3.7105  -27.8894  -51.1398 O.2       16 UNK        -0.5000 
     94 N          -4.3312  -25.8530  -51.9154 N.am      17 UNK        -0.5000 
     95 CA         -5.6231  -25.7296  -51.2548 C.3       17 UNK         0.1400 
     96 CB         -6.6592  -26.6283  -51.9621 C.3       17 UNK        -0.1800 
     97 C          -6.0593  -24.2554  -51.2752 C.2       17 UNK         0.5000 
     98 O          -5.4042  -23.4251  -51.9151 O.2       17 UNK        -0.5000 
     99 N          -7.1892  -23.9858  -50.6079 N.am      18 UNK        -0.5000 
    100 CA        -7.8663  -22.6925  -50.4694 C.3       18 UNK         0.1400 
    101 CB        -8.2094  -22.0896  -51.8520 C.3       18 UNK        -0.1800 
    102 C         -7.1104  -21.7050  -49.5565 C.2       18 UNK         0.5000 
    103 O         -6.1589  -22.0849  -48.8700 O.2       18 UNK        -0.5000 
    104 N         -7.5974  -20.4583  -49.5322 N.am      19 UNK        -0.5000 
    105 CA        -7.0146  -19.3304  -48.8080 C.3       19 UNK         0.1400 
    106 CB        -8.1296  -18.3042  -48.5311 C.3       19 UNK        -0.1800 
    107 C         -5.8319  -18.7119  -49.5831 C.2       19 UNK         0.5000 
    108 O         -5.3382  -19.3072  -50.5410 O.2       19 UNK        -0.5000 
    109 N         -5.4105  -17.5088  -49.1679 N.am      20 UNK        -0.5000 
    110 CA        -4.2404  -16.7626  -49.6526 C.3       20 UNK         0.1400 
    111 CB        -4.1681  -15.4329  -48.8858 C.3       20 UNK        -0.1800 
    112 C         -4.1578  -16.5126  -51.1748 C.2       20 UNK         0.5000 
    113 O         -3.0721  -16.2165  -51.6740 O.2       20 UNK        -0.5000 
    114 N         -5.2835  -16.6526  -51.8884 N.am      21 UNK        -0.5000 
    115 CA        -5.3521  -16.6637  -53.3513 C.3       21 UNK         0.1400 
    116 CB        -6.8276  -16.6403  -53.7793 C.3       21 UNK        -0.1800 
    117 C         -4.6243  -17.8679  -53.9902 C.2       21 UNK         0.5000 
    118 O         -4.1301  -17.7360  -55.1099 O.2       21 UNK        -0.5000 
    119 N         -4.5517  -18.9889  -53.2565 N.am      22 UNK        -0.5000 
    120 CA        -3.8989  -20.2575  -53.6043 C.3       22 UNK         0.1400 
    121 C         -4.6157  -21.0197  -54.7546 C.2       22 UNK         0.5000 
    122 N         -5.2747  -22.1313  -54.4545 N.am      22 UNK        -0.7600 
    123 O         -4.5596  -20.6373  -55.9205 O.2       22 UNK        -0.5000 
    124 C124       -2.3733  -20.0876  -53.8366 C.3       23 UNK        -0.0398 
    125 S125       -1.4464  -21.6312  -53.5525 S.3       23 UNK        -0.2404 
    126 C126        0.2228  -21.1363  -54.0789 C.3       23 UNK        -0.0205 
    127 H127        6.8011  -17.2693  -45.7375 H         1 UNK         0.0600 
    128 H128        6.9364  -17.6664  -47.4534 H         1 UNK         0.0600 
    129 H129        6.1198  -18.7797  -46.3528 H         1 UNK         0.0600 
    130 H130        5.4992  -16.5090  -48.7085 H         1 UNK         0.3000 
    131 H131        2.7057  -16.3113  -47.9998 H         1 UNK         0.0600 
    132 H132        3.9868  -16.4839  -50.4354 H         1 UNK         0.0800 
    133 H133        3.7481  -14.7766  -50.3946 H         1 UNK         0.0800 
    134 H134        2.7750  -16.4603  -52.5620 H         1 UNK         0.0800 
    135 H135        1.0441  -16.3904  -52.7420 H         1 UNK         0.0800 
    136 H136        0.4383  -18.4357  -53.7168 H         1 UNK         0.1150 
    137 H137        1.7287  -22.1654  -52.0752 H         1 UNK         0.1150 
    138 H138        3.1518  -18.5024  -50.3945 H         1 UNK         0.1150 
    139 H139        2.9107  -22.2277  -49.9857 H         1 UNK         0.0800 
    140 H140        4.3221  -21.4214  -50.6017 H         1 UNK         0.0800 
    141 H141        1.3867  -19.6411  -48.6026 H         1 UNK         0.0800 
    142 H142        2.1357  -19.4361  -47.0605 H         1 UNK         0.0800 
    143 H143        1.9968  -22.1185  -46.9099 H         1 UNK         0.0600 
    144 H144        0.3735  -20.0957  -45.8706 H         1 UNK         0.3000 
    145 H145       -2.0208  -22.0888  -44.1087 H         1 UNK         0.0600 
    146 H146       -1.2126  -20.5582  -42.3200 H         1 UNK         0.0600 
    147 H147        0.2474  -20.2161  -43.2449 H         1 UNK         0.0600 
    148 H148       -0.0477  -21.8362  -42.6334 H         1 UNK         0.0600 
    149 H149       -1.7364  -19.2578  -44.4967 H         1 UNK         0.3000 
    150 H150       -3.7241  -19.0388  -47.4483 H         1 UNK         0.0600 
    151 H151       -5.4151  -19.0774  -45.6585 H         1 UNK         0.0600 
    152 H152       -4.9630  -17.4155  -46.0089 H         1 UNK         0.0600 
    153 H153       -4.3447  -18.2168  -44.5654 H         1 UNK         0.0600 
    154 H154       -2.3267  -17.1880  -45.6920 H         1 UNK         0.3000 
    155 H155        0.6479  -17.1393  -47.6698 H         1 UNK         0.0600 
    156 H156       -1.0324  -15.7088  -48.9216 H         1 UNK         0.0600 
    157 H157        0.0925  -14.7609  -47.9698 H         1 UNK         0.0600 
    158 H158       -1.5477  -15.0169  -47.3854 H         1 UNK         0.0600 
    159 H159       -0.0706  -15.4830  -45.4995 H         1 UNK         0.3000 
    160 H160        0.5978  -17.6784  -42.7863 H         1 UNK         0.0600 
    161 H161        2.1590  -15.2470  -43.7924 H         1 UNK         0.0600 
    162 H162        2.8505  -16.8309  -43.4652 H         1 UNK         0.0600 
    163 H163        2.1720  -15.8859  -42.1494 H         1 UNK         0.0600 
    164 H164       -0.0894  -14.9886  -42.6659 H         1 UNK         0.3000 
    165 H165       -2.7448  -14.3298  -43.4093 H         1 UNK         0.0600 
    166 H166       -4.7417  -14.7740  -41.9580 H         1 UNK         0.0600 
    167 H167       -4.5391  -15.9998  -43.1979 H         1 UNK         0.0600 
    168 H168       -4.0820  -16.3548  -41.5383 H         1 UNK         0.0600 
    169 H169       -1.9588  -13.3227  -41.6251 H         1 UNK         0.3000 
    170 H170       -1.8526  -13.4899  -38.5884 H         1 UNK         0.0600 
    171 H171        0.7990  -14.9537  -39.0568 H         1 UNK         0.0600 
    172 H172        0.4884  -13.8249  -37.7383 H         1 UNK         0.0600 
    173 H173       -0.4043  -15.3324  -37.8326 H         1 UNK         0.0600 
    174 H174       -0.9461  -11.7485  -39.5875 H         1 UNK         0.3000 
    175 H175        0.0815  -10.4120  -40.8981 H         1 UNK         0.0600 
    176 H176        2.8499  -11.4561  -41.7095 H         1 UNK         0.0600 
    177 H177        2.3925   -9.7640  -41.5107 H         1 UNK         0.0600 
    178 H178        2.4268  -10.8350  -40.1185 H         1 UNK         0.0600 
    179 H179        1.1937  -10.8303  -43.4443 H         1 UNK         0.3000 
    180 H180       -1.5408  -11.9130  -45.3277 H         1 UNK         0.0600 
    181 H181       -1.3941   -9.7173  -46.4804 H         1 UNK         0.0600 
    182 H182       -0.6075   -9.0025  -45.0723 H         1 UNK         0.0600 
    183 H183       -2.2738   -9.5578  -44.9688 H         1 UNK         0.0600 
    184 H184        1.0049  -10.6565  -45.9186 H         1 UNK         0.3000 
    185 H185        2.5494  -11.9842  -47.0062 H         1 UNK         0.0600 
    186 H186        3.4041  -13.3227  -44.3656 H         1 UNK         0.0600 
    187 H187        4.4928  -12.5740  -45.5294 H         1 UNK         0.0600 
    188 H188        3.3411  -11.5886  -44.6473 H         1 UNK         0.0600 
    189 H189        1.9483  -14.7678  -46.6088 H         1 UNK         0.3000 
    190 H190       -0.8850  -20.5795  -48.4261 H         1 UNK         0.3000 
    191 H191       -1.0471  -22.1546  -50.7169 H         1 UNK         0.0600 
    192 H192       -3.1839  -20.6761  -49.1033 H         1 UNK         0.0600 
    193 H193       -3.5064  -21.4188  -50.6511 H         1 UNK         0.0600 
    194 H194       -2.3359  -20.1057  -50.5403 H         1 UNK         0.0600 
    195 H195       -2.7368  -22.6900  -47.5728 H         1 UNK         0.3000 
    196 H196       -4.0891  -25.0417  -48.3201 H         1 UNK         0.0600 
    197 H197       -4.6937  -23.6949  -46.3417 H         1 UNK         0.0600 
    198 H198       -3.1641  -24.0909  -45.5583 H         1 UNK         0.0600 
    199 H199       -4.3631  -25.3484  -45.8463 H         1 UNK         0.0600 
    200 H200       -0.7775  -24.6329  -47.0513 H         1 UNK         0.3000 
    201 H201       -0.2762  -27.4618  -46.6951 H         1 UNK         0.0600 
    202 H202        0.9626  -25.7626  -45.4002 H         1 UNK         0.0600 
    203 H203        1.6310  -25.0709  -46.8756 H         1 UNK         0.0600 
    204 H204        2.0803  -26.6992  -46.3810 H         1 UNK         0.0600 
    205 H205        0.5296  -25.0557  -49.2471 H         1 UNK         0.3000 
    206 H206        2.0489  -26.8941  -50.8385 H         1 UNK         0.0600 
    207 H207        2.4558  -24.4562  -50.8442 H         1 UNK         0.0600 
    208 H208        2.0509  -24.9941  -52.4681 H         1 UNK         0.0600 
    209 H209        0.8404  -24.1640  -51.4943 H         1 UNK         0.0600 
    210 H210       -1.3460  -25.7388  -51.0294 H         1 UNK         0.3000 
    211 H211       -2.0141  -27.8041  -53.0344 H         1 UNK         0.0600 
    212 H212       -2.3220  -24.7770  -53.4757 H         1 UNK         0.0600 
    213 H213       -3.0900  -26.0184  -54.4675 H         1 UNK         0.0600 
    214 H214       -1.3412  -25.8850  -54.4242 H         1 UNK         0.0600 
    215 H215       -4.0519  -25.0231  -52.4241 H         1 UNK         0.3000 
    216 H216       -5.5173  -26.0365  -50.2124 H         1 UNK         0.0600 
    217 H217       -7.6353  -26.5700  -51.4800 H         1 UNK         0.0600 
    218 H218       -6.3603  -27.6763  -51.9427 H         1 UNK         0.0600 
    219 H219       -6.7904  -26.3390  -53.0055 H         1 UNK         0.0600 
    220 H220       -7.6253  -24.7424  -50.1007 H         1 UNK         0.3000 
    221 H221       -8.8082  -22.9111  -49.9644 H         1 UNK         0.0600 
    222 H222       -7.3331  -21.6556  -52.3348 H         1 UNK         0.0600 
    223 H223       -8.6212  -22.8442  -52.5223 H         1 UNK         0.0600 
    224 H224       -8.9567  -21.3005  -51.7669 H         1 UNK         0.0600 
    225 H225       -8.3702  -20.2375  -50.1421 H         1 UNK         0.3000 
    226 H226       -6.6284  -19.6875  -47.8512 H         1 UNK         0.0600 
    227 H227       -8.9829  -18.7752  -48.0423 H         1 UNK         0.0600 
    228 H228       -7.7895  -17.5085  -47.8677 H         1 UNK         0.0600 
    229 H229       -8.4883  -17.8399  -49.4508 H         1 UNK         0.0600 
    230 H230       -5.9107  -17.0740  -48.4068 H         1 UNK         0.3000 
    231 H231       -3.3600  -17.3540  -49.3980 H         1 UNK         0.0600 
    232 H232       -3.3274  -14.8257  -49.2229 H         1 UNK         0.0600 
    233 H233       -4.0391  -15.6002  -47.8164 H         1 UNK         0.0600 
    234 H234       -5.0725  -14.8402  -49.0279 H         1 UNK         0.0600 
    235 H235       -6.1277  -16.8982  -51.3939 H         1 UNK         0.3000 
    236 H236       -4.8731  -15.7537  -53.7185 H         1 UNK         0.0600 
    237 H237       -7.3641  -17.5196  -53.4204 H         1 UNK         0.0600 
    238 H238       -7.3363  -15.7553  -53.3965 H         1 UNK         0.0600 
    239 H239       -6.9180  -16.6216  -54.8662 H         1 UNK         0.0600 
    240 H240       -4.9717  -18.9829  -52.3295 H         1 UNK         0.3000 
    241 H241       -4.0232  -20.8601  -52.7066 H         1 UNK         0.0600 
    242 H242       -5.7338  -22.6398  -55.1926 H         1 UNK         0.3800 
    243 H243       -5.3072  -22.4954  -53.5035 H         1 UNK         0.3800 
    244 H244       -2.1684  -19.7109  -54.8400 H         1 UNK         0.0800 
    245 H245       -1.9756  -19.3440  -53.1443 H         1 UNK         0.0800 
    246 H246        0.1632  -20.5405  -54.9909 H         1 UNK         0.0800 
    247 H247        0.7777  -22.0363  -54.3483 H         1 UNK         0.0800 
@<TRIPOS>BOND
     1    1    2 1    
     2    1  127 1    
     3    1  128 1    
     4    1  129 1    
     5    2    3 2    
     6    2    4 am   BACKBONE|DICT|INTERRES
     7    4    5 1    
     8    4  130 1    
     9    5    6 1    
    10    5   65 1    
    11    5  131 1    
    12    6    7 1    
    13    6  132 1    
    14    6  133 1    
    15    7    8 1    
    16    8    9 1    
    17    8  134 1    
    18    8  135 1    
    19    9   10 ar   
    20    9   14 ar   
    21   10   11 ar   
    22   10  136 1    
    23   11   12 ar   
    24   11  126 1    
    25   12   13 ar   
    26   12  137 1    
    27   13   14 ar   
    28   13   15 1    
    29   14  138 1    
    30   15   16 1    
    31   15  139 1    
    32   15  140 1    
    33   16   17 1    
    34   17   18 1    
    35   17  141 1    
    36   17  142 1    
    37   18   19 1    
    38   18   67 1    
    39   18  143 1    
    40   19   20 am   BACKBONE|DICT|INTERRES
    41   19  144 1    
    42   20   21 2    
    43   20   22 1    
    44   22   23 1    
    45   22   24 1    
    46   22  145 1    
    47   23  146 1    
    48   23  147 1    
    49   23  148 1    
    50   24   25 am   BACKBONE|DICT|INTERRES
    51   24  149 1    
    52   25   26 2    
    53   25   27 1    
    54   27   28 1    
    55   27   29 1    
    56   27  150 1    
    57   28  151 1    
    58   28  152 1    
    59   28  153 1    
    60   29   30 am   BACKBONE|DICT|INTERRES
    61   29  154 1    
    62   30   31 2    
    63   30   32 1    
    64   32   33 1    
    65   32   34 1    
    66   32  155 1    
    67   33  156 1    
    68   33  157 1    
    69   33  158 1    
    70   34   35 am   BACKBONE|DICT|INTERRES
    71   34  159 1    
    72   35   36 2    
    73   35   37 1    
    74   37   38 1    
    75   37   39 1    
    76   37  160 1    
    77   38  161 1    
    78   38  162 1    
    79   38  163 1    
    80   39   40 am   BACKBONE|DICT|INTERRES
    81   39  164 1    
    82   40   41 2    
    83   40   42 1    
    84   42   43 1    
    85   42   44 1    
    86   42  165 1    
    87   43  166 1    
    88   43  167 1    
    89   43  168 1    
    90   44   45 am   BACKBONE|DICT|INTERRES
    91   44  169 1    
    92   45   46 2    
    93   45   47 1    
    94   47   48 1    
    95   47   49 1    
    96   47  170 1    
    97   48  171 1    
    98   48  172 1    
    99   48  173 1    
   100   49   50 am   BACKBONE|DICT|INTERRES
   101   49  174 1    
   102   50   51 2    
   103   50   52 1    
   104   52   53 1    
   105   52   54 1    
   106   52  175 1    
   107   53  176 1    
   108   53  177 1    
   109   53  178 1    
   110   54   55 am   BACKBONE|DICT|INTERRES
   111   54  179 1    
   112   55   56 2    
   113   55   57 1    
   114   57   58 1    
   115   57   59 1    
   116   57  180 1    
   117   58  181 1    
   118   58  182 1    
   119   58  183 1    
   120   59   60 am   BACKBONE|DICT|INTERRES
   121   59  184 1    
   122   60   61 2    
   123   60   62 1    
   124   62   63 1    
   125   62   64 1    
   126   62  185 1    
   127   63  186 1    
   128   63  187 1    
   129   63  188 1    
   130   64   65 am   BACKBONE|DICT|INTERRES
   131   64  189 1    
   132   65   66 2    
   133   67   68 2    
   134   67   69 am   BACKBONE|DICT|INTERRES
   135   69   70 1    
   136   69  190 1    
   137   70   71 1    
   138   70   72 1    
   139   70  191 1    
   140   71  192 1    
   141   71  193 1    
   142   71  194 1    
   143   72   73 2    
   144   72   74 am   BACKBONE|DICT|INTERRES
   145   74   75 1    
   146   74  195 1    
   147   75   76 1    
   148   75   77 1    
   149   75  196 1    
   150   76  197 1    
   151   76  198 1    
   152   76  199 1    
   153   77   78 2    
   154   77   79 am   BACKBONE|DICT|INTERRES
   155   79   80 1    
   156   79  200 1    
   157   80   81 1    
   158   80   82 1    
   159   80  201 1    
   160   81  202 1    
   161   81  203 1    
   162   81  204 1    
   163   82   83 2    
   164   82   84 am   BACKBONE|DICT|INTERRES
   165   84   85 1    
   166   84  205 1    
   167   85   86 1    
   168   85   87 1    
   169   85  206 1    
   170   86  207 1    
   171   86  208 1    
   172   86  209 1    
   173   87   88 2    
   174   87   89 am   BACKBONE|DICT|INTERRES
   175   89   90 1    
   176   89  210 1    
   177   90   91 1    
   178   90   92 1    
   179   90  211 1    
   180   91  212 1    
   181   91  213 1    
   182   91  214 1    
   183   92   93 2    
   184   92   94 am   BACKBONE|DICT|INTERRES
   185   94   95 1    
   186   94  215 1    
   187   95   96 1    
   188   95   97 1    
   189   95  216 1    
   190   96  217 1    
   191   96  218 1    
   192   96  219 1    
   193   97   98 2    
   194   97   99 am   BACKBONE|DICT|INTERRES
   195   99  100 1    
   196   99  220 1    
   197  100  101 1    
   198  100  102 1    
   199  100  221 1    
   200  101  222 1    
   201  101  223 1    
   202  101  224 1    
   203  102  103 2    
   204  102  104 am   BACKBONE|DICT|INTERRES
   205  104  105 1    
   206  104  225 1    
   207  105  106 1    
   208  105  107 1    
   209  105  226 1    
   210  106  227 1    
   211  106  228 1    
   212  106  229 1    
   213  107  108 2    
   214  107  109 am   BACKBONE|DICT|INTERRES
   215  109  110 1    
   216  109  230 1    
   217  110  111 1    
   218  110  112 1    
   219  110  231 1    
   220  111  232 1    
   221  111  233 1    
   222  111  234 1    
   223  112  113 2    
   224  112  114 am   BACKBONE|DICT|INTERRES
   225  114  115 1    
   226  114  235 1    
   227  115  116 1    
   228  115  117 1    
   229  115  236 1    
   230  116  237 1    
   231  116  238 1    
   232  116  239 1    
   233  117  118 2    
   234  117  119 am   BACKBONE|DICT|INTERRES
   235  119  120 1    
   236  119  240 1    
   237  120  121 1    
   238  120  124 1    
   239  120  241 1    
   240  121  122 am   BACKBONE|DICT|INTERRES
   241  121  123 2    
   242  122  242 1    
   243  122  243 1    
   244  124  125 1    
   245  124  244 1    
   246  124  245 1    
   247  125  126 1    
   248  126  246 1    
   249  126  247 1    
@<TRIPOS>SUBSTRUCTURE
     1 UNK         1 GROUP             0       ****    0 ROOT    
