@<TRIPOS>MOLECULE
3R540
247   249    1
SMALL
USER_CHARGES


@<TRIPOS>ATOM
      1 CA         -1.0221  -19.5865  -49.2566 C.3       0 UNK        -0.1800 
      2 C          -0.5171  -18.4285  -50.1017 C.2       0 UNK         0.5000 
      3 O          -0.7546  -18.4022  -51.3057 O.2       0 UNK        -0.5000 
      4 N           0.1744  -17.4696  -49.4774 N.am      1 UNK        -0.5000 
      5 CA          0.8543  -16.3446  -50.1326 C.3       1 UNK         0.1400 
      6 C6          1.8711  -15.6430  -49.1864 C.3       23 UNK        -0.0398 
      7 S7          2.8316  -16.7396  -48.0875 S.3       23 UNK        -0.2404 
      8 C8          4.2533  -17.1843  -49.1258 C.3       23 UNK        -0.0205 
      9 C9          3.8971  -18.2457  -50.1544 C.ar      23 UNK        -0.0193 
     10 C10         4.0478  -17.9859  -51.5176 C.ar      23 UNK        -0.1150 
     11 C11         3.7691  -18.9761  -52.4627 C.ar      23 UNK        -0.0193 
     12 C12         3.3344  -20.2340  -52.0343 C.ar      23 UNK        -0.1150 
     13 C13         3.1720  -20.5089  -50.6716 C.ar      23 UNK        -0.0193 
     14 C14         3.4494  -19.5032  -49.7394 C.ar      23 UNK        -0.1150 
     15 C15         2.6948  -21.8931  -50.2384 C.3       23 UNK        -0.0205 
     16 S16         3.5004  -22.5223  -48.7254 S.3       23 UNK        -0.2404 
     17 C17         2.2517  -22.1838  -47.4317 C.3       23 UNK        -0.0398 
     18 CA          2.1965  -23.3035  -46.3606 C.3       11 UNK         0.1400 
     19 N           1.5488  -22.8363  -45.1288 N.am      11 UNK        -0.5000 
     20 C           1.5866  -23.4894  -43.9561 C.2       10 UNK         0.5000 
     21 O           2.2139  -24.5375  -43.7923 O.2       10 UNK        -0.5000 
     22 CA          0.8364  -22.8860  -42.7479 C.3       10 UNK         0.1400 
     23 CB          1.8309  -22.4238  -41.6703 C.3       10 UNK        -0.1800 
     24 N          -0.0344  -21.7620  -43.0858 N.am      10 UNK        -0.5000 
     25 C          -1.2476  -21.8598  -43.6435 C.2       9 UNK         0.5000 
     26 O          -1.8047  -22.9303  -43.8828 O.2       9 UNK        -0.5000 
     27 CA         -1.9558  -20.5374  -44.0096 C.3       9 UNK         0.1400 
     28 CB         -2.9798  -20.1595  -42.9286 C.3       9 UNK        -0.1800 
     29 N          -1.0440  -19.4085  -44.2274 N.am      9 UNK        -0.5000 
     30 C          -0.0961  -19.3656  -45.1750 C.2       8 UNK         0.5000 
     31 O           0.1102  -20.2769  -45.9743 O.2       8 UNK        -0.5000 
     32 CA          0.8133  -18.1282  -45.1870 C.3       8 UNK         0.1400 
     33 CB          0.1084  -16.9155  -45.8170 C.3       8 UNK        -0.1800 
     34 N           1.2639  -17.7971  -43.8371 N.am      8 UNK        -0.5000 
     35 C           2.2004  -18.4844  -43.1670 C.2       7 UNK         0.5000 
     36 O           2.8380  -19.4196  -43.6500 O.2       7 UNK        -0.5000 
     37 CA          2.4492  -18.0775  -41.7016 C.3       7 UNK         0.1400 
     38 CB          3.5631  -17.0231  -41.6192 C.3       7 UNK        -0.1800 
     39 N           1.2501  -17.5590  -41.0409 N.am      7 UNK        -0.5000 
     40 C           0.1634  -18.2873  -40.7457 C.2       6 UNK         0.5000 
     41 O           0.0743  -19.4962  -40.9552 O.2       6 UNK        -0.5000 
     42 CA         -1.0447  -17.5194  -40.1721 C.3       6 UNK         0.1400 
     43 CB         -0.9628  -17.4495  -38.6402 C.3       6 UNK        -0.1800 
     44 N          -1.1710  -16.1623  -40.7166 N.am      6 UNK        -0.5000 
     45 C          -1.3954  -15.8894  -42.0083 C.2       5 UNK         0.5000 
     46 O          -1.5411  -16.7619  -42.8671 O.2       5 UNK        -0.5000 
     47 CA         -1.3472  -14.4086  -42.4153 C.3       5 UNK         0.1400 
     48 CB          0.1098  -13.9940  -42.6804 C.3       5 UNK        -0.1800 
     49 N          -2.1142  -14.1692  -43.6361 N.am      5 UNK        -0.5000 
     50 C          -3.3594  -13.6792  -43.6865 C.2       4 UNK         0.5000 
     51 O          -4.0222  -13.4096  -42.6832 O.2       4 UNK        -0.5000 
     52 CA         -3.9634  -13.4505  -45.0943 C.3       4 UNK         0.1400 
     53 CB         -5.0060  -12.3127  -45.1186 C.3       4 UNK        -0.1800 
     54 N          -2.9573  -13.2646  -46.1528 N.am      4 UNK        -0.5000 
     55 C          -2.0696  -12.2615  -46.2606 C.2       3 UNK         0.5000 
     56 O          -2.0000  -11.3186  -45.4721 O.2       3 UNK        -0.5000 
     57 CA         -1.0635  -12.3327  -47.4258 C.3       3 UNK         0.1400 
     58 CB          0.3375  -12.6736  -46.8911 C.3       3 UNK        -0.1800 
     59 N          -1.4271  -13.3236  -48.4423 N.am      3 UNK        -0.5000 
     60 C          -2.1687  -13.0783  -49.5326 C.2       2 UNK         0.5000 
     61 O          -2.6592  -11.9775  -49.7863 O.2       2 UNK        -0.5000 
     62 CA         -2.4138  -14.2739  -50.4810 C.3       2 UNK         0.1400 
     63 CB         -2.6452  -13.8597  -51.9488 C.3       2 UNK        -0.1800 
     64 N          -1.3943  -15.3258  -50.3418 N.am      2 UNK        -0.5000 
     65 C          -0.1028  -15.2729  -50.7104 C.2       1 UNK         0.5000 
     66 O           0.3698  -14.3796  -51.4129 O.2       1 UNK        -0.5000 
     67 C           1.5341  -24.5933  -46.9021 C.2       11 UNK         0.5000 
     68 O           0.3354  -24.8029  -46.7139 O.2       11 UNK        -0.5000 
     69 N           2.3204  -25.4299  -47.5924 N.am      12 UNK        -0.5000 
     70 CA          1.8811  -26.7028  -48.1726 C.3       12 UNK         0.1400 
     71 CB          3.1105  -27.4657  -48.6890 C.3       12 UNK        -0.1800 
     72 C           0.8320  -26.5543  -49.2935 C.2       12 UNK         0.5000 
     73 O           0.0131  -27.4555  -49.4754 O.2       12 UNK        -0.5000 
     74 N           0.8658  -25.4228  -50.0108 N.am      13 UNK        -0.5000 
     75 CA         -0.0521  -25.0976  -51.1064 C.3       13 UNK         0.1400 
     76 CB          0.7434  -24.4692  -52.2643 C.3       13 UNK        -0.1800 
     77 C          -1.2089  -24.1801  -50.6604 C.2       13 UNK         0.5000 
     78 O          -1.8681  -23.5923  -51.5180 O.2       13 UNK        -0.5000 
     79 N          -1.4469  -24.0554  -49.3458 N.am      14 UNK        -0.5000 
     80 CA         -2.4937  -23.2267  -48.7393 C.3       14 UNK         0.1400 
     81 CB         -2.1384  -22.9839  -47.2632 C.3       14 UNK        -0.1800 
     82 C          -3.9172  -23.8059  -48.9220 C.2       14 UNK         0.5000 
     83 O          -4.6133  -24.0822  -47.9418 O.2       14 UNK        -0.5000 
     84 N          -4.3297  -23.9860  -50.1822 N.am      15 UNK        -0.5000 
     85 CA         -5.6845  -24.3470  -50.5926 C.3       15 UNK         0.1400 
     86 CB         -5.6764  -24.7051  -52.0869 C.3       15 UNK        -0.1800 
     87 C          -6.6488  -23.1834  -50.3010 C.2       15 UNK         0.5000 
     88 O          -6.4705  -22.0995  -50.8564 O.2       15 UNK        -0.5000 
     89 N          -7.6226  -23.4221  -49.4118 N.am      16 UNK        -0.5000 
     90 CA         -8.4972  -22.4156  -48.7931 C.3       16 UNK         0.1400 
     91 CB         -9.3852  -21.7021  -49.8359 C.3       16 UNK        -0.1800 
     92 C          -7.7089  -21.4416  -47.8876 C.2       16 UNK         0.5000 
     93 O          -8.0129  -20.2480  -47.8376 O.2       16 UNK        -0.5000 
     94 N          -6.7134  -21.9926  -47.1770 N.am      17 UNK        -0.5000 
     95 CA         -5.7976  -21.3238  -46.2545 C.3       17 UNK         0.1400 
     96 CB         -6.5561  -20.7593  -45.0308 C.3       17 UNK        -0.1800 
     97 C          -4.8933  -20.3019  -46.9739 C.2       17 UNK         0.5000 
     98 O          -4.4380  -20.5616  -48.0885 O.2       17 UNK        -0.5000 
     99 N          -4.6129  -19.1732  -46.3125 N.am      18 UNK        -0.5000 
    100 CA        -3.6725  -18.1383  -46.7439 C.3       18 UNK         0.1400 
    101 CB        -3.5733  -17.0905  -45.6305 C.3       18 UNK        -0.1800 
    102 C         -4.0157  -17.4461  -48.0753 C.2       18 UNK         0.5000 
    103 O         -3.1288  -16.8379  -48.6709 O.2       18 UNK        -0.5000 
    104 N         -5.2784  -17.5372  -48.5078 N.am      19 UNK        -0.5000 
    105 CA        -5.8288  -16.8915  -49.6999 C.3       19 UNK         0.1400 
    106 CB        -7.3468  -16.7447  -49.4992 C.3       19 UNK        -0.1800 
    107 C         -5.5184  -17.6179  -51.0276 C.2       19 UNK         0.5000 
    108 O         -6.0159  -17.1834  -52.0669 O.2       19 UNK        -0.5000 
    109 N         -4.7400  -18.7095  -50.9846 N.am      20 UNK        -0.5000 
    110 CA        -4.4789  -19.6133  -52.1118 C.3       20 UNK         0.1400 
    111 CB        -3.6142  -20.7845  -51.6273 C.3       20 UNK        -0.1800 
    112 C         -3.8154  -18.9783  -53.3495 C.2       20 UNK         0.5000 
    113 O         -3.9673  -19.5223  -54.4444 O.2       20 UNK        -0.5000 
    114 N         -3.0618  -17.8845  -53.1572 N.am      21 UNK        -0.5000 
    115 CA        -2.2623  -17.1764  -54.1669 C.3       21 UNK         0.1400 
    116 CB        -3.1792  -16.4292  -55.1570 C.3       21 UNK        -0.1800 
    117 C         -1.2466  -18.1093  -54.8605 C.2       21 UNK         0.5000 
    118 O         -1.1680  -18.1552  -56.0895 O.2       21 UNK        -0.5000 
    119 N         -0.5260  -18.8690  -54.0291 N.am      22 UNK        -0.5000 
    120 CA         0.4219  -19.9390  -54.3736 C.3       22 UNK         0.1400 
    121 C         -0.2353  -21.2524  -54.8980 C.2       22 UNK         0.5000 
    122 N         -1.5561  -21.3707  -54.9706 N.am      22 UNK        -0.7600 
    123 O          0.4708  -22.2033  -55.2214 O.2       22 UNK        -0.5000 
    124 C124        1.5957  -19.4806  -55.2858 C.3       23 UNK        -0.0398 
    125 S125        2.4692  -17.9858  -54.6977 S.3       23 UNK        -0.2404 
    126 C126        3.9694  -18.6847  -53.9413 C.3       23 UNK        -0.0205 
    127 H127       -0.6301  -20.5298  -49.6364 H         1 UNK         0.0600 
    128 H128       -2.1098  -19.6277  -49.2844 H         1 UNK         0.0600 
    129 H129       -0.7168  -19.4839  -48.2189 H         1 UNK         0.0600 
    130 H130        0.3740  -17.5677  -48.4940 H         1 UNK         0.3000 
    131 H131        1.4109  -16.7563  -50.9771 H         1 UNK         0.0600 
    132 H132        1.3525  -14.9512  -48.5216 H         1 UNK         0.0800 
    133 H133        2.5626  -15.0290  -49.7662 H         1 UNK         0.0800 
    134 H134        4.6590  -16.2890  -49.5992 H         1 UNK         0.0800 
    135 H135        5.0438  -17.5754  -48.4840 H         1 UNK         0.0800 
    136 H136        4.3941  -17.0158  -51.8459 H         1 UNK         0.1150 
    137 H137        3.1270  -21.0019  -52.7663 H         1 UNK         0.1150 
    138 H138        3.3298  -19.6947  -48.6833 H         1 UNK         0.1150 
    139 H139        1.6099  -21.8845  -50.1310 H         1 UNK         0.0800 
    140 H140        2.9237  -22.6084  -51.0288 H         1 UNK         0.0800 
    141 H141        1.2665  -22.0199  -47.8716 H         1 UNK         0.0800 
    142 H142        2.5293  -21.2389  -46.9623 H         1 UNK         0.0800 
    143 H143        3.2242  -23.5528  -46.0867 H         1 UNK         0.0600 
    144 H144        0.9890  -21.9949  -45.2075 H         1 UNK         0.3000 
    145 H145        0.2228  -23.6817  -42.3205 H         1 UNK         0.0600 
    146 H146        1.3112  -22.0511  -40.7873 H         1 UNK         0.0600 
    147 H147        2.4700  -23.2459  -41.3458 H         1 UNK         0.0600 
    148 H148        2.4802  -21.6287  -42.0374 H         1 UNK         0.0600 
    149 H149        0.3129  -20.8389  -42.8626 H         1 UNK         0.3000 
    150 H150       -2.4924  -20.7079  -44.9441 H         1 UNK         0.0600 
    151 H151       -3.7030  -20.9621  -42.7789 H         1 UNK         0.0600 
    152 H152       -3.5398  -19.2656  -43.2001 H         1 UNK         0.0600 
    153 H153       -2.4963  -19.9725  -41.9697 H         1 UNK         0.0600 
    154 H154       -1.1578  -18.6050  -43.6174 H         1 UNK         0.3000 
    155 H155        1.6856  -18.3674  -45.7988 H         1 UNK         0.0600 
    156 H156       -0.7150  -16.5565  -45.2065 H         1 UNK         0.0600 
    157 H157       -0.3020  -17.1604  -46.7952 H         1 UNK         0.0600 
    158 H158        0.8030  -16.0862  -45.9472 H         1 UNK         0.0600 
    159 H159        0.7457  -17.0820  -43.3490 H         1 UNK         0.3000 
    160 H160        2.7775  -18.9681  -41.1613 H         1 UNK         0.0600 
    161 H161        3.2822  -16.0991  -42.1264 H         1 UNK         0.0600 
    162 H162        4.4802  -17.3873  -42.0843 H         1 UNK         0.0600 
    163 H163        3.8003  -16.7798  -40.5833 H         1 UNK         0.0600 
    164 H164        1.2406  -16.5739  -40.8230 H         1 UNK         0.3000 
    165 H165       -1.9461  -18.0739  -40.4408 H         1 UNK         0.0600 
    166 H166       -1.8515  -16.9794  -38.2187 H         1 UNK         0.0600 
    167 H167       -0.8891  -18.4483  -38.2077 H         1 UNK         0.0600 
    168 H168       -0.0923  -16.8826  -38.3077 H         1 UNK         0.0600 
    169 H169       -1.0478  -15.4008  -40.0646 H         1 UNK         0.3000 
    170 H170       -1.7407  -13.8032  -41.5960 H         1 UNK         0.0600 
    171 H171        0.7262  -14.1214  -41.7896 H         1 UNK         0.0600 
    172 H172        0.5610  -14.5828  -43.4803 H         1 UNK         0.0600 
    173 H173        0.1716  -12.9437  -42.9668 H         1 UNK         0.0600 
    174 H174       -1.6605  -14.4130  -44.5020 H         1 UNK         0.3000 
    175 H175       -4.4975  -14.3662  -45.3428 H         1 UNK         0.0600 
    176 H176       -4.5805  -11.3631  -44.7934 H         1 UNK         0.0600 
    177 H177       -5.4136  -12.1727  -46.1198 H         1 UNK         0.0600 
    178 H178       -5.8444  -12.5358  -44.4579 H         1 UNK         0.0600 
    179 H179       -2.9396  -13.9750  -46.8693 H         1 UNK         0.3000 
    180 H180       -1.0198  -11.3408  -47.8807 H         1 UNK         0.0600 
    181 H181        0.3672  -13.6616  -46.4310 H         1 UNK         0.0600 
    182 H182        0.6559  -11.9529  -46.1366 H         1 UNK         0.0600 
    183 H183        1.0794  -12.6490  -47.6894 H         1 UNK         0.0600 
    184 H184       -1.0737  -14.2589  -48.3134 H         1 UNK         0.3000 
    185 H185       -3.3479  -14.7171  -50.1385 H         1 UNK         0.0600 
    186 H186       -3.4954  -13.1821  -52.0323 H         1 UNK         0.0600 
    187 H187       -1.7835  -13.3479  -52.3763 H         1 UNK         0.0600 
    188 H188       -2.8702  -14.7257  -52.5679 H         1 UNK         0.0600 
    189 H189       -1.6966  -16.1135  -49.7746 H         1 UNK         0.3000 
    190 H190        3.2919  -25.1873  -47.7272 H         1 UNK         0.3000 
    191 H191        1.4244  -27.2923  -47.3748 H         1 UNK         0.0600 
    192 H192        3.8220  -27.6584  -47.8858 H         1 UNK         0.0600 
    193 H193        2.8244  -28.4323  -49.1060 H         1 UNK         0.0600 
    194 H194        3.6288  -26.9108  -49.4721 H         1 UNK         0.0600 
    195 H195        1.5656  -24.7325  -49.7817 H         1 UNK         0.3000 
    196 H196       -0.5079  -26.0137  -51.4870 H         1 UNK         0.0600 
    197 H197        0.1348  -24.4183  -53.1683 H         1 UNK         0.0600 
    198 H198        1.6307  -25.0543  -52.5066 H         1 UNK         0.0600 
    199 H199        1.0562  -23.4515  -52.0376 H         1 UNK         0.0600 
    200 H200       -0.8770  -24.5853  -48.6992 H         1 UNK         0.3000 
    201 H201       -2.4819  -22.2547  -49.2337 H         1 UNK         0.0600 
    202 H202       -1.1585  -22.5180  -47.1613 H         1 UNK         0.0600 
    203 H203       -2.1344  -23.9125  -46.6920 H         1 UNK         0.0600 
    204 H204       -2.8544  -22.3195  -46.7858 H         1 UNK         0.0600 
    205 H205       -3.6768  -23.7418  -50.9214 H         1 UNK         0.3000 
    206 H206       -5.9945  -25.2290  -50.0284 H         1 UNK         0.0600 
    207 H207       -5.0183  -25.5511  -52.2857 H         1 UNK         0.0600 
    208 H208       -6.6753  -24.9812  -52.4269 H         1 UNK         0.0600 
    209 H209       -5.3392  -23.8681  -52.7000 H         1 UNK         0.0600 
    210 H210       -7.6921  -24.3516  -49.0207 H         1 UNK         0.3000 
    211 H211       -9.1637  -22.9662  -48.1279 H         1 UNK         0.0600 
    212 H212       -8.8096  -21.0349  -50.4778 H         1 UNK         0.0600 
    213 H213      -10.1477  -21.0967  -49.3447 H         1 UNK         0.0600 
    214 H214       -9.9017  -22.4201  -50.4728 H         1 UNK         0.0600 
    215 H215       -6.4769  -22.9577  -47.3704 H         1 UNK         0.3000 
    216 H216       -5.1289  -22.1031  -45.8870 H         1 UNK         0.0600 
    217 H217       -5.8677  -20.4351  -44.2498 H         1 UNK         0.0600 
    218 H218       -7.1978  -21.5205  -44.5867 H         1 UNK         0.0600 
    219 H219       -7.1873  -19.9098  -45.2939 H         1 UNK         0.0600 
    220 H220       -5.0529  -19.0274  -45.4158 H         1 UNK         0.3000 
    221 H221       -2.6944  -18.6063  -46.8675 H         1 UNK         0.0600 
    222 H222       -4.5517  -16.6758  -45.3882 H         1 UNK         0.0600 
    223 H223       -3.1640  -17.5229  -44.7207 H         1 UNK         0.0600 
    224 H224       -2.9226  -16.2654  -45.9185 H         1 UNK         0.0600 
    225 H225       -5.9232  -18.0987  -47.9695 H         1 UNK         0.3000 
    226 H226       -5.4035  -15.8897  -49.7783 H         1 UNK         0.0600 
    227 H227       -7.5728  -16.1865  -48.5905 H         1 UNK         0.0600 
    228 H228       -7.8069  -16.2065  -50.3288 H         1 UNK         0.0600 
    229 H229       -7.8361  -17.7172  -49.4261 H         1 UNK         0.0600 
    230 H230       -4.4151  -19.0207  -50.0795 H         1 UNK         0.3000 
    231 H231       -5.4455  -20.0116  -52.4262 H         1 UNK         0.0600 
    232 H232       -3.9954  -21.1982  -50.6963 H         1 UNK         0.0600 
    233 H233       -2.5779  -20.4898  -51.4672 H         1 UNK         0.0600 
    234 H234       -3.6095  -21.5895  -52.3631 H         1 UNK         0.0600 
    235 H235       -2.9403  -17.5707  -52.2047 H         1 UNK         0.3000 
    236 H236       -1.6699  -16.4338  -53.6310 H         1 UNK         0.0600 
    237 H237       -2.5945  -15.8098  -55.8380 H         1 UNK         0.0600 
    238 H238       -3.7673  -17.1184  -55.7637 H         1 UNK         0.0600 
    239 H239       -3.8728  -15.7716  -54.6331 H         1 UNK         0.0600 
    240 H240       -0.6699  -18.7356  -53.0277 H         1 UNK         0.3000 
    241 H241        0.8553  -20.2235  -53.4154 H         1 UNK         0.0600 
    242 H242       -1.9508  -22.2379  -55.2966 H         1 UNK         0.3800 
    243 H243       -2.1692  -20.5977  -54.7455 H         1 UNK         0.3800 
    244 H244        2.3185  -20.2887  -55.4046 H         1 UNK         0.0800 
    245 H245        1.2282  -19.2728  -56.2914 H         1 UNK         0.0800 
    246 H246        4.2898  -19.5828  -54.4710 H         1 UNK         0.0800 
    247 H247        4.7815  -17.9662  -54.0625 H         1 UNK         0.0800 
@<TRIPOS>BOND
     1    1    2 1    
     2    1  127 1    
     3    1  128 1    
     4    1  129 1    
     5    2    3 2    
     6    2    4 am   BACKBONE|DICT|INTERRES
     7    4    5 1    
     8    4  130 1    
     9    5    6 1    
    10    5   65 1    
    11    5  131 1    
    12    6    7 1    
    13    6  132 1    
    14    6  133 1    
    15    7    8 1    
    16    8    9 1    
    17    8  134 1    
    18    8  135 1    
    19    9   10 ar   
    20    9   14 ar   
    21   10   11 ar   
    22   10  136 1    
    23   11   12 ar   
    24   11  126 1    
    25   12   13 ar   
    26   12  137 1    
    27   13   14 ar   
    28   13   15 1    
    29   14  138 1    
    30   15   16 1    
    31   15  139 1    
    32   15  140 1    
    33   16   17 1    
    34   17   18 1    
    35   17  141 1    
    36   17  142 1    
    37   18   19 1    
    38   18   67 1    
    39   18  143 1    
    40   19   20 am   BACKBONE|DICT|INTERRES
    41   19  144 1    
    42   20   21 2    
    43   20   22 1    
    44   22   23 1    
    45   22   24 1    
    46   22  145 1    
    47   23  146 1    
    48   23  147 1    
    49   23  148 1    
    50   24   25 am   BACKBONE|DICT|INTERRES
    51   24  149 1    
    52   25   26 2    
    53   25   27 1    
    54   27   28 1    
    55   27   29 1    
    56   27  150 1    
    57   28  151 1    
    58   28  152 1    
    59   28  153 1    
    60   29   30 am   BACKBONE|DICT|INTERRES
    61   29  154 1    
    62   30   31 2    
    63   30   32 1    
    64   32   33 1    
    65   32   34 1    
    66   32  155 1    
    67   33  156 1    
    68   33  157 1    
    69   33  158 1    
    70   34   35 am   BACKBONE|DICT|INTERRES
    71   34  159 1    
    72   35   36 2    
    73   35   37 1    
    74   37   38 1    
    75   37   39 1    
    76   37  160 1    
    77   38  161 1    
    78   38  162 1    
    79   38  163 1    
    80   39   40 am   BACKBONE|DICT|INTERRES
    81   39  164 1    
    82   40   41 2    
    83   40   42 1    
    84   42   43 1    
    85   42   44 1    
    86   42  165 1    
    87   43  166 1    
    88   43  167 1    
    89   43  168 1    
    90   44   45 am   BACKBONE|DICT|INTERRES
    91   44  169 1    
    92   45   46 2    
    93   45   47 1    
    94   47   48 1    
    95   47   49 1    
    96   47  170 1    
    97   48  171 1    
    98   48  172 1    
    99   48  173 1    
   100   49   50 am   BACKBONE|DICT|INTERRES
   101   49  174 1    
   102   50   51 2    
   103   50   52 1    
   104   52   53 1    
   105   52   54 1    
   106   52  175 1    
   107   53  176 1    
   108   53  177 1    
   109   53  178 1    
   110   54   55 am   BACKBONE|DICT|INTERRES
   111   54  179 1    
   112   55   56 2    
   113   55   57 1    
   114   57   58 1    
   115   57   59 1    
   116   57  180 1    
   117   58  181 1    
   118   58  182 1    
   119   58  183 1    
   120   59   60 am   BACKBONE|DICT|INTERRES
   121   59  184 1    
   122   60   61 2    
   123   60   62 1    
   124   62   63 1    
   125   62   64 1    
   126   62  185 1    
   127   63  186 1    
   128   63  187 1    
   129   63  188 1    
   130   64   65 am   BACKBONE|DICT|INTERRES
   131   64  189 1    
   132   65   66 2    
   133   67   68 2    
   134   67   69 am   BACKBONE|DICT|INTERRES
   135   69   70 1    
   136   69  190 1    
   137   70   71 1    
   138   70   72 1    
   139   70  191 1    
   140   71  192 1    
   141   71  193 1    
   142   71  194 1    
   143   72   73 2    
   144   72   74 am   BACKBONE|DICT|INTERRES
   145   74   75 1    
   146   74  195 1    
   147   75   76 1    
   148   75   77 1    
   149   75  196 1    
   150   76  197 1    
   151   76  198 1    
   152   76  199 1    
   153   77   78 2    
   154   77   79 am   BACKBONE|DICT|INTERRES
   155   79   80 1    
   156   79  200 1    
   157   80   81 1    
   158   80   82 1    
   159   80  201 1    
   160   81  202 1    
   161   81  203 1    
   162   81  204 1    
   163   82   83 2    
   164   82   84 am   BACKBONE|DICT|INTERRES
   165   84   85 1    
   166   84  205 1    
   167   85   86 1    
   168   85   87 1    
   169   85  206 1    
   170   86  207 1    
   171   86  208 1    
   172   86  209 1    
   173   87   88 2    
   174   87   89 am   BACKBONE|DICT|INTERRES
   175   89   90 1    
   176   89  210 1    
   177   90   91 1    
   178   90   92 1    
   179   90  211 1    
   180   91  212 1    
   181   91  213 1    
   182   91  214 1    
   183   92   93 2    
   184   92   94 am   BACKBONE|DICT|INTERRES
   185   94   95 1    
   186   94  215 1    
   187   95   96 1    
   188   95   97 1    
   189   95  216 1    
   190   96  217 1    
   191   96  218 1    
   192   96  219 1    
   193   97   98 2    
   194   97   99 am   BACKBONE|DICT|INTERRES
   195   99  100 1    
   196   99  220 1    
   197  100  101 1    
   198  100  102 1    
   199  100  221 1    
   200  101  222 1    
   201  101  223 1    
   202  101  224 1    
   203  102  103 2    
   204  102  104 am   BACKBONE|DICT|INTERRES
   205  104  105 1    
   206  104  225 1    
   207  105  106 1    
   208  105  107 1    
   209  105  226 1    
   210  106  227 1    
   211  106  228 1    
   212  106  229 1    
   213  107  108 2    
   214  107  109 am   BACKBONE|DICT|INTERRES
   215  109  110 1    
   216  109  230 1    
   217  110  111 1    
   218  110  112 1    
   219  110  231 1    
   220  111  232 1    
   221  111  233 1    
   222  111  234 1    
   223  112  113 2    
   224  112  114 am   BACKBONE|DICT|INTERRES
   225  114  115 1    
   226  114  235 1    
   227  115  116 1    
   228  115  117 1    
   229  115  236 1    
   230  116  237 1    
   231  116  238 1    
   232  116  239 1    
   233  117  118 2    
   234  117  119 am   BACKBONE|DICT|INTERRES
   235  119  120 1    
   236  119  240 1    
   237  120  121 1    
   238  120  124 1    
   239  120  241 1    
   240  121  122 am   BACKBONE|DICT|INTERRES
   241  121  123 2    
   242  122  242 1    
   243  122  243 1    
   244  124  125 1    
   245  124  244 1    
   246  124  245 1    
   247  125  126 1    
   248  126  246 1    
   249  126  247 1    
@<TRIPOS>SUBSTRUCTURE
     1 UNK         1 GROUP             0       ****    0 ROOT    
