@<TRIPOS>MOLECULE
3R540
247   249    1
SMALL
USER_CHARGES


@<TRIPOS>ATOM
      1 CA          5.6273  -10.4690  -46.4976 C.3       0 UNK        -0.1800 
      2 C           5.2106  -10.1797  -47.9387 C.2       0 UNK         0.5000 
      3 O           5.8363   -9.3471  -48.5910 O.2       0 UNK        -0.5000 
      4 N           4.1729  -10.8314  -48.4819 N.am      1 UNK        -0.5000 
      5 CA          3.3118  -11.8248  -47.8249 C.3       1 UNK         0.1400 
      6 C6          2.7183  -12.8341  -48.8345 C.3       23 UNK        -0.0398 
      7 S7          4.0097  -13.9413  -49.4991 S.3       23 UNK        -0.2404 
      8 C8          3.6059  -15.5113  -48.6588 C.3       23 UNK        -0.0205 
      9 C9          2.7133  -16.4280  -49.4906 C.ar      23 UNK        -0.0193 
     10 C10         1.5388  -15.9544  -50.0848 C.ar      23 UNK        -0.1150 
     11 C11         0.7082  -16.8045  -50.8237 C.ar      23 UNK        -0.0193 
     12 C12         1.0752  -18.1465  -50.9755 C.ar      23 UNK        -0.1150 
     13 C13         2.2533  -18.6334  -50.4001 C.ar      23 UNK        -0.0193 
     14 C14         3.0615  -17.7714  -49.6543 C.ar      23 UNK        -0.1150 
     15 C15         2.6795  -20.0798  -50.6088 C.3       23 UNK        -0.0205 
     16 S16         2.3902  -21.1047  -49.1332 S.3       23 UNK        -0.2404 
     17 C17         0.5789  -21.2786  -49.1856 C.3       23 UNK        -0.0398 
     18 CA          0.0760  -22.4274  -48.2792 C.3       11 UNK         0.1400 
     19 N           0.1742  -22.0999  -46.8533 N.am      11 UNK        -0.5000 
     20 C          -0.0977  -22.9461  -45.8493 C.2       10 UNK         0.5000 
     21 O          -0.4012  -24.1276  -46.0111 O.2       10 UNK        -0.5000 
     22 CA         -0.0858  -22.3654  -44.4245 C.3       10 UNK         0.1400 
     23 CB          1.3470  -22.2718  -43.8798 C.3       10 UNK        -0.1800 
     24 N          -0.7455  -21.0606  -44.3440 N.am      10 UNK        -0.5000 
     25 C          -2.0476  -20.8581  -44.5953 C.2       9 UNK         0.5000 
     26 O          -2.8354  -21.7610  -44.8715 O.2       9 UNK        -0.5000 
     27 CA         -2.5550  -19.4058  -44.5774 C.3       9 UNK         0.1400 
     28 CB         -2.8122  -18.9349  -43.1388 C.3       9 UNK        -0.1800 
     29 N          -1.6415  -18.4798  -45.2422 N.am      9 UNK        -0.5000 
     30 C          -1.3136  -18.5251  -46.5418 C.2       8 UNK         0.5000 
     31 O          -1.7818  -19.3358  -47.3448 O.2       8 UNK        -0.5000 
     32 CA         -0.2285  -17.5315  -46.9978 C.3       8 UNK         0.1400 
     33 CB         -0.8116  -16.1222  -47.1654 C.3       8 UNK        -0.1800 
     34 N           0.9006  -17.4739  -46.0679 N.am      8 UNK        -0.5000 
     35 C           1.6933  -18.5114  -45.7665 C.2       7 UNK         0.5000 
     36 O           1.5824  -19.6285  -46.2665 O.2       7 UNK        -0.5000 
     37 CA          2.7422  -18.2753  -44.6688 C.3       7 UNK         0.1400 
     38 CB          3.9686  -17.5384  -45.2288 C.3       7 UNK        -0.1800 
     39 N           2.1781  -17.5329  -43.5398 N.am      7 UNK        -0.5000 
     40 C           1.2947  -18.0536  -42.6729 C.2       6 UNK         0.5000 
     41 O           0.9046  -19.2192  -42.7207 O.2       6 UNK        -0.5000 
     42 CA          0.7163  -17.1171  -41.5933 C.3       6 UNK         0.1400 
     43 CB          1.6033  -17.1287  -40.3398 C.3       6 UNK        -0.1800 
     44 N           0.5512  -15.7389  -42.0528 N.am      6 UNK        -0.5000 
     45 C          -0.2426  -15.3573  -43.0627 C.2       5 UNK         0.5000 
     46 O          -1.0008  -16.1243  -43.6551 O.2       5 UNK        -0.5000 
     47 CA         -0.1371  -13.8891  -43.5236 C.3       5 UNK         0.1400 
     48 CB         -1.2972  -13.0597  -42.9548 C.3       5 UNK        -0.1800 
     49 N           1.1307  -13.2315  -43.1859 N.am      5 UNK        -0.5000 
     50 C           2.3467  -13.6332  -43.5835 C.2       4 UNK         0.5000 
     51 O           2.5459  -14.6653  -44.2266 O.2       4 UNK        -0.5000 
     52 CA          3.5187  -12.7190  -43.1955 C.3       4 UNK         0.1400 
     53 CB          4.8383  -13.1053  -43.8897 C.3       4 UNK        -0.1800 
     54 N           3.1851  -11.3308  -43.5120 N.am      4 UNK        -0.5000 
     55 C           3.4724  -10.2705  -42.7446 C.2       3 UNK         0.5000 
     56 O           4.0109  -10.3646  -41.6410 O.2       3 UNK        -0.5000 
     57 CA          3.1319   -8.8669  -43.2932 C.3       3 UNK         0.1400 
     58 CB          4.3860   -7.9764  -43.3229 C.3       3 UNK        -0.1800 
     59 N           2.5666   -8.9005  -44.6429 N.am      3 UNK        -0.5000 
     60 C           1.2641   -8.9835  -44.9411 C.2       2 UNK         0.5000 
     61 O           0.3655   -9.0046  -44.1003 O.2       2 UNK        -0.5000 
     62 CA          0.9204   -9.1061  -46.4400 C.3       2 UNK         0.1400 
     63 CB          0.7605   -7.7158  -47.0730 C.3       2 UNK        -0.1800 
     64 N           1.9178   -9.8721  -47.1994 N.am      2 UNK        -0.5000 
     65 C           2.1919  -11.1689  -46.9916 C.2       1 UNK         0.5000 
     66 O           1.6212  -11.8424  -46.1367 O.2       1 UNK        -0.5000 
     67 C          -1.3549  -22.8469  -48.6710 C.2       11 UNK         0.5000 
     68 O          -1.5225  -23.8813  -49.3186 O.2       11 UNK        -0.5000 
     69 N          -2.3577  -22.0691  -48.2358 N.am      12 UNK        -0.5000 
     70 CA         -3.7749  -22.3679  -48.4434 C.3       12 UNK         0.1400 
     71 CB         -4.6407  -21.1983  -47.9521 C.3       12 UNK        -0.1800 
     72 C          -4.2062  -23.6818  -47.7697 C.2       12 UNK         0.5000 
     73 O          -4.8714  -24.4935  -48.4105 O.2       12 UNK        -0.5000 
     74 N          -3.7961  -23.8840  -46.5095 N.am      13 UNK        -0.5000 
     75 CA         -4.0729  -25.0863  -45.7226 C.3       13 UNK         0.1400 
     76 CB         -3.5991  -24.8832  -44.2760 C.3       13 UNK        -0.1800 
     77 C          -3.4513  -26.3572  -46.3264 C.2       13 UNK         0.5000 
     78 O          -4.1337  -27.3786  -46.4103 O.2       13 UNK        -0.5000 
     79 N          -2.1930  -26.2647  -46.7806 N.am      14 UNK        -0.5000 
     80 CA         -1.4700  -27.3441  -47.4600 C.3       14 UNK         0.1400 
     81 CB         -0.0095  -26.9221  -47.6795 C.3       14 UNK        -0.1800 
     82 C          -2.1186  -27.7595  -48.7943 C.2       14 UNK         0.5000 
     83 O          -2.1034  -28.9418  -49.1383 O.2       14 UNK        -0.5000 
     84 N          -2.7060  -26.7852  -49.4990 N.am      15 UNK        -0.5000 
     85 CA         -3.4639  -26.9771  -50.7340 C.3       15 UNK         0.1400 
     86 CB         -3.3287  -25.7038  -51.5789 C.3       15 UNK        -0.1800 
     87 C          -4.9504  -27.3156  -50.4958 C.2       15 UNK         0.5000 
     88 O          -5.6947  -27.4362  -51.4697 O.2       15 UNK        -0.5000 
     89 N          -5.3772  -27.4198  -49.2264 N.am      16 UNK        -0.5000 
     90 CA         -6.7500  -27.6663  -48.7628 C.3       16 UNK         0.1400 
     91 CB         -7.1688  -29.1157  -49.0839 C.3       16 UNK        -0.1800 
     92 C          -7.7698  -26.6229  -49.2757 C.2       16 UNK         0.5000 
     93 O          -8.9328  -26.9563  -49.5084 O.2       16 UNK        -0.5000 
     94 N          -7.2937  -25.3848  -49.4752 N.am      17 UNK        -0.5000 
     95 CA         -7.9706  -24.2245  -50.0634 C.3       17 UNK         0.1400 
     96 CB         -9.1376  -23.7632  -49.1669 C.3       17 UNK        -0.1800 
     97 C          -8.3975  -24.4034  -51.5395 C.2       17 UNK         0.5000 
     98 O          -9.1390  -23.5651  -52.0549 O.2       17 UNK        -0.5000 
     99 N          -7.9253  -25.4660  -52.2073 N.am      18 UNK        -0.5000 
    100 CA        -8.2562  -25.7876  -53.5973 C.3       18 UNK         0.1400 
    101 CB        -8.2682  -27.3160  -53.7601 C.3       18 UNK        -0.1800 
    102 C         -7.2840  -25.1466  -54.6056 C.2       18 UNK         0.5000 
    103 O         -7.5845  -25.1251  -55.8002 O.2       18 UNK        -0.5000 
    104 N         -6.1417  -24.6466  -54.1227 N.am      19 UNK        -0.5000 
    105 CA        -5.0782  -24.0223  -54.9021 C.3       19 UNK         0.1400 
    106 CB        -4.2429  -25.1061  -55.6192 C.3       19 UNK        -0.1800 
    107 C         -4.2320  -23.1302  -53.9751 C.2       19 UNK         0.5000 
    108 O         -4.6535  -22.8416  -52.8523 O.2       19 UNK        -0.5000 
    109 N         -3.0560  -22.7151  -54.4679 N.am      20 UNK        -0.5000 
    110 CA        -2.0429  -21.8902  -53.7939 C.3       20 UNK         0.1400 
    111 CB        -1.4874  -22.5941  -52.5420 C.3       20 UNK        -0.1800 
    112 C         -2.4886  -20.4381  -53.5208 C.2       20 UNK         0.5000 
    113 O         -1.9559  -19.7897  -52.6159 O.2       20 UNK        -0.5000 
    114 N         -3.4277  -19.9495  -54.3461 N.am      21 UNK        -0.5000 
    115 CA        -3.9503  -18.5831  -54.4063 C.3       21 UNK         0.1400 
    116 CB        -2.9135  -17.6632  -55.0919 C.3       21 UNK        -0.1800 
    117 C         -4.4301  -18.0712  -53.0320 C.2       21 UNK         0.5000 
    118 O         -5.4538  -18.5403  -52.5329 O.2       21 UNK        -0.5000 
    119 N         -3.6840  -17.1211  -52.4604 N.am      22 UNK        -0.5000 
    120 CA        -3.9157  -16.5190  -51.1430 C.3       22 UNK         0.1400 
    121 C         -3.6380  -17.4417  -49.9170 C.2       22 UNK         0.5000 
    122 N         -2.9485  -18.5677  -50.0629 N.am      22 UNK        -0.7600 
    123 O         -4.0611  -17.1218  -48.8100 O.2       22 UNK        -0.5000 
    124 C124       -3.2153  -15.1319  -51.0440 C.3       23 UNK        -0.0398 
    125 S125       -1.4748  -15.0693  -50.4686 S.3       23 UNK        -0.2404 
    126 C126       -0.5692  -16.2896  -51.4870 C.3       23 UNK        -0.0205 
    127 H127        6.1110  -11.4435  -46.4332 H         1 UNK         0.0600 
    128 H128        6.3383   -9.7200  -46.1483 H         1 UNK         0.0600 
    129 H129        4.7777  -10.4554  -45.8181 H         1 UNK         0.0600 
    130 H130        3.9445  -10.6404  -49.4472 H         1 UNK         0.3000 
    131 H131        3.9125  -12.3996  -47.1183 H         1 UNK         0.0600 
    132 H132        1.9392  -13.4377  -48.3651 H         1 UNK         0.0800 
    133 H133        2.2360  -12.3161  -49.6651 H         1 UNK         0.0800 
    134 H134        4.5472  -16.0136  -48.4307 H         1 UNK         0.0800 
    135 H135        3.1293  -15.3190  -47.6967 H         1 UNK         0.0800 
    136 H136        1.2667  -14.9167  -49.9749 H         1 UNK         0.1150 
    137 H137        0.4486  -18.8121  -51.5532 H         1 UNK         0.1150 
    138 H138        3.9669  -18.1529  -49.2034 H         1 UNK         0.1150 
    139 H139        2.1682  -20.5158  -51.4685 H         1 UNK         0.0800 
    140 H140        3.7437  -20.1063  -50.8472 H         1 UNK         0.0800 
    141 H141        0.2991  -21.4567  -50.2230 H         1 UNK         0.0800 
    142 H142        0.1234  -20.3280  -48.9061 H         1 UNK         0.0800 
    143 H143        0.7110  -23.2992  -48.4520 H         1 UNK         0.0600 
    144 H144        0.4800  -21.1560  -46.6292 H         1 UNK         0.3000 
    145 H145       -0.6406  -23.0541  -43.7843 H         1 UNK         0.0600 
    146 H146        1.3518  -21.9519  -42.8379 H         1 UNK         0.0600 
    147 H147        1.8446  -23.2414  -43.9237 H         1 UNK         0.0600 
    148 H148        1.9521  -21.5670  -44.4495 H         1 UNK         0.0600 
    149 H149       -0.1643  -20.2742  -44.0734 H         1 UNK         0.3000 
    150 H150       -3.5027  -19.3780  -45.1188 H         1 UNK         0.0600 
    151 H151       -3.5220  -19.5917  -42.6344 H         1 UNK         0.0600 
    152 H152       -3.2306  -17.9283  -43.1221 H         1 UNK         0.0600 
    153 H153       -1.8960  -18.9259  -42.5484 H         1 UNK         0.0600 
    154 H154       -1.2430  -17.7435  -44.6662 H         1 UNK         0.3000 
    155 H155        0.1461  -17.8680  -47.9666 H         1 UNK         0.0600 
    156 H156       -0.0864  -15.4448  -47.6160 H         1 UNK         0.0600 
    157 H157       -1.1279  -15.6921  -46.2166 H         1 UNK         0.0600 
    158 H158       -1.6883  -16.1443  -47.8112 H         1 UNK         0.0600 
    159 H159        1.0486  -16.6014  -45.5821 H         1 UNK         0.3000 
    160 H160        3.0745  -19.2504  -44.3060 H         1 UNK         0.0600 
    161 H161        3.7080  -16.5586  -45.6279 H         1 UNK         0.0600 
    162 H162        4.4262  -18.1079  -46.0389 H         1 UNK         0.0600 
    163 H163        4.7282  -17.3953  -44.4603 H         1 UNK         0.0600 
    164 H164        2.4021  -16.5446  -43.4917 H         1 UNK         0.3000 
    165 H165       -0.2695  -17.4971  -41.3181 H         1 UNK         0.0600 
    166 H166        2.5981  -16.7319  -40.5465 H         1 UNK         0.0600 
    167 H167        1.1632  -16.5342  -39.5390 H         1 UNK         0.0600 
    168 H168        1.7270  -18.1435  -39.9592 H         1 UNK         0.0600 
    169 H169        1.1385  -15.0415  -41.6209 H         1 UNK         0.3000 
    170 H170       -0.2199  -13.8885  -44.6124 H         1 UNK         0.0600 
    171 H171       -2.2595  -13.5026  -43.2158 H         1 UNK         0.0600 
    172 H172       -1.2492  -12.9943  -41.8672 H         1 UNK         0.0600 
    173 H173       -1.2892  -12.0452  -43.3544 H         1 UNK         0.0600 
    174 H174        1.0613  -12.3673  -42.6684 H         1 UNK         0.3000 
    175 H175        3.6525  -12.8373  -42.1185 H         1 UNK         0.0600 
    176 H176        5.1412  -14.1172  -43.6178 H         1 UNK         0.0600 
    177 H177        5.6484  -12.4355  -43.6009 H         1 UNK         0.0600 
    178 H178        4.7455  -13.0723  -44.9748 H         1 UNK         0.0600 
    179 H179        2.6656  -11.1953  -44.3714 H         1 UNK         0.3000 
    180 H180        2.4123   -8.4164  -42.6065 H         1 UNK         0.0600 
    181 H181        5.1607   -8.3924  -43.9682 H         1 UNK         0.0600 
    182 H182        4.8143   -7.8649  -42.3259 H         1 UNK         0.0600 
    183 H183        4.1499   -6.9752  -43.6841 H         1 UNK         0.0600 
    184 H184        3.2261   -8.8747  -45.4056 H         1 UNK         0.3000 
    185 H185       -0.0352   -9.6292  -46.5170 H         1 UNK         0.0600 
    186 H186        1.6942   -7.1524  -47.0513 H         1 UNK         0.0600 
    187 H187        0.4367   -7.7900  -48.1113 H         1 UNK         0.0600 
    188 H188        0.0103   -7.1287  -46.5415 H         1 UNK         0.0600 
    189 H189        2.4277   -9.3768  -47.9171 H         1 UNK         0.3000 
    190 H190       -2.1371  -21.2237  -47.7171 H         1 UNK         0.3000 
    191 H191       -3.9357  -22.4792  -49.5182 H         1 UNK         0.0600 
    192 H192       -4.4208  -20.2838  -48.5002 H         1 UNK         0.0600 
    193 H193       -5.7008  -21.4115  -48.0948 H         1 UNK         0.0600 
    194 H194       -4.4861  -20.9962  -46.8924 H         1 UNK         0.0600 
    195 H195       -3.2861  -23.1419  -46.0353 H         1 UNK         0.3000 
    196 H196       -5.1559  -25.2254  -45.7066 H         1 UNK         0.0600 
    197 H197       -3.8071  -25.7646  -43.6682 H         1 UNK         0.0600 
    198 H198       -4.1082  -24.0395  -43.8099 H         1 UNK         0.0600 
    199 H199       -2.5264  -24.6948  -44.2268 H         1 UNK         0.0600 
    200 H200       -1.6817  -25.3964  -46.6402 H         1 UNK         0.3000 
    201 H201       -1.4787  -28.2160  -46.8030 H         1 UNK         0.0600 
    202 H202        0.4876  -26.7170  -46.7313 H         1 UNK         0.0600 
    203 H203        0.0603  -26.0240  -48.2945 H         1 UNK         0.0600 
    204 H204        0.5558  -27.7095  -48.1795 H         1 UNK         0.0600 
    205 H205       -2.6384  -25.8329  -49.1582 H         1 UNK         0.3000 
    206 H206       -3.0314  -27.8048  -51.2995 H         1 UNK         0.0600 
    207 H207       -2.2831  -25.4899  -51.7972 H         1 UNK         0.0600 
    208 H208       -3.8441  -25.8101  -52.5325 H         1 UNK         0.0600 
    209 H209       -3.7487  -24.8357  -51.0689 H         1 UNK         0.0600 
    210 H210       -4.6987  -27.2742  -48.4887 H         1 UNK         0.3000 
    211 H211       -6.7283  -27.5592  -47.6776 H         1 UNK         0.0600 
    212 H212       -7.2668  -29.2793  -50.1576 H         1 UNK         0.0600 
    213 H213       -8.1287  -29.3577  -48.6264 H         1 UNK         0.0600 
    214 H214       -6.4397  -29.8297  -48.7007 H         1 UNK         0.0600 
    215 H215       -6.3270  -25.2113  -49.2008 H         1 UNK         0.3000 
    216 H216       -7.2273  -23.4259  -50.0678 H         1 UNK         0.0600 
    217 H217       -8.8102  -23.6205  -48.1371 H         1 UNK         0.0600 
    218 H218       -9.9554  -24.4842  -49.1632 H         1 UNK         0.0600 
    219 H219       -9.5442  -22.8113  -49.5103 H         1 UNK         0.0600 
    220 H220       -7.3021  -26.1123  -51.7347 H         1 UNK         0.3000 
    221 H221       -9.2584  -25.4202  -53.8277 H         1 UNK         0.0600 
    222 H222       -7.2786  -27.7464  -53.6043 H         1 UNK         0.0600 
    223 H223       -8.9526  -27.7835  -53.0518 H         1 UNK         0.0600 
    224 H224       -8.5931  -27.5992  -54.7620 H         1 UNK         0.0600 
    225 H225       -5.9984  -24.6266  -53.1216 H         1 UNK         0.3000 
    226 H226       -5.5310  -23.3677  -55.6494 H         1 UNK         0.0600 
    227 H227       -4.8716  -25.7554  -56.2284 H         1 UNK         0.0600 
    228 H228       -3.5068  -24.6662  -56.2923 H         1 UNK         0.0600 
    229 H229       -3.7070  -25.7373  -54.9101 H         1 UNK         0.0600 
    230 H230       -2.8099  -23.0092  -55.4030 H         1 UNK         0.3000 
    231 H231       -1.2170  -21.8073  -54.5017 H         1 UNK         0.0600 
    232 H232       -0.6080  -22.0718  -52.1701 H         1 UNK         0.0600 
    233 H233       -1.1798  -23.6148  -52.7658 H         1 UNK         0.0600 
    234 H234       -2.2197  -22.6280  -51.7348 H         1 UNK         0.0600 
    235 H235       -3.8150  -20.5886  -55.0243 H         1 UNK         0.3000 
    236 H236       -4.8349  -18.6143  -55.0441 H         1 UNK         0.0600 
    237 H237       -3.2859  -16.6415  -55.1783 H         1 UNK         0.0600 
    238 H238       -1.9662  -17.6324  -54.5520 H         1 UNK         0.0600 
    239 H239       -2.6998  -18.0091  -56.1033 H         1 UNK         0.0600 
    240 H240       -2.8546  -16.8181  -52.9467 H         1 UNK         0.3000 
    241 H241       -4.9884  -16.3193  -51.1007 H         1 UNK         0.0600 
    242 H242       -2.6194  -18.8785  -50.9711 H         1 UNK         0.3800 
    243 H243       -2.7301  -19.0991  -49.2313 H         1 UNK         0.3800 
    244 H244       -3.2825  -14.6025  -51.9954 H         1 UNK         0.0800 
    245 H245       -3.7807  -14.5162  -50.3430 H         1 UNK         0.0800 
    246 H246       -0.3159  -15.8373  -52.4464 H         1 UNK         0.0800 
    247 H247       -1.2082  -17.1417  -51.7024 H         1 UNK         0.0800 
@<TRIPOS>BOND
     1    1    2 1    
     2    1  127 1    
     3    1  128 1    
     4    1  129 1    
     5    2    3 2    
     6    2    4 am   BACKBONE|DICT|INTERRES
     7    4    5 1    
     8    4  130 1    
     9    5    6 1    
    10    5   65 1    
    11    5  131 1    
    12    6    7 1    
    13    6  132 1    
    14    6  133 1    
    15    7    8 1    
    16    8    9 1    
    17    8  134 1    
    18    8  135 1    
    19    9   10 ar   
    20    9   14 ar   
    21   10   11 ar   
    22   10  136 1    
    23   11   12 ar   
    24   11  126 1    
    25   12   13 ar   
    26   12  137 1    
    27   13   14 ar   
    28   13   15 1    
    29   14  138 1    
    30   15   16 1    
    31   15  139 1    
    32   15  140 1    
    33   16   17 1    
    34   17   18 1    
    35   17  141 1    
    36   17  142 1    
    37   18   19 1    
    38   18   67 1    
    39   18  143 1    
    40   19   20 am   BACKBONE|DICT|INTERRES
    41   19  144 1    
    42   20   21 2    
    43   20   22 1    
    44   22   23 1    
    45   22   24 1    
    46   22  145 1    
    47   23  146 1    
    48   23  147 1    
    49   23  148 1    
    50   24   25 am   BACKBONE|DICT|INTERRES
    51   24  149 1    
    52   25   26 2    
    53   25   27 1    
    54   27   28 1    
    55   27   29 1    
    56   27  150 1    
    57   28  151 1    
    58   28  152 1    
    59   28  153 1    
    60   29   30 am   BACKBONE|DICT|INTERRES
    61   29  154 1    
    62   30   31 2    
    63   30   32 1    
    64   32   33 1    
    65   32   34 1    
    66   32  155 1    
    67   33  156 1    
    68   33  157 1    
    69   33  158 1    
    70   34   35 am   BACKBONE|DICT|INTERRES
    71   34  159 1    
    72   35   36 2    
    73   35   37 1    
    74   37   38 1    
    75   37   39 1    
    76   37  160 1    
    77   38  161 1    
    78   38  162 1    
    79   38  163 1    
    80   39   40 am   BACKBONE|DICT|INTERRES
    81   39  164 1    
    82   40   41 2    
    83   40   42 1    
    84   42   43 1    
    85   42   44 1    
    86   42  165 1    
    87   43  166 1    
    88   43  167 1    
    89   43  168 1    
    90   44   45 am   BACKBONE|DICT|INTERRES
    91   44  169 1    
    92   45   46 2    
    93   45   47 1    
    94   47   48 1    
    95   47   49 1    
    96   47  170 1    
    97   48  171 1    
    98   48  172 1    
    99   48  173 1    
   100   49   50 am   BACKBONE|DICT|INTERRES
   101   49  174 1    
   102   50   51 2    
   103   50   52 1    
   104   52   53 1    
   105   52   54 1    
   106   52  175 1    
   107   53  176 1    
   108   53  177 1    
   109   53  178 1    
   110   54   55 am   BACKBONE|DICT|INTERRES
   111   54  179 1    
   112   55   56 2    
   113   55   57 1    
   114   57   58 1    
   115   57   59 1    
   116   57  180 1    
   117   58  181 1    
   118   58  182 1    
   119   58  183 1    
   120   59   60 am   BACKBONE|DICT|INTERRES
   121   59  184 1    
   122   60   61 2    
   123   60   62 1    
   124   62   63 1    
   125   62   64 1    
   126   62  185 1    
   127   63  186 1    
   128   63  187 1    
   129   63  188 1    
   130   64   65 am   BACKBONE|DICT|INTERRES
   131   64  189 1    
   132   65   66 2    
   133   67   68 2    
   134   67   69 am   BACKBONE|DICT|INTERRES
   135   69   70 1    
   136   69  190 1    
   137   70   71 1    
   138   70   72 1    
   139   70  191 1    
   140   71  192 1    
   141   71  193 1    
   142   71  194 1    
   143   72   73 2    
   144   72   74 am   BACKBONE|DICT|INTERRES
   145   74   75 1    
   146   74  195 1    
   147   75   76 1    
   148   75   77 1    
   149   75  196 1    
   150   76  197 1    
   151   76  198 1    
   152   76  199 1    
   153   77   78 2    
   154   77   79 am   BACKBONE|DICT|INTERRES
   155   79   80 1    
   156   79  200 1    
   157   80   81 1    
   158   80   82 1    
   159   80  201 1    
   160   81  202 1    
   161   81  203 1    
   162   81  204 1    
   163   82   83 2    
   164   82   84 am   BACKBONE|DICT|INTERRES
   165   84   85 1    
   166   84  205 1    
   167   85   86 1    
   168   85   87 1    
   169   85  206 1    
   170   86  207 1    
   171   86  208 1    
   172   86  209 1    
   173   87   88 2    
   174   87   89 am   BACKBONE|DICT|INTERRES
   175   89   90 1    
   176   89  210 1    
   177   90   91 1    
   178   90   92 1    
   179   90  211 1    
   180   91  212 1    
   181   91  213 1    
   182   91  214 1    
   183   92   93 2    
   184   92   94 am   BACKBONE|DICT|INTERRES
   185   94   95 1    
   186   94  215 1    
   187   95   96 1    
   188   95   97 1    
   189   95  216 1    
   190   96  217 1    
   191   96  218 1    
   192   96  219 1    
   193   97   98 2    
   194   97   99 am   BACKBONE|DICT|INTERRES
   195   99  100 1    
   196   99  220 1    
   197  100  101 1    
   198  100  102 1    
   199  100  221 1    
   200  101  222 1    
   201  101  223 1    
   202  101  224 1    
   203  102  103 2    
   204  102  104 am   BACKBONE|DICT|INTERRES
   205  104  105 1    
   206  104  225 1    
   207  105  106 1    
   208  105  107 1    
   209  105  226 1    
   210  106  227 1    
   211  106  228 1    
   212  106  229 1    
   213  107  108 2    
   214  107  109 am   BACKBONE|DICT|INTERRES
   215  109  110 1    
   216  109  230 1    
   217  110  111 1    
   218  110  112 1    
   219  110  231 1    
   220  111  232 1    
   221  111  233 1    
   222  111  234 1    
   223  112  113 2    
   224  112  114 am   BACKBONE|DICT|INTERRES
   225  114  115 1    
   226  114  235 1    
   227  115  116 1    
   228  115  117 1    
   229  115  236 1    
   230  116  237 1    
   231  116  238 1    
   232  116  239 1    
   233  117  118 2    
   234  117  119 am   BACKBONE|DICT|INTERRES
   235  119  120 1    
   236  119  240 1    
   237  120  121 1    
   238  120  124 1    
   239  120  241 1    
   240  121  122 am   BACKBONE|DICT|INTERRES
   241  121  123 2    
   242  122  242 1    
   243  122  243 1    
   244  124  125 1    
   245  124  244 1    
   246  124  245 1    
   247  125  126 1    
   248  126  246 1    
   249  126  247 1    
@<TRIPOS>SUBSTRUCTURE
     1 UNK         1 GROUP             0       ****    0 ROOT    
