@<TRIPOS>MOLECULE
3R540
247   249    1
SMALL
USER_CHARGES


@<TRIPOS>ATOM
      1 CA          5.9892  -18.1083  -50.0643 C.3       0 UNK        -0.1800 
      2 C           4.6385  -17.4681  -49.7810 C.2       0 UNK         0.5000 
      3 O           4.2299  -17.3871  -48.6237 O.2       0 UNK        -0.5000 
      4 N           3.9491  -16.9988  -50.8286 N.am      1 UNK        -0.5000 
      5 CA          2.6186  -16.3769  -50.7879 C.3       1 UNK         0.1400 
      6 C6          1.8940  -16.5580  -52.1478 C.3       23 UNK        -0.0398 
      7 S7          0.0728  -16.5341  -52.0128 S.3       23 UNK        -0.2404 
      8 C8         -0.3263  -18.3110  -51.9964 C.3       23 UNK        -0.0205 
      9 C9         -0.2826  -18.8829  -50.5896 C.ar      23 UNK        -0.0193 
     10 C10        -1.4185  -18.8142  -49.7791 C.ar      23 UNK        -0.1150 
     11 C11        -1.4041  -19.3623  -48.4963 C.ar      23 UNK        -0.0193 
     12 C12        -0.2474  -19.9885  -48.0302 C.ar      23 UNK        -0.1150 
     13 C13         0.9072  -20.0563  -48.8211 C.ar      23 UNK        -0.0193 
     14 C14         0.8762  -19.4979  -50.1041 C.ar      23 UNK        -0.1150 
     15 C15         2.1985  -20.7217  -48.3405 C.3       23 UNK        -0.0205 
     16 S16         2.3398  -20.9285  -46.5291 S.3       23 UNK        -0.2404 
     17 C17         2.1116  -22.7325  -46.2993 C.3       23 UNK        -0.0398 
     18 CA          0.6519  -23.2216  -46.0631 C.3       11 UNK         0.1400 
     19 N          -0.0921  -22.3156  -45.1785 N.am      11 UNK        -0.5000 
     20 C          -1.1743  -22.5947  -44.4416 C.2       10 UNK         0.5000 
     21 O          -1.7096  -23.7043  -44.4159 O.2       10 UNK        -0.5000 
     22 CA         -1.7548  -21.4261  -43.6213 C.3       10 UNK         0.1400 
     23 CB         -2.7528  -21.8758  -42.5355 C.3       10 UNK        -0.1800 
     24 N          -0.7223  -20.5558  -43.0572 N.am      10 UNK        -0.5000 
     25 C           0.2335  -20.8745  -42.1730 C.2       9 UNK         0.5000 
     26 O           0.3942  -21.9985  -41.6962 O.2       9 UNK        -0.5000 
     27 CA          1.1636  -19.7258  -41.7392 C.3       9 UNK         0.1400 
     28 CB          2.3336  -19.5814  -42.7247 C.3       9 UNK        -0.1800 
     29 N           0.4622  -18.4443  -41.6203 N.am      9 UNK        -0.5000 
     30 C          -0.4678  -18.1720  -40.6924 C.2       8 UNK         0.5000 
     31 O          -0.7794  -18.9487  -39.7886 O.2       8 UNK        -0.5000 
     32 CA         -1.1818  -16.8109  -40.7938 C.3       8 UNK         0.1400 
     33 CB         -0.3334  -15.7017  -40.1538 C.3       8 UNK        -0.1800 
     34 N          -1.5146  -16.4426  -42.1703 N.am      8 UNK        -0.5000 
     35 C          -2.4218  -17.0729  -42.9317 C.2       7 UNK         0.5000 
     36 O          -3.1190  -18.0077  -42.5379 O.2       7 UNK        -0.5000 
     37 CA         -2.5459  -16.6015  -44.3935 C.3       7 UNK         0.1400 
     38 CB         -3.4268  -15.3473  -44.4894 C.3       7 UNK        -0.1800 
     39 N          -1.2461  -16.3364  -45.0134 N.am      7 UNK        -0.5000 
     40 C          -0.2758  -17.2474  -45.1777 C.2       6 UNK         0.5000 
     41 O          -0.3929  -18.4343  -44.8767 O.2       6 UNK        -0.5000 
     42 CA          1.0707  -16.7339  -45.7085 C.3       6 UNK         0.1400 
     43 CB          1.0451  -16.5730  -47.2307 C.3       6 UNK        -0.1800 
     44 N           1.4525  -15.4663  -45.0890 N.am      6 UNK        -0.5000 
     45 C           1.8099  -15.3331  -43.8048 C.2       5 UNK         0.5000 
     46 O           1.9157  -16.2772  -43.0229 O.2       5 UNK        -0.5000 
     47 CA          2.0299  -13.8982  -43.2966 C.3       5 UNK         0.1400 
     48 CB          3.4736  -13.4387  -43.5460 C.3       5 UNK        -0.1800 
     49 N           1.0911  -12.9556  -43.9085 N.am      5 UNK        -0.5000 
     50 C          -0.2141  -12.9134  -43.6026 C.2       4 UNK         0.5000 
     51 O          -0.7342  -13.6397  -42.7562 O.2       4 UNK        -0.5000 
     52 CA         -1.0987  -11.9277  -44.3884 C.3       4 UNK         0.1400 
     53 CB         -1.1515  -10.5685  -43.6755 C.3       4 UNK        -0.1800 
     54 N          -0.6757  -11.7270  -45.7746 N.am      4 UNK        -0.5000 
     55 C          -0.6389  -12.6779  -46.7179 C.2       3 UNK         0.5000 
     56 O          -0.9511  -13.8504  -46.5085 O.2       3 UNK        -0.5000 
     57 CA         -0.1551  -12.2611  -48.1248 C.3       3 UNK         0.1400 
     58 CB         -0.1060  -10.7319  -48.3374 C.3       3 UNK        -0.1800 
     59 N           1.1406  -12.8447  -48.4898 N.am      3 UNK        -0.5000 
     60 C           2.2763  -12.8422  -47.7777 C.2       2 UNK         0.5000 
     61 O           2.3531  -12.4131  -46.6248 O.2       2 UNK        -0.5000 
     62 CA          3.5364  -13.4074  -48.4753 C.3       2 UNK         0.1400 
     63 CB          4.7215  -13.5745  -47.5072 C.3       2 UNK        -0.1800 
     64 N           3.3152  -14.6903  -49.1446 N.am      2 UNK        -0.5000 
     65 C           2.6834  -14.9057  -50.3040 C.2       1 UNK         0.5000 
     66 O           2.1806  -13.9976  -50.9677 O.2       1 UNK        -0.5000 
     67 C          -0.1101  -23.5976  -47.3620 C.2       11 UNK         0.5000 
     68 O           0.4770  -23.6300  -48.4453 O.2       11 UNK        -0.5000 
     69 N          -1.4031  -23.9253  -47.2297 N.am      12 UNK        -0.5000 
     70 CA         -2.3298  -24.2833  -48.3068 C.3       12 UNK         0.1400 
     71 CB         -3.7184  -24.5554  -47.7083 C.3       12 UNK        -0.1800 
     72 C          -1.8745  -25.4921  -49.1439 C.2       12 UNK         0.5000 
     73 O          -2.1043  -25.5151  -50.3523 O.2       12 UNK        -0.5000 
     74 N          -1.2092  -26.4572  -48.4938 N.am      13 UNK        -0.5000 
     75 CA         -0.6483  -27.6540  -49.1228 C.3       13 UNK         0.1400 
     76 CB         -0.1964  -28.6317  -48.0276 C.3       13 UNK        -0.1800 
     77 C           0.5140  -27.3487  -50.0876 C.2       13 UNK         0.5000 
     78 O           0.6785  -28.0630  -51.0771 O.2       13 UNK        -0.5000 
     79 N           1.2865  -26.2935  -49.7935 N.am      14 UNK        -0.5000 
     80 CA          2.3538  -25.7932  -50.6595 C.3       14 UNK         0.1400 
     81 CB          3.4040  -25.0628  -49.8081 C.3       14 UNK        -0.1800 
     82 C           1.7943  -24.8613  -51.7474 C.2       14 UNK         0.5000 
     83 O           2.2742  -24.8912  -52.8810 O.2       14 UNK        -0.5000 
     84 N           0.7888  -24.0557  -51.3791 N.am      15 UNK        -0.5000 
     85 CA          0.1125  -23.0986  -52.2519 C.3       15 UNK         0.1400 
     86 CB         -0.8232  -22.2374  -51.3962 C.3       15 UNK        -0.1800 
     87 C          -0.7047  -23.7615  -53.3731 C.2       15 UNK         0.5000 
     88 O          -0.7573  -23.2277  -54.4817 O.2       15 UNK        -0.5000 
     89 N          -1.3742  -24.8738  -53.0384 N.am      16 UNK        -0.5000 
     90 CA         -2.3371  -25.6513  -53.8260 C.3       16 UNK         0.1400 
     91 CB         -1.7164  -26.1907  -55.1288 C.3       16 UNK        -0.1800 
     92 C          -3.6573  -24.8989  -54.0852 C.2       16 UNK         0.5000 
     93 O          -4.7249  -25.4173  -53.7573 O.2       16 UNK        -0.5000 
     94 N          -3.5649  -23.6878  -54.6480 N.am      17 UNK        -0.5000 
     95 CA         -4.6930  -22.7893  -54.8977 C.3       17 UNK         0.1400 
     96 CB         -4.2986  -21.7882  -55.9943 C.3       17 UNK        -0.1800 
     97 C          -5.1464  -22.0403  -53.6303 C.2       17 UNK         0.5000 
     98 O          -6.3190  -21.6802  -53.5295 O.2       17 UNK        -0.5000 
     99 N          -4.2034  -21.7949  -52.7055 N.am      18 UNK        -0.5000 
    100 CA        -4.3624  -21.1358  -51.3977 C.3       18 UNK         0.1400 
    101 CB        -5.3084  -21.9526  -50.4976 C.3       18 UNK        -0.1800 
    102 C         -4.7604  -19.6435  -51.4481 C.2       18 UNK         0.5000 
    103 O         -4.9820  -19.0462  -50.3929 O.2       18 UNK        -0.5000 
    104 N         -4.8523  -19.0657  -52.6576 N.am      19 UNK        -0.5000 
    105 CA        -5.1561  -17.6633  -52.9896 C.3       19 UNK         0.1400 
    106 CB        -3.9628  -16.7659  -52.6020 C.3       19 UNK        -0.1800 
    107 C         -6.4875  -17.1193  -52.4199 C.2       19 UNK         0.5000 
    108 O         -6.6758  -15.9029  -52.3769 O.2       19 UNK        -0.5000 
    109 N         -7.3651  -18.0222  -51.9539 N.am      20 UNK        -0.5000 
    110 CA        -8.5463  -17.7700  -51.1163 C.3       20 UNK         0.1400 
    111 CB        -9.6175  -16.9740  -51.8903 C.3       20 UNK        -0.1800 
    112 C         -8.2064  -17.1346  -49.7442 C.2       20 UNK         0.5000 
    113 O         -9.0965  -16.5949  -49.0852 O.2       20 UNK        -0.5000 
    114 N         -6.9335  -17.2174  -49.3331 N.am      21 UNK        -0.5000 
    115 CA        -6.3937  -16.6503  -48.0992 C.3       21 UNK         0.1400 
    116 CB        -5.0381  -15.9976  -48.4153 C.3       21 UNK        -0.1800 
    117 C         -6.2491  -17.7111  -46.9942 C.2       21 UNK         0.5000 
    118 O         -6.2524  -17.3531  -45.8162 O.2       21 UNK        -0.5000 
    119 N         -6.1442  -18.9885  -47.3802 N.am      22 UNK        -0.5000 
    120 CA        -6.0626  -20.1402  -46.4674 C.3       22 UNK         0.1400 
    121 C         -6.8463  -21.3906  -46.9614 C.2       22 UNK         0.5000 
    122 N         -7.7275  -21.2691  -47.9478 N.am      22 UNK        -0.7600 
    123 O         -6.6829  -22.4829  -46.4258 O.2       22 UNK        -0.5000 
    124 C124       -4.6090  -20.4373  -46.0116 C.3       23 UNK        -0.0398 
    125 S125       -3.4511  -20.8405  -47.3664 S.3       23 UNK        -0.2404 
    126 C126       -2.6159  -19.2465  -47.5890 C.3       23 UNK        -0.0205 
    127 H127        6.2224  -18.1105  -51.1293 H         1 UNK         0.0600 
    128 H128        6.7778  -17.5651  -49.5436 H         1 UNK         0.0600 
    129 H129        5.9946  -19.1399  -49.7125 H         1 UNK         0.0600 
    130 H130        4.3684  -17.0570  -51.7458 H         1 UNK         0.3000 
    131 H131        2.0387  -16.9158  -50.0367 H         1 UNK         0.0600 
    132 H132        2.1825  -17.5074  -52.6001 H         1 UNK         0.0800 
    133 H133        2.2054  -15.7985  -52.8670 H         1 UNK         0.0800 
    134 H134        0.3411  -18.8642  -52.6583 H         1 UNK         0.0800 
    135 H135       -1.3259  -18.4522  -52.4071 H         1 UNK         0.0800 
    136 H136       -2.3109  -18.3266  -50.1449 H         1 UNK         0.1150 
    137 H137       -0.2605  -20.4017  -47.0355 H         1 UNK         0.1150 
    138 H138        1.7552  -19.5498  -50.7309 H         1 UNK         0.1150 
    139 H139        2.3068  -21.6835  -48.8420 H         1 UNK         0.0800 
    140 H140        3.0447  -20.1129  -48.6622 H         1 UNK         0.0800 
    141 H141        2.6923  -22.9850  -45.4112 H         1 UNK         0.0800 
    142 H142        2.6052  -23.2776  -47.1044 H         1 UNK         0.0800 
    143 H143        0.7389  -24.1691  -45.5273 H         1 UNK         0.0600 
    144 H144        0.2696  -21.3725  -45.1395 H         1 UNK         0.3000 
    145 H145       -2.3000  -20.8048  -44.3313 H         1 UNK         0.0600 
    146 H146       -3.1560  -21.0187  -41.9956 H         1 UNK         0.0600 
    147 H147       -3.5968  -22.4076  -42.9762 H         1 UNK         0.0600 
    148 H148       -2.2881  -22.5428  -41.8090 H         1 UNK         0.0600 
    149 H149       -0.6976  -19.6179  -43.4507 H         1 UNK         0.3000 
    150 H150        1.5732  -19.9800  -40.7595 H         1 UNK         0.0600 
    151 H151        2.8798  -20.5201  -42.8250 H         1 UNK         0.0600 
    152 H152        3.0430  -18.8260  -42.3865 H         1 UNK         0.0600 
    153 H153        1.9902  -19.2953  -43.7191 H         1 UNK         0.0600 
    154 H154        0.7149  -17.7243  -42.2893 H         1 UNK         0.3000 
    155 H155       -2.1160  -16.8852  -40.2333 H         1 UNK         0.0600 
    156 H156        0.6059  -15.5537  -40.6867 H         1 UNK         0.0600 
    157 H157       -0.0894  -15.9443  -39.1188 H         1 UNK         0.0600 
    158 H158       -0.8675  -14.7514  -40.1475 H         1 UNK         0.0600 
    159 H159       -1.0335  -15.6352  -42.5523 H         1 UNK         0.3000 
    160 H160       -3.0303  -17.3963  -44.9622 H         1 UNK         0.0600 
    161 H161       -3.4846  -14.9790  -45.5130 H         1 UNK         0.0600 
    162 H162       -3.0478  -14.5382  -43.8659 H         1 UNK         0.0600 
    163 H163       -4.4443  -15.5642  -44.1620 H         1 UNK         0.0600 
    164 H164       -1.0833  -15.3916  -45.3503 H         1 UNK         0.3000 
    165 H165        1.8299  -17.4801  -45.4641 H         1 UNK         0.0600 
    166 H166        0.7306  -17.4911  -47.7193 H         1 UNK         0.0600 
    167 H167        0.3729  -15.7826  -47.5606 H         1 UNK         0.0600 
    168 H168        2.0424  -16.3475  -47.5931 H         1 UNK         0.0600 
    169 H169        1.3380  -14.6307  -45.6449 H         1 UNK         0.3000 
    170 H170        1.8625  -13.8983  -42.2174 H         1 UNK         0.0600 
    171 H171        4.1831  -14.1031  -43.0512 H         1 UNK         0.0600 
    172 H172        3.7200  -13.4309  -44.6068 H         1 UNK         0.0600 
    173 H173        3.6409  -12.4348  -43.1558 H         1 UNK         0.0600 
    174 H174        1.4438  -12.3834  -44.6677 H         1 UNK         0.3000 
    175 H175       -2.1096  -12.3391  -44.4093 H         1 UNK         0.0600 
    176 H176       -1.8467   -9.8897  -44.1700 H         1 UNK         0.0600 
    177 H177       -1.4882  -10.6815  -42.6441 H         1 UNK         0.0600 
    178 H178       -0.1723  -10.0888  -43.6507 H         1 UNK         0.0600 
    179 H179       -0.3746  -10.7964  -46.0238 H         1 UNK         0.3000 
    180 H180       -0.8852  -12.6685  -48.8255 H         1 UNK         0.0600 
    181 H181        0.6513  -10.2538  -47.7148 H         1 UNK         0.0600 
    182 H182       -1.0683  -10.2687  -48.1149 H         1 UNK         0.0600 
    183 H183        0.1278  -10.4937  -49.3752 H         1 UNK         0.0600 
    184 H184        1.1979  -13.2340  -49.4256 H         1 UNK         0.3000 
    185 H185        3.8277  -12.6749  -49.2305 H         1 UNK         0.0600 
    186 H186        4.5065  -14.3167  -46.7375 H         1 UNK         0.0600 
    187 H187        5.6193  -13.8945  -48.0365 H         1 UNK         0.0600 
    188 H188        4.9615  -12.6357  -47.0064 H         1 UNK         0.0600 
    189 H189        3.6914  -15.5098  -48.6764 H         1 UNK         0.3000 
    190 H190       -1.7871  -23.9063  -46.2892 H         1 UNK         0.3000 
    191 H191       -2.4063  -23.4210  -48.9703 H         1 UNK         0.0600 
    192 H192       -3.7038  -25.4087  -47.0293 H         1 UNK         0.0600 
    193 H193       -4.4464  -24.7696  -48.4919 H         1 UNK         0.0600 
    194 H194       -4.0902  -23.6964  -47.1510 H         1 UNK         0.0600 
    195 H195       -1.0690  -26.3549  -47.4996 H         1 UNK         0.3000 
    196 H196       -1.4407  -28.1322  -49.7026 H         1 UNK         0.0600 
    197 H197        0.2054  -29.5475  -48.4633 H         1 UNK         0.0600 
    198 H198       -1.0296  -28.9176  -47.3853 H         1 UNK         0.0600 
    199 H199        0.5817  -28.1991  -47.3973 H         1 UNK         0.0600 
    200 H200        1.0515  -25.7245  -48.9914 H         1 UNK         0.3000 
    201 H201        2.8457  -26.6350  -51.1519 H         1 UNK         0.0600 
    202 H202        3.8072  -25.7142  -49.0327 H         1 UNK         0.0600 
    203 H203        2.9890  -24.1793  -49.3234 H         1 UNK         0.0600 
    204 H204        4.2412  -24.7329  -50.4243 H         1 UNK         0.0600 
    205 H205        0.5082  -24.0531  -50.4040 H         1 UNK         0.3000 
    206 H206        0.8713  -22.4556  -52.7023 H         1 UNK         0.0600 
    207 H207       -0.3305  -21.8936  -50.4900 H         1 UNK         0.0600 
    208 H208       -1.1566  -21.3593  -51.9493 H         1 UNK         0.0600 
    209 H209       -1.7073  -22.7935  -51.0868 H         1 UNK         0.0600 
    210 H210       -1.3292  -25.1566  -52.0623 H         1 UNK         0.3000 
    211 H211       -2.5854  -26.5138  -53.2052 H         1 UNK         0.0600 
    212 H212       -1.4610  -25.3933  -55.8268 H         1 UNK         0.0600 
    213 H213       -2.4114  -26.8577  -55.6402 H         1 UNK         0.0600 
    214 H214       -0.8096  -26.7601  -54.9245 H         1 UNK         0.0600 
    215 H215       -2.6339  -23.3478  -54.8735 H         1 UNK         0.3000 
    216 H216       -5.5398  -23.3765  -55.2594 H         1 UNK         0.0600 
    217 H217       -5.1222  -21.1091  -56.2197 H         1 UNK         0.0600 
    218 H218       -4.0405  -22.3019  -56.9206 H         1 UNK         0.0600 
    219 H219       -3.4418  -21.1812  -55.6986 H         1 UNK         0.0600 
    220 H220       -3.2723  -22.1223  -52.9138 H         1 UNK         0.3000 
    221 H221       -3.3826  -21.1468  -50.9218 H         1 UNK         0.0600 
    222 H222       -6.3357  -21.9386  -50.8615 H         1 UNK         0.0600 
    223 H223       -4.9879  -22.9922  -50.4295 H         1 UNK         0.0600 
    224 H224       -5.3197  -21.5553  -49.4847 H         1 UNK         0.0600 
    225 H225       -4.6953  -19.6667  -53.4532 H         1 UNK         0.3000 
    226 H226       -5.2618  -17.6226  -54.0745 H         1 UNK         0.0600 
    227 H227       -3.0521  -17.0898  -53.1031 H         1 UNK         0.0600 
    228 H228       -4.1293  -15.7292  -52.8964 H         1 UNK         0.0600 
    229 H229       -3.7803  -16.7749  -51.5271 H         1 UNK         0.0600 
    230 H230       -7.1104  -18.9946  -52.0584 H         1 UNK         0.3000 
    231 H231       -8.9672  -18.7511  -50.8926 H         1 UNK         0.0600 
    232 H232       -9.8328  -17.4359  -52.8538 H         1 UNK         0.0600 
    233 H233       -9.3078  -15.9448  -52.0725 H         1 UNK         0.0600 
    234 H234      -10.5546  -16.9367  -51.3338 H         1 UNK         0.0600 
    235 H235       -6.2676  -17.7186  -49.9147 H         1 UNK         0.3000 
    236 H236       -7.0606  -15.8735  -47.7197 H         1 UNK         0.0600 
    237 H237       -4.5573  -15.6249  -47.5112 H         1 UNK         0.0600 
    238 H238       -4.3517  -16.6963  -48.8928 H         1 UNK         0.0600 
    239 H239       -5.1632  -15.1502  -49.0895 H         1 UNK         0.0600 
    240 H240       -6.0657  -19.1991  -48.3664 H         1 UNK         0.3000 
    241 H241       -6.6102  -19.8704  -45.5626 H         1 UNK         0.0600 
    242 H242       -8.2382  -22.0843  -48.2479 H         1 UNK         0.3800 
    243 H243       -7.9399  -20.3714  -48.3480 H         1 UNK         0.3800 
    244 H244       -4.2268  -19.5836  -45.4512 H         1 UNK         0.0800 
    245 H245       -4.5993  -21.2677  -45.3041 H         1 UNK         0.0800 
    246 H246       -3.3274  -18.5242  -47.9854 H         1 UNK         0.0800 
    247 H247       -2.2941  -18.8704  -46.6207 H         1 UNK         0.0800 
@<TRIPOS>BOND
     1    1    2 1    
     2    1  127 1    
     3    1  128 1    
     4    1  129 1    
     5    2    3 2    
     6    2    4 am   BACKBONE|DICT|INTERRES
     7    4    5 1    
     8    4  130 1    
     9    5    6 1    
    10    5   65 1    
    11    5  131 1    
    12    6    7 1    
    13    6  132 1    
    14    6  133 1    
    15    7    8 1    
    16    8    9 1    
    17    8  134 1    
    18    8  135 1    
    19    9   10 ar   
    20    9   14 ar   
    21   10   11 ar   
    22   10  136 1    
    23   11   12 ar   
    24   11  126 1    
    25   12   13 ar   
    26   12  137 1    
    27   13   14 ar   
    28   13   15 1    
    29   14  138 1    
    30   15   16 1    
    31   15  139 1    
    32   15  140 1    
    33   16   17 1    
    34   17   18 1    
    35   17  141 1    
    36   17  142 1    
    37   18   19 1    
    38   18   67 1    
    39   18  143 1    
    40   19   20 am   BACKBONE|DICT|INTERRES
    41   19  144 1    
    42   20   21 2    
    43   20   22 1    
    44   22   23 1    
    45   22   24 1    
    46   22  145 1    
    47   23  146 1    
    48   23  147 1    
    49   23  148 1    
    50   24   25 am   BACKBONE|DICT|INTERRES
    51   24  149 1    
    52   25   26 2    
    53   25   27 1    
    54   27   28 1    
    55   27   29 1    
    56   27  150 1    
    57   28  151 1    
    58   28  152 1    
    59   28  153 1    
    60   29   30 am   BACKBONE|DICT|INTERRES
    61   29  154 1    
    62   30   31 2    
    63   30   32 1    
    64   32   33 1    
    65   32   34 1    
    66   32  155 1    
    67   33  156 1    
    68   33  157 1    
    69   33  158 1    
    70   34   35 am   BACKBONE|DICT|INTERRES
    71   34  159 1    
    72   35   36 2    
    73   35   37 1    
    74   37   38 1    
    75   37   39 1    
    76   37  160 1    
    77   38  161 1    
    78   38  162 1    
    79   38  163 1    
    80   39   40 am   BACKBONE|DICT|INTERRES
    81   39  164 1    
    82   40   41 2    
    83   40   42 1    
    84   42   43 1    
    85   42   44 1    
    86   42  165 1    
    87   43  166 1    
    88   43  167 1    
    89   43  168 1    
    90   44   45 am   BACKBONE|DICT|INTERRES
    91   44  169 1    
    92   45   46 2    
    93   45   47 1    
    94   47   48 1    
    95   47   49 1    
    96   47  170 1    
    97   48  171 1    
    98   48  172 1    
    99   48  173 1    
   100   49   50 am   BACKBONE|DICT|INTERRES
   101   49  174 1    
   102   50   51 2    
   103   50   52 1    
   104   52   53 1    
   105   52   54 1    
   106   52  175 1    
   107   53  176 1    
   108   53  177 1    
   109   53  178 1    
   110   54   55 am   BACKBONE|DICT|INTERRES
   111   54  179 1    
   112   55   56 2    
   113   55   57 1    
   114   57   58 1    
   115   57   59 1    
   116   57  180 1    
   117   58  181 1    
   118   58  182 1    
   119   58  183 1    
   120   59   60 am   BACKBONE|DICT|INTERRES
   121   59  184 1    
   122   60   61 2    
   123   60   62 1    
   124   62   63 1    
   125   62   64 1    
   126   62  185 1    
   127   63  186 1    
   128   63  187 1    
   129   63  188 1    
   130   64   65 am   BACKBONE|DICT|INTERRES
   131   64  189 1    
   132   65   66 2    
   133   67   68 2    
   134   67   69 am   BACKBONE|DICT|INTERRES
   135   69   70 1    
   136   69  190 1    
   137   70   71 1    
   138   70   72 1    
   139   70  191 1    
   140   71  192 1    
   141   71  193 1    
   142   71  194 1    
   143   72   73 2    
   144   72   74 am   BACKBONE|DICT|INTERRES
   145   74   75 1    
   146   74  195 1    
   147   75   76 1    
   148   75   77 1    
   149   75  196 1    
   150   76  197 1    
   151   76  198 1    
   152   76  199 1    
   153   77   78 2    
   154   77   79 am   BACKBONE|DICT|INTERRES
   155   79   80 1    
   156   79  200 1    
   157   80   81 1    
   158   80   82 1    
   159   80  201 1    
   160   81  202 1    
   161   81  203 1    
   162   81  204 1    
   163   82   83 2    
   164   82   84 am   BACKBONE|DICT|INTERRES
   165   84   85 1    
   166   84  205 1    
   167   85   86 1    
   168   85   87 1    
   169   85  206 1    
   170   86  207 1    
   171   86  208 1    
   172   86  209 1    
   173   87   88 2    
   174   87   89 am   BACKBONE|DICT|INTERRES
   175   89   90 1    
   176   89  210 1    
   177   90   91 1    
   178   90   92 1    
   179   90  211 1    
   180   91  212 1    
   181   91  213 1    
   182   91  214 1    
   183   92   93 2    
   184   92   94 am   BACKBONE|DICT|INTERRES
   185   94   95 1    
   186   94  215 1    
   187   95   96 1    
   188   95   97 1    
   189   95  216 1    
   190   96  217 1    
   191   96  218 1    
   192   96  219 1    
   193   97   98 2    
   194   97   99 am   BACKBONE|DICT|INTERRES
   195   99  100 1    
   196   99  220 1    
   197  100  101 1    
   198  100  102 1    
   199  100  221 1    
   200  101  222 1    
   201  101  223 1    
   202  101  224 1    
   203  102  103 2    
   204  102  104 am   BACKBONE|DICT|INTERRES
   205  104  105 1    
   206  104  225 1    
   207  105  106 1    
   208  105  107 1    
   209  105  226 1    
   210  106  227 1    
   211  106  228 1    
   212  106  229 1    
   213  107  108 2    
   214  107  109 am   BACKBONE|DICT|INTERRES
   215  109  110 1    
   216  109  230 1    
   217  110  111 1    
   218  110  112 1    
   219  110  231 1    
   220  111  232 1    
   221  111  233 1    
   222  111  234 1    
   223  112  113 2    
   224  112  114 am   BACKBONE|DICT|INTERRES
   225  114  115 1    
   226  114  235 1    
   227  115  116 1    
   228  115  117 1    
   229  115  236 1    
   230  116  237 1    
   231  116  238 1    
   232  116  239 1    
   233  117  118 2    
   234  117  119 am   BACKBONE|DICT|INTERRES
   235  119  120 1    
   236  119  240 1    
   237  120  121 1    
   238  120  124 1    
   239  120  241 1    
   240  121  122 am   BACKBONE|DICT|INTERRES
   241  121  123 2    
   242  122  242 1    
   243  122  243 1    
   244  124  125 1    
   245  124  244 1    
   246  124  245 1    
   247  125  126 1    
   248  126  246 1    
   249  126  247 1    
@<TRIPOS>SUBSTRUCTURE
     1 UNK         1 GROUP             0       ****    0 ROOT    
