@<TRIPOS>MOLECULE
3R540
247   249    1
SMALL
USER_CHARGES


@<TRIPOS>ATOM
      1 CA         -4.8871  -11.3516  -47.0434 C.3       0 UNK        -0.1800 
      2 C          -3.4067  -11.6740  -46.9091 C.2       0 UNK         0.5000 
      3 O          -2.6977  -11.0001  -46.1630 O.2       0 UNK        -0.5000 
      4 N          -2.9354  -12.7132  -47.6093 N.am      1 UNK        -0.5000 
      5 CA         -1.5392  -13.1696  -47.6078 C.3       1 UNK         0.1400 
      6 C6         -1.2622  -14.2194  -48.7113 C.3       23 UNK        -0.0398 
      7 S7         -2.4053  -15.6482  -48.6974 S.3       23 UNK        -0.2404 
      8 C8         -1.9644  -16.4754  -50.2586 C.3       23 UNK        -0.0205 
      9 C9         -0.6164  -17.1774  -50.1786 C.ar      23 UNK        -0.0193 
     10 C10         0.5546  -16.4944  -50.5168 C.ar      23 UNK        -0.1150 
     11 C11         1.7942  -17.1403  -50.4812 C.ar      23 UNK        -0.0193 
     12 C12         1.8564  -18.4796  -50.0876 C.ar      23 UNK        -0.1150 
     13 C13         0.6924  -19.1764  -49.7495 C.ar      23 UNK        -0.0193 
     14 C14        -0.5411  -18.5194  -49.7944 C.ar      23 UNK        -0.1150 
     15 C15         0.7729  -20.6517  -49.3899 C.3       23 UNK        -0.0205 
     16 S16         1.0637  -20.8979  -47.6125 S.3       23 UNK        -0.2404 
     17 C17        -0.6413  -20.9742  -46.9587 C.3       23 UNK        -0.0398 
     18 CA         -1.0231  -22.3933  -46.4767 C.3       11 UNK         0.1400 
     19 N          -0.0869  -22.9156  -45.4742 N.am      11 UNK        -0.5000 
     20 C          -0.0167  -24.1999  -45.0966 C.2       10 UNK         0.5000 
     21 O          -0.7553  -25.0734  -45.5467 O.2       10 UNK        -0.5000 
     22 CA          1.0116  -24.5754  -44.0117 C.3       10 UNK         0.1400 
     23 CB          2.2962  -25.1118  -44.6600 C.3       10 UNK        -0.1800 
     24 N           1.3562  -23.4684  -43.1199 N.am      10 UNK        -0.5000 
     25 C           0.5050  -22.8423  -42.2945 C.2       9 UNK         0.5000 
     26 O          -0.6736  -23.1700  -42.1545 O.2       9 UNK        -0.5000 
     27 CA          1.0526  -21.6036  -41.5543 C.3       9 UNK         0.1400 
     28 CB          1.5954  -21.9980  -40.1728 C.3       9 UNK        -0.1800 
     29 N           2.0999  -20.8949  -42.3034 N.am      9 UNK        -0.5000 
     30 C           1.9171  -20.3350  -43.5070 C.2       8 UNK         0.5000 
     31 O           0.8313  -20.3353  -44.0910 O.2       8 UNK        -0.5000 
     32 CA          3.1642  -19.7570  -44.1989 C.3       8 UNK         0.1400 
     33 CB          4.0506  -20.8961  -44.7294 C.3       8 UNK        -0.1800 
     34 N           2.7720  -18.9193  -45.3294 N.am      8 UNK        -0.5000 
     35 C           2.4953  -17.6149  -45.2532 C.2       7 UNK         0.5000 
     36 O           2.6581  -16.9310  -44.2388 O.2       7 UNK        -0.5000 
     37 CA          1.8872  -16.9891  -46.5187 C.3       7 UNK         0.1400 
     38 CB          0.3620  -17.1358  -46.4995 C.3       7 UNK        -0.1800 
     39 N           2.2155  -15.5722  -46.6202 N.am      7 UNK        -0.5000 
     40 C           3.3802  -15.0904  -47.0712 C.2       6 UNK         0.5000 
     41 O           4.2865  -15.7890  -47.5258 O.2       6 UNK        -0.5000 
     42 CA          3.5606  -13.5658  -46.9858 C.3       6 UNK         0.1400 
     43 CB          2.9205  -12.8754  -48.2010 C.3       6 UNK        -0.1800 
     44 N           2.9556  -13.0411  -45.7647 N.am      6 UNK        -0.5000 
     45 C           3.5308  -13.0562  -44.5557 C.2       5 UNK         0.5000 
     46 O           4.6951  -13.4095  -44.3600 O.2       5 UNK        -0.5000 
     47 CA          2.6424  -12.6152  -43.3723 C.3       5 UNK         0.1400 
     48 CB          3.4509  -12.1003  -42.1634 C.3       5 UNK        -0.1800 
     49 N           1.6011  -11.6573  -43.7601 N.am      5 UNK        -0.5000 
     50 C           1.7610  -10.4113  -44.2331 C.2       4 UNK         0.5000 
     51 O           2.8540   -9.8598  -44.3655 O.2       4 UNK        -0.5000 
     52 CA          0.4838   -9.6559  -44.6577 C.3       4 UNK         0.1400 
     53 CB          0.4038   -9.5759  -46.1905 C.3       4 UNK        -0.1800 
     54 N          -0.7489  -10.2694  -44.1596 N.am      4 UNK        -0.5000 
     55 C          -1.1629  -10.2525  -42.8853 C.2       3 UNK         0.5000 
     56 O          -0.5895   -9.6387  -41.9851 O.2       3 UNK        -0.5000 
     57 CA         -2.3990  -11.1102  -42.5595 C.3       3 UNK         0.1400 
     58 CB         -3.6963  -10.3334  -42.8323 C.3       3 UNK        -0.1800 
     59 N          -2.4095  -12.3658  -43.3155 N.am      3 UNK        -0.5000 
     60 C          -1.5925  -13.4024  -43.0771 C.2       2 UNK         0.5000 
     61 O          -0.7588  -13.4195  -42.1724 O.2       2 UNK        -0.5000 
     62 CA         -1.6957  -14.6066  -44.0300 C.3       2 UNK         0.1400 
     63 CB         -2.7906  -15.5789  -43.5680 C.3       2 UNK        -0.1800 
     64 N          -1.9597  -14.2017  -45.4106 N.am      2 UNK        -0.5000 
     65 C          -1.0491  -13.6505  -46.2242 C.2       1 UNK         0.5000 
     66 O           0.1322  -13.4895  -45.9129 O.2       1 UNK        -0.5000 
     67 C          -2.4828  -22.4174  -45.9755 C.2       11 UNK         0.5000 
     68 O          -3.3960  -22.5064  -46.7943 O.2       11 UNK        -0.5000 
     69 N          -2.6795  -22.3599  -44.6493 N.am      12 UNK        -0.5000 
     70 CA         -3.9871  -22.5007  -44.0078 C.3       12 UNK         0.1400 
     71 CB         -3.9402  -21.8538  -42.6152 C.3       12 UNK        -0.1800 
     72 C          -4.4319  -23.9728  -43.9098 C.2       12 UNK         0.5000 
     73 O          -5.6337  -24.2414  -43.9160 O.2       12 UNK        -0.5000 
     74 N          -3.4638  -24.8959  -43.8179 N.am      13 UNK        -0.5000 
     75 CA         -3.6954  -26.3411  -43.7967 C.3       13 UNK         0.1400 
     76 CB         -2.4950  -27.0355  -43.1344 C.3       13 UNK        -0.1800 
     77 C          -3.9477  -26.9122  -45.2052 C.2       13 UNK         0.5000 
     78 O          -4.7081  -27.8717  -45.3432 O.2       13 UNK        -0.5000 
     79 N          -3.3023  -26.3184  -46.2181 N.am      14 UNK        -0.5000 
     80 CA         -3.4372  -26.6499  -47.6357 C.3       14 UNK         0.1400 
     81 CB         -2.4052  -25.8319  -48.4299 C.3       14 UNK        -0.1800 
     82 C          -4.8535  -26.3949  -48.1884 C.2       14 UNK         0.5000 
     83 O          -5.5913  -25.5572  -47.6628 O.2       14 UNK        -0.5000 
     84 N          -5.1897  -27.1099  -49.2692 N.am      15 UNK        -0.5000 
     85 CA         -6.4209  -26.9291  -50.0381 C.3       15 UNK         0.1400 
     86 CB         -6.5512  -28.0885  -51.0382 C.3       15 UNK        -0.1800 
     87 C          -6.4299  -25.5842  -50.7864 C.2       15 UNK         0.5000 
     88 O          -5.3644  -25.0734  -51.1397 O.2       15 UNK        -0.5000 
     89 N          -7.6312  -25.0632  -51.0677 N.am      16 UNK        -0.5000 
     90 CA         -7.8581  -23.7779  -51.7394 C.3       16 UNK         0.1400 
     91 CB         -9.3685  -23.5089  -51.8146 C.3       16 UNK        -0.1800 
     92 C          -7.2229  -23.6689  -53.1399 C.2       16 UNK         0.5000 
     93 O          -6.8119  -22.5787  -53.5337 O.2       16 UNK        -0.5000 
     94 N          -7.1261  -24.8011  -53.8505 N.am      17 UNK        -0.5000 
     95 CA         -6.4708  -24.9090  -55.1548 C.3       17 UNK         0.1400 
     96 CB         -6.8577  -26.2487  -55.7994 C.3       17 UNK        -0.1800 
     97 C          -4.9373  -24.7728  -55.0756 C.2       17 UNK         0.5000 
     98 O          -4.3266  -24.2827  -56.0253 O.2       17 UNK        -0.5000 
     99 N          -4.3443  -25.1992  -53.9520 N.am      18 UNK        -0.5000 
    100 CA        -2.9126  -25.0835  -53.6777 C.3       18 UNK         0.1400 
    101 CB        -2.4768  -26.2179  -52.7370 C.3       18 UNK        -0.1800 
    102 C         -2.5818  -23.7077  -53.0789 C.2       18 UNK         0.5000 
    103 O         -1.6357  -23.0603  -53.5254 O.2       18 UNK        -0.5000 
    104 N         -3.4066  -23.2632  -52.1195 N.am      19 UNK        -0.5000 
    105 CA        -3.3088  -21.9739  -51.4272 C.3       19 UNK         0.1400 
    106 CB        -4.2379  -22.0020  -50.2041 C.3       19 UNK        -0.1800 
    107 C         -3.6029  -20.7464  -52.3173 C.2       19 UNK         0.5000 
    108 O         -3.4096  -19.6156  -51.8700 O.2       19 UNK        -0.5000 
    109 N         -4.0469  -20.9791  -53.5609 N.am      20 UNK        -0.5000 
    110 CA        -4.1615  -19.9783  -54.6214 C.3       20 UNK         0.1400 
    111 CB        -4.8976  -20.5989  -55.8186 C.3       20 UNK        -0.1800 
    112 C         -2.7957  -19.4117  -55.0631 C.2       20 UNK         0.5000 
    113 O         -2.7448  -18.2773  -55.5388 O.2       20 UNK        -0.5000 
    114 N         -1.7220  -20.1933  -54.8821 N.am      21 UNK        -0.5000 
    115 CA        -0.3364  -19.7429  -54.9719 C.3       21 UNK         0.1400 
    116 CB         0.4978  -20.8432  -55.6457 C.3       21 UNK        -0.1800 
    117 C          0.1726  -19.4811  -53.5382 C.2       21 UNK         0.5000 
    118 O         -0.2193  -20.2202  -52.6365 O.2       21 UNK        -0.5000 
    119 N          1.0477  -18.4981  -53.2851 N.am      22 UNK        -0.5000 
    120 CA         1.6619  -17.5467  -54.2256 C.3       22 UNK         0.1400 
    121 C          0.7211  -16.4109  -54.7304 C.2       22 UNK         0.5000 
    122 N         -0.4529  -16.2174  -54.1428 N.am      22 UNK        -0.7600 
    123 O          1.0530  -15.7190  -55.6885 O.2       22 UNK        -0.5000 
    124 C124        3.0201  -17.0172  -53.6770 C.3       23 UNK        -0.0398 
    125 S125        2.9432  -15.6051  -52.5100 S.3       23 UNK        -0.2404 
    126 C126        3.0641  -16.3977  -50.8726 C.3       23 UNK        -0.0205 
    127 H127       -5.3718  -11.4053  -46.0685 H         1 UNK         0.0600 
    128 H128       -5.3936  -12.0448  -47.7153 H         1 UNK         0.0600 
    129 H129       -5.0156  -10.3422  -47.4338 H         1 UNK         0.0600 
    130 H130       -3.5632  -13.2470  -48.1944 H         1 UNK         0.3000 
    131 H131       -0.9300  -12.2957  -47.8476 H         1 UNK         0.0600 
    132 H132       -1.3398  -13.7367  -49.6864 H         1 UNK         0.0800 
    133 H133       -0.2347  -14.5796  -48.6418 H         1 UNK         0.0800 
    134 H134       -2.7411  -17.2028  -50.5000 H         1 UNK         0.0800 
    135 H135       -1.9677  -15.7506  -51.0740 H         1 UNK         0.0800 
    136 H136        0.5015  -15.4602  -50.8264 H         1 UNK         0.1150 
    137 H137        2.8096  -18.9888  -50.0581 H         1 UNK         0.1150 
    138 H138       -1.4470  -19.0570  -49.5538 H         1 UNK         0.1150 
    139 H139       -0.1307  -21.1744  -49.7076 H         1 UNK         0.0800 
    140 H140        1.5907  -21.1151  -49.9437 H         1 UNK         0.0800 
    141 H141       -1.3398  -20.6311  -47.7232 H         1 UNK         0.0800 
    142 H142       -0.7301  -20.2644  -46.1368 H         1 UNK         0.0800 
    143 H143       -0.9765  -23.0571  -47.3428 H         1 UNK         0.0600 
    144 H144        0.5160  -22.2296  -45.0364 H         1 UNK         0.3000 
    145 H145        0.5733  -25.3706  -43.4052 H         1 UNK         0.0600 
    146 H146        3.0041  -25.4585  -43.9069 H         1 UNK         0.0600 
    147 H147        2.0797  -25.9576  -45.3141 H         1 UNK         0.0600 
    148 H148        2.7914  -24.3490  -45.2625 H         1 UNK         0.0600 
    149 H149        2.3050  -23.1290  -43.1686 H         1 UNK         0.3000 
    150 H150        0.2184  -20.9136  -41.4112 H         1 UNK         0.0600 
    151 H151        2.4508  -22.6699  -40.2525 H         1 UNK         0.0600 
    152 H152        0.8312  -22.5076  -39.5843 H         1 UNK         0.0600 
    153 H153        1.9079  -21.1206  -39.6063 H         1 UNK         0.0600 
    154 H154        3.0166  -20.8671  -41.8801 H         1 UNK         0.3000 
    155 H155        3.7320  -19.1694  -43.4745 H         1 UNK         0.0600 
    156 H156        3.5107  -21.5355  -45.4297 H         1 UNK         0.0600 
    157 H157        4.4119  -21.5286  -43.9177 H         1 UNK         0.0600 
    158 H158        4.9273  -20.5036  -45.2450 H         1 UNK         0.0600 
    159 H159        2.5214  -19.4172  -46.1731 H         1 UNK         0.3000 
    160 H160        2.2764  -17.5089  -47.3965 H         1 UNK         0.0600 
    161 H161       -0.0834  -16.6564  -45.6292 H         1 UNK         0.0600 
    162 H162        0.0717  -18.1835  -46.4800 H         1 UNK         0.0600 
    163 H163       -0.0790  -16.6987  -47.3910 H         1 UNK         0.0600 
    164 H164        1.5442  -14.9228  -46.2281 H         1 UNK         0.3000 
    165 H165        4.6299  -13.3442  -46.9864 H         1 UNK         0.0600 
    166 H166        3.3645  -13.2320  -49.1312 H         1 UNK         0.0600 
    167 H167        1.8477  -13.0635  -48.2554 H         1 UNK         0.0600 
    168 H168        3.0685  -11.7960  -48.1625 H         1 UNK         0.0600 
    169 H169        1.9695  -12.8071  -45.8144 H         1 UNK         0.3000 
    170 H170        2.1130  -13.5134  -43.0508 H         1 UNK         0.0600 
    171 H171        4.1101  -12.8775  -41.7752 H         1 UNK         0.0600 
    172 H172        4.0748  -11.2455  -42.4253 H         1 UNK         0.0600 
    173 H173        2.7919  -11.7992  -41.3490 H         1 UNK         0.0600 
    174 H174        0.6554  -12.0087  -43.7063 H         1 UNK         0.3000 
    175 H175        0.5504   -8.6411  -44.2605 H         1 UNK         0.0600 
    176 H176       -0.4755   -9.0174  -46.5121 H         1 UNK         0.0600 
    177 H177        1.2785   -9.0720  -46.6036 H         1 UNK         0.0600 
    178 H178        0.3539  -10.5678  -46.6406 H         1 UNK         0.0600 
    179 H179       -1.3377  -10.7279  -44.8505 H         1 UNK         0.3000 
    180 H180       -2.3669  -11.3507  -41.4947 H         1 UNK         0.0600 
    181 H181       -3.7929  -10.0587  -43.8830 H         1 UNK         0.0600 
    182 H182       -3.7268   -9.4118  -42.2497 H         1 UNK         0.0600 
    183 H183       -4.5725  -10.9204  -42.5571 H         1 UNK         0.0600 
    184 H184       -3.0292  -12.4083  -44.1108 H         1 UNK         0.3000 
    185 H185       -0.7393  -15.1320  -43.9948 H         1 UNK         0.0600 
    186 H186       -2.6101  -15.9123  -42.5452 H         1 UNK         0.0600 
    187 H187       -3.7786  -15.1177  -43.5943 H         1 UNK         0.0600 
    188 H188       -2.8175  -16.4679  -44.1986 H         1 UNK         0.0600 
    189 H189       -2.9024  -14.3162  -45.7531 H         1 UNK         0.3000 
    190 H190       -1.8772  -22.2973  -44.0366 H         1 UNK         0.3000 
    191 H191       -4.7315  -21.9662  -44.6021 H         1 UNK         0.0600 
    192 H192       -3.6501  -20.8047  -42.6763 H         1 UNK         0.0600 
    193 H193       -4.9189  -21.8931  -42.1354 H         1 UNK         0.0600 
    194 H194       -3.2337  -22.3602  -41.9571 H         1 UNK         0.0600 
    195 H195       -2.5018  -24.5897  -43.8213 H         1 UNK         0.3000 
    196 H196       -4.5796  -26.5468  -43.1894 H         1 UNK         0.0600 
    197 H197       -2.6638  -28.1101  -43.0543 H         1 UNK         0.0600 
    198 H198       -2.3265  -26.6567  -42.1261 H         1 UNK         0.0600 
    199 H199       -1.5772  -26.8912  -43.7048 H         1 UNK         0.0600 
    200 H200       -2.6376  -25.5869  -45.9939 H         1 UNK         0.3000 
    201 H201       -3.2071  -27.7111  -47.7498 H         1 UNK         0.0600 
    202 H202       -2.4327  -26.0849  -49.4896 H         1 UNK         0.0600 
    203 H203       -2.5941  -24.7612  -48.3458 H         1 UNK         0.0600 
    204 H204       -1.3911  -26.0235  -48.0791 H         1 UNK         0.0600 
    205 H205       -4.5148  -27.7517  -49.6576 H         1 UNK         0.3000 
    206 H206       -7.2671  -26.9557  -49.3485 H         1 UNK         0.0600 
    207 H207       -6.5677  -29.0509  -50.5263 H         1 UNK         0.0600 
    208 H208       -7.4765  -28.0125  -51.6107 H         1 UNK         0.0600 
    209 H209       -5.7249  -28.1013  -51.7505 H         1 UNK         0.0600 
    210 H210       -8.4581  -25.5562  -50.7624 H         1 UNK         0.3000 
    211 H211       -7.4074  -23.0017  -51.1187 H         1 UNK         0.0600 
    212 H212       -9.8856  -24.2754  -52.3931 H         1 UNK         0.0600 
    213 H213       -9.5713  -22.5473  -52.2883 H         1 UNK         0.0600 
    214 H214       -9.8146  -23.4790  -50.8203 H         1 UNK         0.0600 
    215 H215       -7.4984  -25.6508  -53.4532 H         1 UNK         0.3000 
    216 H216       -6.8417  -24.1033  -55.7921 H         1 UNK         0.0600 
    217 H217       -6.4043  -26.3525  -56.7861 H         1 UNK         0.0600 
    218 H218       -7.9373  -26.3267  -55.9297 H         1 UNK         0.0600 
    219 H219       -6.5292  -27.0961  -55.1962 H         1 UNK         0.0600 
    220 H220       -4.9231  -25.5183  -53.1860 H         1 UNK         0.3000 
    221 H221       -2.3528  -25.1892  -54.6096 H         1 UNK         0.0600 
    222 H222       -3.0268  -26.1997  -51.7966 H         1 UNK         0.0600 
    223 H223       -2.6387  -27.1924  -53.1977 H         1 UNK         0.0600 
    224 H224       -1.4151  -26.1422  -52.4991 H         1 UNK         0.0600 
    225 H225       -4.1545  -23.8790  -51.8061 H         1 UNK         0.3000 
    226 H226       -2.2819  -21.8668  -51.0719 H         1 UNK         0.0600 
    227 H227       -4.1278  -21.0968  -49.6057 H         1 UNK         0.0600 
    228 H228       -5.2840  -22.0775  -50.4997 H         1 UNK         0.0600 
    229 H229       -4.0125  -22.8483  -49.5544 H         1 UNK         0.0600 
    230 H230       -4.2416  -21.9350  -53.8198 H         1 UNK         0.3000 
    231 H231       -4.7592  -19.1481  -54.2398 H         1 UNK         0.0600 
    232 H232       -4.3543  -21.4527  -56.2253 H         1 UNK         0.0600 
    233 H233       -5.0176  -19.8721  -56.6230 H         1 UNK         0.0600 
    234 H234       -5.8946  -20.9382  -55.5378 H         1 UNK         0.0600 
    235 H235       -1.8483  -21.0830  -54.4115 H         1 UNK         0.3000 
    236 H236       -0.2811  -18.8434  -55.5831 H         1 UNK         0.0600 
    237 H237        1.5414  -20.5416  -55.7404 H         1 UNK         0.0600 
    238 H238        0.4749  -21.7723  -55.0741 H         1 UNK         0.0600 
    239 H239        0.1281  -21.0589  -56.6483 H         1 UNK         0.0600 
    240 H240        1.3038  -18.3523  -52.3185 H         1 UNK         0.3000 
    241 H241        1.9132  -18.1232  -55.1169 H         1 UNK         0.0600 
    242 H242       -0.7315  -16.7823  -53.3572 H         1 UNK         0.3800 
    243 H243       -1.0673  -15.4981  -54.4895 H         1 UNK         0.3800 
    244 H244        3.6273  -16.6831  -54.5197 H         1 UNK         0.0800 
    245 H245        3.5901  -17.8302  -53.2251 H         1 UNK         0.0800 
    246 H246        3.9325  -17.0579  -50.8527 H         1 UNK         0.0800 
    247 H247        3.2514  -15.6238  -50.1283 H         1 UNK         0.0800 
@<TRIPOS>BOND
     1    1    2 1    
     2    1  127 1    
     3    1  128 1    
     4    1  129 1    
     5    2    3 2    
     6    2    4 am   BACKBONE|DICT|INTERRES
     7    4    5 1    
     8    4  130 1    
     9    5    6 1    
    10    5   65 1    
    11    5  131 1    
    12    6    7 1    
    13    6  132 1    
    14    6  133 1    
    15    7    8 1    
    16    8    9 1    
    17    8  134 1    
    18    8  135 1    
    19    9   10 ar   
    20    9   14 ar   
    21   10   11 ar   
    22   10  136 1    
    23   11   12 ar   
    24   11  126 1    
    25   12   13 ar   
    26   12  137 1    
    27   13   14 ar   
    28   13   15 1    
    29   14  138 1    
    30   15   16 1    
    31   15  139 1    
    32   15  140 1    
    33   16   17 1    
    34   17   18 1    
    35   17  141 1    
    36   17  142 1    
    37   18   19 1    
    38   18   67 1    
    39   18  143 1    
    40   19   20 am   BACKBONE|DICT|INTERRES
    41   19  144 1    
    42   20   21 2    
    43   20   22 1    
    44   22   23 1    
    45   22   24 1    
    46   22  145 1    
    47   23  146 1    
    48   23  147 1    
    49   23  148 1    
    50   24   25 am   BACKBONE|DICT|INTERRES
    51   24  149 1    
    52   25   26 2    
    53   25   27 1    
    54   27   28 1    
    55   27   29 1    
    56   27  150 1    
    57   28  151 1    
    58   28  152 1    
    59   28  153 1    
    60   29   30 am   BACKBONE|DICT|INTERRES
    61   29  154 1    
    62   30   31 2    
    63   30   32 1    
    64   32   33 1    
    65   32   34 1    
    66   32  155 1    
    67   33  156 1    
    68   33  157 1    
    69   33  158 1    
    70   34   35 am   BACKBONE|DICT|INTERRES
    71   34  159 1    
    72   35   36 2    
    73   35   37 1    
    74   37   38 1    
    75   37   39 1    
    76   37  160 1    
    77   38  161 1    
    78   38  162 1    
    79   38  163 1    
    80   39   40 am   BACKBONE|DICT|INTERRES
    81   39  164 1    
    82   40   41 2    
    83   40   42 1    
    84   42   43 1    
    85   42   44 1    
    86   42  165 1    
    87   43  166 1    
    88   43  167 1    
    89   43  168 1    
    90   44   45 am   BACKBONE|DICT|INTERRES
    91   44  169 1    
    92   45   46 2    
    93   45   47 1    
    94   47   48 1    
    95   47   49 1    
    96   47  170 1    
    97   48  171 1    
    98   48  172 1    
    99   48  173 1    
   100   49   50 am   BACKBONE|DICT|INTERRES
   101   49  174 1    
   102   50   51 2    
   103   50   52 1    
   104   52   53 1    
   105   52   54 1    
   106   52  175 1    
   107   53  176 1    
   108   53  177 1    
   109   53  178 1    
   110   54   55 am   BACKBONE|DICT|INTERRES
   111   54  179 1    
   112   55   56 2    
   113   55   57 1    
   114   57   58 1    
   115   57   59 1    
   116   57  180 1    
   117   58  181 1    
   118   58  182 1    
   119   58  183 1    
   120   59   60 am   BACKBONE|DICT|INTERRES
   121   59  184 1    
   122   60   61 2    
   123   60   62 1    
   124   62   63 1    
   125   62   64 1    
   126   62  185 1    
   127   63  186 1    
   128   63  187 1    
   129   63  188 1    
   130   64   65 am   BACKBONE|DICT|INTERRES
   131   64  189 1    
   132   65   66 2    
   133   67   68 2    
   134   67   69 am   BACKBONE|DICT|INTERRES
   135   69   70 1    
   136   69  190 1    
   137   70   71 1    
   138   70   72 1    
   139   70  191 1    
   140   71  192 1    
   141   71  193 1    
   142   71  194 1    
   143   72   73 2    
   144   72   74 am   BACKBONE|DICT|INTERRES
   145   74   75 1    
   146   74  195 1    
   147   75   76 1    
   148   75   77 1    
   149   75  196 1    
   150   76  197 1    
   151   76  198 1    
   152   76  199 1    
   153   77   78 2    
   154   77   79 am   BACKBONE|DICT|INTERRES
   155   79   80 1    
   156   79  200 1    
   157   80   81 1    
   158   80   82 1    
   159   80  201 1    
   160   81  202 1    
   161   81  203 1    
   162   81  204 1    
   163   82   83 2    
   164   82   84 am   BACKBONE|DICT|INTERRES
   165   84   85 1    
   166   84  205 1    
   167   85   86 1    
   168   85   87 1    
   169   85  206 1    
   170   86  207 1    
   171   86  208 1    
   172   86  209 1    
   173   87   88 2    
   174   87   89 am   BACKBONE|DICT|INTERRES
   175   89   90 1    
   176   89  210 1    
   177   90   91 1    
   178   90   92 1    
   179   90  211 1    
   180   91  212 1    
   181   91  213 1    
   182   91  214 1    
   183   92   93 2    
   184   92   94 am   BACKBONE|DICT|INTERRES
   185   94   95 1    
   186   94  215 1    
   187   95   96 1    
   188   95   97 1    
   189   95  216 1    
   190   96  217 1    
   191   96  218 1    
   192   96  219 1    
   193   97   98 2    
   194   97   99 am   BACKBONE|DICT|INTERRES
   195   99  100 1    
   196   99  220 1    
   197  100  101 1    
   198  100  102 1    
   199  100  221 1    
   200  101  222 1    
   201  101  223 1    
   202  101  224 1    
   203  102  103 2    
   204  102  104 am   BACKBONE|DICT|INTERRES
   205  104  105 1    
   206  104  225 1    
   207  105  106 1    
   208  105  107 1    
   209  105  226 1    
   210  106  227 1    
   211  106  228 1    
   212  106  229 1    
   213  107  108 2    
   214  107  109 am   BACKBONE|DICT|INTERRES
   215  109  110 1    
   216  109  230 1    
   217  110  111 1    
   218  110  112 1    
   219  110  231 1    
   220  111  232 1    
   221  111  233 1    
   222  111  234 1    
   223  112  113 2    
   224  112  114 am   BACKBONE|DICT|INTERRES
   225  114  115 1    
   226  114  235 1    
   227  115  116 1    
   228  115  117 1    
   229  115  236 1    
   230  116  237 1    
   231  116  238 1    
   232  116  239 1    
   233  117  118 2    
   234  117  119 am   BACKBONE|DICT|INTERRES
   235  119  120 1    
   236  119  240 1    
   237  120  121 1    
   238  120  124 1    
   239  120  241 1    
   240  121  122 am   BACKBONE|DICT|INTERRES
   241  121  123 2    
   242  122  242 1    
   243  122  243 1    
   244  124  125 1    
   245  124  244 1    
   246  124  245 1    
   247  125  126 1    
   248  126  246 1    
   249  126  247 1    
@<TRIPOS>SUBSTRUCTURE
     1 UNK         1 GROUP             0       ****    0 ROOT    
