@<TRIPOS>MOLECULE
3R540
247   249    1
SMALL
USER_CHARGES


@<TRIPOS>ATOM
      1 CA         -0.7134  -13.2156  -50.5848 C.3       0 UNK        -0.1800 
      2 C           0.3130  -13.3409  -49.4705 C.2       0 UNK         0.5000 
      3 O           0.4716  -12.4159  -48.6740 O.2       0 UNK        -0.5000 
      4 N           1.0058  -14.4864  -49.3966 N.am      1 UNK        -0.5000 
      5 CA          2.0734  -14.7527  -48.4211 C.3       1 UNK         0.1400 
      6 C6          3.0223  -15.8941  -48.8811 C.3       23 UNK        -0.0398 
      7 S7          2.4168  -17.6066  -48.6655 S.3       23 UNK        -0.2404 
      8 C8          1.9276  -18.0906  -50.3534 C.3       23 UNK        -0.0205 
      9 C9          0.6045  -17.4759  -50.7909 C.ar      23 UNK        -0.0193 
     10 C10         0.4918  -16.8868  -52.0530 C.ar      23 UNK        -0.1150 
     11 C11        -0.7198  -16.3309  -52.4742 C.ar      23 UNK        -0.0193 
     12 C12        -1.8246  -16.3587  -51.6179 C.ar      23 UNK        -0.1150 
     13 C13        -1.7234  -16.9404  -50.3514 C.ar      23 UNK        -0.0193 
     14 C14        -0.5128  -17.5093  -49.9501 C.ar      23 UNK        -0.1150 
     15 C15        -2.9086  -16.9357  -49.4021 C.3       23 UNK        -0.0205 
     16 S16        -3.8905  -18.4580  -49.5662 S.3       23 UNK        -0.2404 
     17 C17        -4.1934  -18.9292  -47.8253 C.3       23 UNK        -0.0398 
     18 CA         -3.7500  -20.3846  -47.5517 C.3       11 UNK         0.1400 
     19 N          -2.3188  -20.5940  -47.7996 N.am      11 UNK        -0.5000 
     20 C          -1.7449  -21.7942  -47.9438 C.2       10 UNK         0.5000 
     21 O          -2.3581  -22.8570  -47.8518 O.2       10 UNK        -0.5000 
     22 CA         -0.2301  -21.8154  -48.2062 C.3       10 UNK         0.1400 
     23 CB          0.0326  -21.5914  -49.7011 C.3       10 UNK        -0.1800 
     24 N           0.5408  -20.8354  -47.4348 N.am      10 UNK        -0.5000 
     25 C           0.4974  -20.6668  -46.1065 C.2       9 UNK         0.5000 
     26 O          -0.2866  -21.2551  -45.3603 O.2       9 UNK        -0.5000 
     27 CA          1.4383  -19.5995  -45.5324 C.3       9 UNK         0.1400 
     28 CB          0.7482  -18.2379  -45.6032 C.3       9 UNK        -0.1800 
     29 N           1.8092  -19.8547  -44.1416 N.am      9 UNK        -0.5000 
     30 C           2.5656  -20.8788  -43.7214 C.2       8 UNK         0.5000 
     31 O           3.0625  -21.7107  -44.4820 O.2       8 UNK        -0.5000 
     32 CA          2.8521  -20.9852  -42.2078 C.3       8 UNK         0.1400 
     33 CB          4.3324  -20.6883  -41.9185 C.3       8 UNK        -0.1800 
     34 N           2.0331  -20.0854  -41.3938 N.am      8 UNK        -0.5000 
     35 C           0.7567  -20.3045  -41.0526 C.2       7 UNK         0.5000 
     36 O           0.1490  -21.3382  -41.3281 O.2       7 UNK        -0.5000 
     37 CA          0.0326  -19.1839  -40.2753 C.3       7 UNK         0.1400 
     38 CB         -0.1446  -19.5801  -38.8015 C.3       7 UNK        -0.1800 
     39 N           0.6910  -17.8725  -40.3353 N.am      7 UNK        -0.5000 
     40 C           0.8174  -17.1243  -41.4386 C.2       6 UNK         0.5000 
     41 O           0.4180  -17.4802  -42.5465 O.2       6 UNK        -0.5000 
     42 CA          1.4950  -15.7526  -41.2705 C.3       6 UNK         0.1400 
     43 CB          2.4219  -15.4210  -42.4508 C.3       6 UNK        -0.1800 
     44 N           0.4902  -14.7015  -41.1408 N.am      6 UNK        -0.5000 
     45 C          -0.2143  -14.4567  -40.0295 C.2       5 UNK         0.5000 
     46 O          -0.0563  -15.0747  -38.9742 O.2       5 UNK        -0.5000 
     47 CA         -1.2560  -13.3229  -40.1247 C.3       5 UNK         0.1400 
     48 CB         -1.9039  -12.9768  -38.7674 C.3       5 UNK        -0.1800 
     49 N          -0.7283  -12.1155  -40.7709 N.am      5 UNK        -0.5000 
     50 C           0.3035  -11.3526  -40.3729 C.2       4 UNK         0.5000 
     51 O           0.9723  -11.5743  -39.3621 O.2       4 UNK        -0.5000 
     52 CA          0.6161  -10.1139  -41.2449 C.3       4 UNK         0.1400 
     53 CB          2.0798   -9.6380  -41.1225 C.3       4 UNK        -0.1800 
     54 N           0.2173  -10.2799  -42.6497 N.am      4 UNK        -0.5000 
     55 C           0.7347  -11.1404  -43.5380 C.2       3 UNK         0.5000 
     56 O           1.7227  -11.8477  -43.3287 O.2       3 UNK        -0.5000 
     57 CA         -0.0054  -11.2307  -44.8887 C.3       3 UNK         0.1400 
     58 CB          0.6664  -10.3223  -45.9290 C.3       3 UNK        -0.1800 
     59 N          -0.0800  -12.5935  -45.4228 N.am      3 UNK        -0.5000 
     60 C          -0.5151  -13.6786  -44.7625 C.2       2 UNK         0.5000 
     61 O          -0.9615  -13.6455  -43.6134 O.2       2 UNK        -0.5000 
     62 CA         -0.4555  -15.0354  -45.4922 C.3       2 UNK         0.1400 
     63 CB         -1.8667  -15.6045  -45.7102 C.3       2 UNK        -0.1800 
     64 N           0.2418  -15.0010  -46.7811 N.am      2 UNK        -0.5000 
     65 C           1.5682  -14.9030  -46.9633 C.2       1 UNK         0.5000 
     66 O           2.3816  -14.8928  -46.0403 O.2       1 UNK        -0.5000 
     67 C          -4.2032  -20.8638  -46.1556 C.2       11 UNK         0.5000 
     68 O          -5.3872  -21.1535  -45.9820 O.2       11 UNK        -0.5000 
     69 N          -3.2676  -20.9598  -45.2021 N.am      12 UNK        -0.5000 
     70 CA         -3.5130  -21.4361  -43.8442 C.3       12 UNK         0.1400 
     71 CB         -2.7918  -20.5066  -42.8541 C.3       12 UNK        -0.1800 
     72 C          -3.0464  -22.8914  -43.6752 C.2       12 UNK         0.5000 
     73 O          -3.8077  -23.7201  -43.1756 O.2       12 UNK        -0.5000 
     74 N          -1.8056  -23.1771  -44.0882 N.am      13 UNK        -0.5000 
     75 CA         -1.1200  -24.4453  -43.8461 C.3       13 UNK         0.1400 
     76 CB          0.3967  -24.2089  -43.9171 C.3       13 UNK        -0.1800 
     77 C          -1.5275  -25.5695  -44.8131 C.2       13 UNK         0.5000 
     78 O          -1.5031  -26.7348  -44.4147 O.2       13 UNK        -0.5000 
     79 N          -1.8738  -25.2154  -46.0574 N.am      14 UNK        -0.5000 
     80 CA         -2.1866  -26.1586  -47.1358 C.3       14 UNK         0.1400 
     81 CB         -1.1162  -26.0261  -48.2356 C.3       14 UNK        -0.1800 
     82 C          -3.6002  -25.9433  -47.7046 C.2       14 UNK         0.5000 
     83 O          -3.9139  -26.5010  -48.7561 O.2       14 UNK        -0.5000 
     84 N          -4.4190  -25.1147  -47.0369 N.am      15 UNK        -0.5000 
     85 CA         -5.7840  -24.7261  -47.4215 C.3       15 UNK         0.1400 
     86 CB         -6.7506  -25.9127  -47.2291 C.3       15 UNK        -0.1800 
     87 C          -5.8731  -24.1068  -48.8366 C.2       15 UNK         0.5000 
     88 O          -6.8708  -24.2937  -49.5341 O.2       15 UNK        -0.5000 
     89 N          -4.8051  -23.3983  -49.2297 N.am      16 UNK        -0.5000 
     90 CA         -4.5657  -22.7377  -50.5156 C.3       16 UNK         0.1400 
     91 CB         -5.6831  -21.7336  -50.8682 C.3       16 UNK        -0.1800 
     92 C          -4.2549  -23.6990  -51.6783 C.2       16 UNK         0.5000 
     93 O          -4.1212  -23.2297  -52.8065 O.2       16 UNK        -0.5000 
     94 N          -4.0809  -25.0041  -51.4158 N.am      17 UNK        -0.5000 
     95 CA         -3.7284  -25.9958  -52.4400 C.3       17 UNK         0.1400 
     96 CB         -3.8851  -27.4116  -51.8671 C.3       17 UNK        -0.1800 
     97 C          -2.3073  -25.7971  -53.0031 C.2       17 UNK         0.5000 
     98 O          -2.0700  -26.0773  -54.1780 O.2       17 UNK        -0.5000 
     99 N          -1.3991  -25.2844  -52.1619 N.am      18 UNK        -0.5000 
    100 CA        -0.0147  -24.9619  -52.5146 C.3       18 UNK         0.1400 
    101 CB         0.8478  -25.0398  -51.2437 C.3       18 UNK        -0.1800 
    102 C          0.1416  -23.5940  -53.2159 C.2       18 UNK         0.5000 
    103 O          1.2475  -23.2697  -53.6497 O.2       18 UNK        -0.5000 
    104 N         -0.9457  -22.8185  -53.3210 N.am      19 UNK        -0.5000 
    105 CA        -0.9945  -21.5076  -53.9689 C.3       19 UNK         0.1400 
    106 CB        -0.8411  -20.3960  -52.9132 C.3       19 UNK        -0.1800 
    107 C         -2.2883  -21.3856  -54.7907 C.2       19 UNK         0.5000 
    108 O         -2.9432  -20.3448  -54.7664 O.2       19 UNK        -0.5000 
    109 N         -2.6452  -22.4641  -55.5036 N.am      20 UNK        -0.5000 
    110 CA        -3.9184  -22.6257  -56.2163 C.3       20 UNK         0.1400 
    111 CB        -4.0040  -24.0627  -56.7533 C.3       20 UNK        -0.1800 
    112 C         -4.1705  -21.6062  -57.3472 C.2       20 UNK         0.5000 
    113 O         -5.3227  -21.4042  -57.7329 O.2       20 UNK        -0.5000 
    114 N         -3.1001  -20.9805  -57.8538 N.am      21 UNK        -0.5000 
    115 CA        -3.1529  -19.9003  -58.8387 C.3       21 UNK         0.1400 
    116 CB        -1.7653  -19.7540  -59.4828 C.3       21 UNK        -0.1800 
    117 C         -3.6147  -18.5515  -58.2470 C.2       21 UNK         0.5000 
    118 O         -4.0705  -17.6934  -59.0047 O.2       21 UNK        -0.5000 
    119 N         -3.4741  -18.3709  -56.9273 N.am      22 UNK        -0.5000 
    120 CA        -3.8686  -17.1545  -56.2031 C.3       22 UNK         0.1400 
    121 C         -5.4019  -17.0875  -55.9651 C.2       22 UNK         0.5000 
    122 N         -5.9820  -15.8947  -55.9709 N.am      22 UNK        -0.7600 
    123 O         -6.0672  -18.0955  -55.7381 O.2       22 UNK        -0.5000 
    124 C124       -3.0974  -17.0095  -54.8666 C.3       23 UNK        -0.0398 
    125 S125       -1.2939  -16.8766  -55.1277 S.3       23 UNK        -0.2404 
    126 C126       -0.8197  -15.6777  -53.8442 C.3       23 UNK        -0.0205 
    127 H127       -0.3554  -13.6875  -51.4988 H         1 UNK         0.0600 
    128 H128       -0.9106  -12.1667  -50.8065 H         1 UNK         0.0600 
    129 H129       -1.6517  -13.6850  -50.2901 H         1 UNK         0.0600 
    130 H130        0.8121  -15.2325  -50.0518 H         1 UNK         0.3000 
    131 H131        2.6900  -13.8510  -48.4068 H         1 UNK         0.0600 
    132 H132        3.9541  -15.8227  -48.3177 H         1 UNK         0.0800 
    133 H133        3.3106  -15.7400  -49.9217 H         1 UNK         0.0800 
    134 H134        1.8305  -19.1757  -50.3911 H         1 UNK         0.0800 
    135 H135        2.7299  -17.8338  -51.0467 H         1 UNK         0.0800 
    136 H136        1.3461  -16.8649  -52.7152 H         1 UNK         0.1150 
    137 H137       -2.7607  -15.9198  -51.9321 H         1 UNK         0.1150 
    138 H138       -0.4374  -17.9676  -48.9751 H         1 UNK         0.1150 
    139 H139       -2.5452  -16.8104  -48.3835 H         1 UNK         0.0800 
    140 H140       -3.5505  -16.0761  -49.6006 H         1 UNK         0.0800 
    141 H141       -5.2635  -18.8156  -47.6418 H         1 UNK         0.0800 
    142 H142       -3.6953  -18.2439  -47.1389 H         1 UNK         0.0800 
    143 H143       -4.2917  -21.0072  -48.2600 H         1 UNK         0.0600 
    144 H144       -1.7493  -19.7677  -47.8951 H         1 UNK         0.3000 
    145 H145        0.1334  -22.8082  -47.9338 H         1 UNK         0.0600 
    146 H146        1.0769  -21.7741  -49.9547 H         1 UNK         0.0600 
    147 H147       -0.5746  -22.2576  -50.3148 H         1 UNK         0.0600 
    148 H148       -0.2125  -20.5707  -49.9958 H         1 UNK         0.0600 
    149 H149        1.2034  -20.2849  -47.9615 H         1 UNK         0.3000 
    150 H150        2.3504  -19.5707  -46.1318 H         1 UNK         0.0600 
    151 H151        0.4369  -17.9931  -46.6178 H         1 UNK         0.0600 
    152 H152        1.4277  -17.4554  -45.2676 H         1 UNK         0.0600 
    153 H153       -0.1463  -18.2101  -44.9803 H         1 UNK         0.0600 
    154 H154        1.4093  -19.2276  -43.4548 H         1 UNK         0.3000 
    155 H155        2.6465  -22.0155  -41.9096 H         1 UNK         0.0600 
    156 H156        4.6010  -19.6695  -42.2005 H         1 UNK         0.0600 
    157 H157        4.9839  -21.3649  -42.4733 H         1 UNK         0.0600 
    158 H158        4.5612  -20.8163  -40.8603 H         1 UNK         0.0600 
    159 H159        2.4575  -19.2140  -41.1136 H         1 UNK         0.3000 
    160 H160       -0.9591  -19.0777  -40.7200 H         1 UNK         0.0600 
    161 H161        0.8159  -19.6831  -38.2951 H         1 UNK         0.0600 
    162 H162       -0.6672  -20.5334  -38.7120 H         1 UNK         0.0600 
    163 H163       -0.7325  -18.8378  -38.2612 H         1 UNK         0.0600 
    164 H164        1.0047  -17.4881  -39.4547 H         1 UNK         0.3000 
    165 H165        2.1083  -15.7729  -40.3671 H         1 UNK         0.0600 
    166 H166        1.8715  -15.3285  -43.3859 H         1 UNK         0.0600 
    167 H167        2.9480  -14.4805  -42.2852 H         1 UNK         0.0600 
    168 H168        3.1749  -16.1976  -42.5893 H         1 UNK         0.0600 
    169 H169        0.2576  -14.1832  -41.9808 H         1 UNK         0.3000 
    170 H170       -2.0464  -13.6964  -40.7776 H         1 UNK         0.0600 
    171 H171       -2.4021  -13.8476  -38.3396 H         1 UNK         0.0600 
    172 H172       -1.1671  -12.6330  -38.0409 H         1 UNK         0.0600 
    173 H173       -2.6562  -12.1958  -38.8774 H         1 UNK         0.0600 
    174 H174       -1.1758  -11.8699  -41.6428 H         1 UNK         0.3000 
    175 H175       -0.0134   -9.3144  -40.8517 H         1 UNK         0.0600 
    176 H176        2.7880  -10.4207  -41.3947 H         1 UNK         0.0600 
    177 H177        2.2695   -8.7753  -41.7610 H         1 UNK         0.0600 
    178 H178        2.3073   -9.3383  -40.0989 H         1 UNK         0.0600 
    179 H179       -0.5839   -9.7313  -42.9312 H         1 UNK         0.3000 
    180 H180       -1.0324  -10.8898  -44.7445 H         1 UNK         0.0600 
    181 H181        1.6764  -10.6613  -46.1632 H         1 UNK         0.0600 
    182 H182        0.7388   -9.2957  -45.5674 H         1 UNK         0.0600 
    183 H183        0.0972  -10.2984  -46.8585 H         1 UNK         0.0600 
    184 H184        0.2609  -12.7174  -46.3670 H         1 UNK         0.3000 
    185 H185        0.0756  -15.7080  -44.8210 H         1 UNK         0.0600 
    186 H186       -2.4475  -14.9901  -46.3990 H         1 UNK         0.0600 
    187 H187       -1.8237  -16.6169  -46.1102 H         1 UNK         0.0600 
    188 H188       -2.4186  -15.6576  -44.7707 H         1 UNK         0.0600 
    189 H189       -0.3395  -14.9804  -47.6054 H         1 UNK         0.3000 
    190 H190       -2.3006  -20.7742  -45.4414 H         1 UNK         0.3000 
    191 H191       -4.5795  -21.4013  -43.6119 H         1 UNK         0.0600 
    192 H192       -2.8871  -20.8703  -41.8302 H         1 UNK         0.0600 
    193 H193       -3.2112  -19.5010  -42.8840 H         1 UNK         0.0600 
    194 H194       -1.7276  -20.4267  -43.0781 H         1 UNK         0.0600 
    195 H195       -1.2394  -22.4361  -44.5004 H         1 UNK         0.3000 
    196 H196       -1.3589  -24.7780  -42.8337 H         1 UNK         0.0600 
    197 H197        0.7053  -23.8618  -44.9041 H         1 UNK         0.0600 
    198 H198        0.7116  -23.4618  -43.1883 H         1 UNK         0.0600 
    199 H199        0.9480  -25.1251  -43.7027 H         1 UNK         0.0600 
    200 H200       -1.8876  -24.2346  -46.3123 H         1 UNK         0.3000 
    201 H201       -2.1636  -27.1864  -46.7691 H         1 UNK         0.0600 
    202 H202       -1.1369  -25.0422  -48.7027 H         1 UNK         0.0600 
    203 H203       -1.2652  -26.7659  -49.0231 H         1 UNK         0.0600 
    204 H204       -0.1159  -26.1834  -47.8323 H         1 UNK         0.0600 
    205 H205       -4.0641  -24.6976  -46.1886 H         1 UNK         0.3000 
    206 H206       -6.0842  -23.9382  -46.7291 H         1 UNK         0.0600 
    207 H207       -6.6802  -26.3183  -46.2198 H         1 UNK         0.0600 
    208 H208       -7.7857  -25.6049  -47.3815 H         1 UNK         0.0600 
    209 H209       -6.5423  -26.7210  -47.9308 H         1 UNK         0.0600 
    210 H210       -4.0198  -23.3494  -48.5845 H         1 UNK         0.3000 
    211 H211       -3.6530  -22.1570  -50.3759 H         1 UNK         0.0600 
    212 H212       -5.3853  -21.1010  -51.7055 H         1 UNK         0.0600 
    213 H213       -5.9080  -21.0728  -50.0316 H         1 UNK         0.0600 
    214 H214       -6.6061  -22.2365  -51.1568 H         1 UNK         0.0600 
    215 H215       -4.1925  -25.3470  -50.4672 H         1 UNK         0.3000 
    216 H216       -4.4312  -25.8870  -53.2689 H         1 UNK         0.0600 
    217 H217       -3.1667  -27.6057  -51.0700 H         1 UNK         0.0600 
    218 H218       -3.7251  -28.1639  -52.6404 H         1 UNK         0.0600 
    219 H219       -4.8856  -27.5670  -51.4628 H         1 UNK         0.0600 
    220 H220       -1.6865  -25.0869  -51.2153 H         1 UNK         0.3000 
    221 H221        0.3547  -25.7171  -53.2116 H         1 UNK         0.0600 
    222 H222        0.8162  -26.0394  -50.8098 H         1 UNK         0.0600 
    223 H223        0.5159  -24.3367  -50.4815 H         1 UNK         0.0600 
    224 H224        1.8930  -24.8174  -51.4620 H         1 UNK         0.0600 
    225 H225       -1.8361  -23.1724  -52.9939 H         1 UNK         0.3000 
    226 H226       -0.1751  -21.4121  -54.6840 H         1 UNK         0.0600 
    227 H227       -1.6294  -20.4427  -52.1608 H         1 UNK         0.0600 
    228 H228        0.1201  -20.4687  -52.4057 H         1 UNK         0.0600 
    229 H229       -0.8836  -19.4069  -53.3702 H         1 UNK         0.0600 
    230 H230       -2.0500  -23.2789  -55.4667 H         1 UNK         0.3000 
    231 H231       -4.7178  -22.4898  -55.4848 H         1 UNK         0.0600 
    232 H232       -3.2001  -24.2764  -57.4585 H         1 UNK         0.0600 
    233 H233       -4.9495  -24.2334  -57.2698 H         1 UNK         0.0600 
    234 H234       -3.9437  -24.7894  -55.9428 H         1 UNK         0.0600 
    235 H235       -2.1920  -21.2143  -57.4812 H         1 UNK         0.3000 
    236 H236       -3.8634  -20.1776  -59.6203 H         1 UNK         0.0600 
    237 H237       -1.4527  -20.6814  -59.9631 H         1 UNK         0.0600 
    238 H238       -1.7702  -18.9782  -60.2496 H         1 UNK         0.0600 
    239 H239       -1.0071  -19.4829  -58.7470 H         1 UNK         0.0600 
    240 H240       -3.1609  -19.1408  -56.3454 H         1 UNK         0.3000 
    241 H241       -3.5995  -16.2994  -56.8270 H         1 UNK         0.0600 
    242 H242       -6.9748  -15.8336  -55.8050 H         1 UNK         0.3800 
    243 H243       -5.4601  -15.0510  -56.1520 H         1 UNK         0.3800 
    244 H244       -3.2979  -17.8500  -54.2010 H         1 UNK         0.0800 
    245 H245       -3.4413  -16.1196  -54.3376 H         1 UNK         0.0800 
    246 H246       -1.5240  -14.8448  -53.8239 H         1 UNK         0.0800 
    247 H247        0.1451  -15.2453  -54.1132 H         1 UNK         0.0800 
@<TRIPOS>BOND
     1    1    2 1    
     2    1  127 1    
     3    1  128 1    
     4    1  129 1    
     5    2    3 2    
     6    2    4 am   BACKBONE|DICT|INTERRES
     7    4    5 1    
     8    4  130 1    
     9    5    6 1    
    10    5   65 1    
    11    5  131 1    
    12    6    7 1    
    13    6  132 1    
    14    6  133 1    
    15    7    8 1    
    16    8    9 1    
    17    8  134 1    
    18    8  135 1    
    19    9   10 ar   
    20    9   14 ar   
    21   10   11 ar   
    22   10  136 1    
    23   11   12 ar   
    24   11  126 1    
    25   12   13 ar   
    26   12  137 1    
    27   13   14 ar   
    28   13   15 1    
    29   14  138 1    
    30   15   16 1    
    31   15  139 1    
    32   15  140 1    
    33   16   17 1    
    34   17   18 1    
    35   17  141 1    
    36   17  142 1    
    37   18   19 1    
    38   18   67 1    
    39   18  143 1    
    40   19   20 am   BACKBONE|DICT|INTERRES
    41   19  144 1    
    42   20   21 2    
    43   20   22 1    
    44   22   23 1    
    45   22   24 1    
    46   22  145 1    
    47   23  146 1    
    48   23  147 1    
    49   23  148 1    
    50   24   25 am   BACKBONE|DICT|INTERRES
    51   24  149 1    
    52   25   26 2    
    53   25   27 1    
    54   27   28 1    
    55   27   29 1    
    56   27  150 1    
    57   28  151 1    
    58   28  152 1    
    59   28  153 1    
    60   29   30 am   BACKBONE|DICT|INTERRES
    61   29  154 1    
    62   30   31 2    
    63   30   32 1    
    64   32   33 1    
    65   32   34 1    
    66   32  155 1    
    67   33  156 1    
    68   33  157 1    
    69   33  158 1    
    70   34   35 am   BACKBONE|DICT|INTERRES
    71   34  159 1    
    72   35   36 2    
    73   35   37 1    
    74   37   38 1    
    75   37   39 1    
    76   37  160 1    
    77   38  161 1    
    78   38  162 1    
    79   38  163 1    
    80   39   40 am   BACKBONE|DICT|INTERRES
    81   39  164 1    
    82   40   41 2    
    83   40   42 1    
    84   42   43 1    
    85   42   44 1    
    86   42  165 1    
    87   43  166 1    
    88   43  167 1    
    89   43  168 1    
    90   44   45 am   BACKBONE|DICT|INTERRES
    91   44  169 1    
    92   45   46 2    
    93   45   47 1    
    94   47   48 1    
    95   47   49 1    
    96   47  170 1    
    97   48  171 1    
    98   48  172 1    
    99   48  173 1    
   100   49   50 am   BACKBONE|DICT|INTERRES
   101   49  174 1    
   102   50   51 2    
   103   50   52 1    
   104   52   53 1    
   105   52   54 1    
   106   52  175 1    
   107   53  176 1    
   108   53  177 1    
   109   53  178 1    
   110   54   55 am   BACKBONE|DICT|INTERRES
   111   54  179 1    
   112   55   56 2    
   113   55   57 1    
   114   57   58 1    
   115   57   59 1    
   116   57  180 1    
   117   58  181 1    
   118   58  182 1    
   119   58  183 1    
   120   59   60 am   BACKBONE|DICT|INTERRES
   121   59  184 1    
   122   60   61 2    
   123   60   62 1    
   124   62   63 1    
   125   62   64 1    
   126   62  185 1    
   127   63  186 1    
   128   63  187 1    
   129   63  188 1    
   130   64   65 am   BACKBONE|DICT|INTERRES
   131   64  189 1    
   132   65   66 2    
   133   67   68 2    
   134   67   69 am   BACKBONE|DICT|INTERRES
   135   69   70 1    
   136   69  190 1    
   137   70   71 1    
   138   70   72 1    
   139   70  191 1    
   140   71  192 1    
   141   71  193 1    
   142   71  194 1    
   143   72   73 2    
   144   72   74 am   BACKBONE|DICT|INTERRES
   145   74   75 1    
   146   74  195 1    
   147   75   76 1    
   148   75   77 1    
   149   75  196 1    
   150   76  197 1    
   151   76  198 1    
   152   76  199 1    
   153   77   78 2    
   154   77   79 am   BACKBONE|DICT|INTERRES
   155   79   80 1    
   156   79  200 1    
   157   80   81 1    
   158   80   82 1    
   159   80  201 1    
   160   81  202 1    
   161   81  203 1    
   162   81  204 1    
   163   82   83 2    
   164   82   84 am   BACKBONE|DICT|INTERRES
   165   84   85 1    
   166   84  205 1    
   167   85   86 1    
   168   85   87 1    
   169   85  206 1    
   170   86  207 1    
   171   86  208 1    
   172   86  209 1    
   173   87   88 2    
   174   87   89 am   BACKBONE|DICT|INTERRES
   175   89   90 1    
   176   89  210 1    
   177   90   91 1    
   178   90   92 1    
   179   90  211 1    
   180   91  212 1    
   181   91  213 1    
   182   91  214 1    
   183   92   93 2    
   184   92   94 am   BACKBONE|DICT|INTERRES
   185   94   95 1    
   186   94  215 1    
   187   95   96 1    
   188   95   97 1    
   189   95  216 1    
   190   96  217 1    
   191   96  218 1    
   192   96  219 1    
   193   97   98 2    
   194   97   99 am   BACKBONE|DICT|INTERRES
   195   99  100 1    
   196   99  220 1    
   197  100  101 1    
   198  100  102 1    
   199  100  221 1    
   200  101  222 1    
   201  101  223 1    
   202  101  224 1    
   203  102  103 2    
   204  102  104 am   BACKBONE|DICT|INTERRES
   205  104  105 1    
   206  104  225 1    
   207  105  106 1    
   208  105  107 1    
   209  105  226 1    
   210  106  227 1    
   211  106  228 1    
   212  106  229 1    
   213  107  108 2    
   214  107  109 am   BACKBONE|DICT|INTERRES
   215  109  110 1    
   216  109  230 1    
   217  110  111 1    
   218  110  112 1    
   219  110  231 1    
   220  111  232 1    
   221  111  233 1    
   222  111  234 1    
   223  112  113 2    
   224  112  114 am   BACKBONE|DICT|INTERRES
   225  114  115 1    
   226  114  235 1    
   227  115  116 1    
   228  115  117 1    
   229  115  236 1    
   230  116  237 1    
   231  116  238 1    
   232  116  239 1    
   233  117  118 2    
   234  117  119 am   BACKBONE|DICT|INTERRES
   235  119  120 1    
   236  119  240 1    
   237  120  121 1    
   238  120  124 1    
   239  120  241 1    
   240  121  122 am   BACKBONE|DICT|INTERRES
   241  121  123 2    
   242  122  242 1    
   243  122  243 1    
   244  124  125 1    
   245  124  244 1    
   246  124  245 1    
   247  125  126 1    
   248  126  246 1    
   249  126  247 1    
@<TRIPOS>SUBSTRUCTURE
     1 UNK         1 GROUP             0       ****    0 ROOT    
