@<TRIPOS>MOLECULE
3R540
247   249    1
SMALL
USER_CHARGES


@<TRIPOS>ATOM
      1 CA         -7.5299  -10.9837  -50.9451 C.3       0 UNK        -0.1800 
      2 C          -6.5780  -12.1329  -50.6442 C.2       0 UNK         0.5000 
      3 O          -5.8177  -12.5427  -51.5206 O.2       0 UNK        -0.5000 
      4 N          -6.6234  -12.6571  -49.4131 N.am      1 UNK        -0.5000 
      5 CA         -5.7461  -13.7188  -48.9143 C.3       1 UNK         0.1400 
      6 C6         -6.2940  -14.2951  -47.5807 C.3       23 UNK        -0.0398 
      7 S7         -5.2799  -15.6270  -46.8502 S.3       23 UNK        -0.2404 
      8 C8         -5.9798  -17.0975  -47.6551 C.3       23 UNK        -0.0205 
      9 C9         -5.0141  -18.2634  -47.5431 C.ar      23 UNK        -0.0193 
     10 C10        -3.9842  -18.3997  -48.4768 C.ar      23 UNK        -0.1150 
     11 C11        -3.0739  -19.4529  -48.3779 C.ar      23 UNK        -0.0193 
     12 C12        -3.1964  -20.3718  -47.3326 C.ar      23 UNK        -0.1150 
     13 C13        -4.2261  -20.2522  -46.3943 C.ar      23 UNK        -0.0193 
     14 C14        -5.1360  -19.1959  -46.5082 C.ar      23 UNK        -0.1150 
     15 C15        -4.3565  -21.2623  -45.2623 C.3       23 UNK        -0.0205 
     16 S16        -3.8880  -20.5195  -43.6669 S.3       23 UNK        -0.2404 
     17 C17        -2.9711  -21.8678  -42.8487 C.3       23 UNK        -0.0398 
     18 CA         -1.4511  -21.7751  -43.1494 C.3       11 UNK         0.1400 
     19 N          -0.5926  -22.0362  -42.0045 N.am      11 UNK        -0.5000 
     20 C          -0.2877  -21.1572  -41.0477 C.2       10 UNK         0.5000 
     21 O          -0.9179  -20.1199  -40.8432 O.2       10 UNK        -0.5000 
     22 CA          0.9898  -21.4454  -40.2350 C.3       10 UNK         0.1400 
     23 CB          0.8141  -22.6330  -39.2686 C.3       10 UNK        -0.1800 
     24 N           2.1705  -21.5874  -41.1017 N.am      10 UNK        -0.5000 
     25 C           2.4612  -22.5664  -41.9754 C.2       9 UNK         0.5000 
     26 O           1.8228  -23.6170  -42.0505 O.2       9 UNK        -0.5000 
     27 CA          3.6125  -22.3125  -42.9707 C.3       9 UNK         0.1400 
     28 CB          3.2681  -22.8444  -44.3738 C.3       9 UNK        -0.1800 
     29 N           3.9004  -20.8836  -43.0854 N.am      9 UNK        -0.5000 
     30 C           5.0538  -20.2872  -42.7574 C.2       8 UNK         0.5000 
     31 O           6.0521  -20.8950  -42.3696 O.2       8 UNK        -0.5000 
     32 CA          5.1000  -18.7465  -42.8519 C.3       8 UNK         0.1400 
     33 CB          5.8184  -18.3047  -44.1354 C.3       8 UNK        -0.1800 
     34 N           3.7801  -18.1117  -42.8006 N.am      8 UNK        -0.5000 
     35 C           2.9491  -18.1542  -41.7496 C.2       7 UNK         0.5000 
     36 O           3.2243  -18.7134  -40.6876 O.2       7 UNK        -0.5000 
     37 CA          1.5579  -17.5193  -41.9234 C.3       7 UNK         0.1400 
     38 CB          1.5623  -16.0824  -41.3811 C.3       7 UNK        -0.1800 
     39 N           1.0527  -17.5171  -43.2993 N.am      7 UNK        -0.5000 
     40 C           0.8733  -18.5966  -44.0759 C.2       6 UNK         0.5000 
     41 O           1.1848  -19.7426  -43.7507 O.2       6 UNK        -0.5000 
     42 CA          0.2897  -18.3423  -45.4760 C.3       6 UNK         0.1400 
     43 CB         -1.2166  -18.0517  -45.3948 C.3       6 UNK        -0.1800 
     44 N           0.9646  -17.2452  -46.1644 N.am      6 UNK        -0.5000 
     45 C           2.2569  -17.2449  -46.5209 C.2       5 UNK         0.5000 
     46 O           3.0225  -18.1894  -46.3307 O.2       5 UNK        -0.5000 
     47 CA          2.7913  -15.9565  -47.1659 C.3       5 UNK         0.1400 
     48 CB          2.5084  -15.9403  -48.6757 C.3       5 UNK        -0.1800 
     49 N           2.2061  -14.7708  -46.5406 N.am      5 UNK        -0.5000 
     50 C           2.5954  -14.2760  -45.3570 C.2       4 UNK         0.5000 
     51 O           3.5383  -14.7257  -44.7050 O.2       4 UNK        -0.5000 
     52 CA          1.7848  -13.0912  -44.7961 C.3       4 UNK         0.1400 
     53 CB          2.3629  -11.7581  -45.2941 C.3       4 UNK        -0.1800 
     54 N           0.3614  -13.1547  -45.1343 N.am      4 UNK        -0.5000 
     55 C          -0.4877  -14.0760  -44.6589 C.2       3 UNK         0.5000 
     56 O          -0.1620  -14.9585  -43.8668 O.2       3 UNK        -0.5000 
     57 CA         -1.9316  -14.0361  -45.1920 C.3       3 UNK         0.1400 
     58 CB         -2.8018  -13.1041  -44.3370 C.3       3 UNK        -0.1800 
     59 N          -2.0464  -13.6449  -46.5988 N.am      3 UNK        -0.5000 
     60 C          -1.4617  -14.2671  -47.6304 C.2       2 UNK         0.5000 
     61 O          -0.6443  -15.1783  -47.4960 O.2       2 UNK        -0.5000 
     62 CA         -1.8922  -13.8037  -49.0370 C.3       2 UNK         0.1400 
     63 CB         -1.1306  -14.5357  -50.1559 C.3       2 UNK        -0.1800 
     64 N          -3.3281  -14.0143  -49.2260 N.am      2 UNK        -0.5000 
     65 C          -4.2956  -13.2033  -48.7786 C.2       1 UNK         0.5000 
     66 O          -4.0775  -12.1220  -48.2252 O.2       1 UNK        -0.5000 
     67 C          -0.9970  -22.7470  -44.2467 C.2       11 UNK         0.5000 
     68 O          -0.9792  -23.9571  -44.0097 O.2       11 UNK        -0.5000 
     69 N          -0.6262  -22.2181  -45.4186 N.am      12 UNK        -0.5000 
     70 CA         -0.1356  -22.9747  -46.5735 C.3       12 UNK         0.1400 
     71 CB          0.6493  -22.0184  -47.4893 C.3       12 UNK        -0.1800 
     72 C          -1.2780  -23.7042  -47.3129 C.2       12 UNK         0.5000 
     73 O          -1.5717  -23.3946  -48.4680 O.2       12 UNK        -0.5000 
     74 N          -1.9255  -24.6487  -46.6189 N.am      13 UNK        -0.5000 
     75 CA         -3.1077  -25.3962  -47.0616 C.3       13 UNK         0.1400 
     76 CB         -3.5670  -26.3187  -45.9235 C.3       13 UNK        -0.1800 
     77 C          -2.9171  -26.1966  -48.3656 C.2       13 UNK         0.5000 
     78 O          -3.8948  -26.4346  -49.0750 O.2       13 UNK        -0.5000 
     79 N          -1.6641  -26.5455  -48.6913 N.am      14 UNK        -0.5000 
     80 CA         -1.2513  -27.1771  -49.9485 C.3       14 UNK         0.1400 
     81 CB          0.2458  -27.5114  -49.8657 C.3       14 UNK        -0.1800 
     82 C          -1.5449  -26.3282  -51.2052 C.2       14 UNK         0.5000 
     83 O          -1.6697  -26.8881  -52.2946 O.2       14 UNK        -0.5000 
     84 N          -1.6821  -25.0052  -51.0339 N.am      15 UNK        -0.5000 
     85 CA         -2.0973  -24.0622  -52.0733 C.3       15 UNK         0.1400 
     86 CB         -1.6634  -22.6534  -51.6434 C.3       15 UNK        -0.1800 
     87 C          -3.6185  -24.0698  -52.3296 C.2       15 UNK         0.5000 
     88 O          -4.0709  -23.3545  -53.2222 O.2       15 UNK        -0.5000 
     89 N          -4.3921  -24.8045  -51.5118 N.am      16 UNK        -0.5000 
     90 CA         -5.8613  -24.8364  -51.4774 C.3       16 UNK         0.1400 
     91 CB         -6.4316  -25.4537  -52.7714 C.3       16 UNK        -0.1800 
     92 C          -6.4763  -23.4588  -51.1418 C.2       16 UNK         0.5000 
     93 O          -7.5721  -23.1372  -51.6033 O.2       16 UNK        -0.5000 
     94 N          -5.7294  -22.6676  -50.3561 N.am      17 UNK        -0.5000 
     95 CA         -5.9935  -21.2846  -49.9481 C.3       17 UNK         0.1400 
     96 CB         -7.2643  -21.1912  -49.0792 C.3       17 UNK        -0.1800 
     97 C          -5.9822  -20.2584  -51.1043 C.2       17 UNK         0.5000 
     98 O          -6.4412  -19.1311  -50.9117 O.2       17 UNK        -0.5000 
     99 N          -5.4471  -20.6337  -52.2766 N.am      18 UNK        -0.5000 
    100 CA        -5.2745  -19.7365  -53.4160 C.3       18 UNK         0.1400 
    101 CB        -5.1238  -20.5550  -54.7071 C.3       18 UNK        -0.1800 
    102 C         -4.0507  -18.8370  -53.1883 C.2       18 UNK         0.5000 
    103 O         -2.9354  -19.3464  -53.0618 O.2       18 UNK        -0.5000 
    104 N         -4.2767  -17.5177  -53.1533 N.am      19 UNK        -0.5000 
    105 CA        -3.2651  -16.4924  -52.8807 C.3       19 UNK         0.1400 
    106 CB        -3.9484  -15.1182  -52.8430 C.3       19 UNK        -0.1800 
    107 C         -2.0870  -16.4872  -53.8753 C.2       19 UNK         0.5000 
    108 O         -0.9589  -16.1985  -53.4785 O.2       19 UNK        -0.5000 
    109 N         -2.3626  -16.8447  -55.1367 N.am      20 UNK        -0.5000 
    110 CA        -1.3743  -16.9448  -56.2124 C.3       20 UNK         0.1400 
    111 CB        -2.1145  -17.0131  -57.5571 C.3       20 UNK        -0.1800 
    112 C         -0.4143  -18.1439  -56.0688 C.2       20 UNK         0.5000 
    113 O          0.6864  -18.0972  -56.6191 O.2       20 UNK        -0.5000 
    114 N         -0.8406  -19.1905  -55.3488 N.am      21 UNK        -0.5000 
    115 CA        -0.0755  -20.4199  -55.1198 C.3       21 UNK         0.1400 
    116 CB        -1.0072  -21.6194  -55.3644 C.3       21 UNK        -0.1800 
    117 C          0.5401  -20.4762  -53.7067 C.2       21 UNK         0.5000 
    118 O          1.2143  -21.4543  -53.3813 O.2       21 UNK        -0.5000 
    119 N          0.2778  -19.4505  -52.8888 N.am      22 UNK        -0.5000 
    120 CA         0.7035  -19.3283  -51.4895 C.3       22 UNK         0.1400 
    121 C          2.2424  -19.2188  -51.2921 C.2       22 UNK         0.5000 
    122 N          2.7428  -19.5696  -50.1151 N.am      22 UNK        -0.7600 
    123 O          2.9812  -18.7865  -52.1743 O.2       22 UNK        -0.5000 
    124 C124       -0.0476  -18.1555  -50.8075 C.3       23 UNK        -0.0398 
    125 S125       -0.5661  -18.5274  -49.1041 S.3       23 UNK        -0.2404 
    126 C126       -1.9890  -19.6124  -49.4265 C.3       23 UNK        -0.0205 
    127 H127       -8.1495  -10.7332  -50.0836 H         1 UNK         0.0600 
    128 H128       -8.1887  -11.2489  -51.7720 H         1 UNK         0.0600 
    129 H129       -6.9663  -10.0948  -51.2285 H         1 UNK         0.0600 
    130 H130       -7.2515  -12.2527  -48.7334 H         1 UNK         0.3000 
    131 H131       -5.7561  -14.5225  -49.6538 H         1 UNK         0.0600 
    132 H132       -6.3736  -13.5011  -46.8360 H         1 UNK         0.0800 
    133 H133       -7.3086  -14.6694  -47.7254 H         1 UNK         0.0800 
    134 H134       -6.1808  -16.8912  -48.7077 H         1 UNK         0.0800 
    135 H135       -6.9387  -17.3452  -47.1974 H         1 UNK         0.0800 
    136 H136       -3.8903  -17.6857  -49.2825 H         1 UNK         0.1150 
    137 H137       -2.4946  -21.1855  -47.2592 H         1 UNK         0.1150 
    138 H138       -5.9290  -19.0922  -45.7811 H         1 UNK         0.1150 
    139 H139       -5.3865  -21.6170  -45.2041 H         1 UNK         0.0800 
    140 H140       -3.7427  -22.1400  -45.4683 H         1 UNK         0.0800 
    141 H141       -3.3983  -22.8372  -43.1128 H         1 UNK         0.0800 
    142 H142       -3.1500  -21.7563  -41.7785 H         1 UNK         0.0800 
    143 H143       -1.2152  -20.7633  -43.4822 H         1 UNK         0.0600 
    144 H144        0.0079  -22.8518  -42.1035 H         1 UNK         0.3000 
    145 H145        1.1819  -20.5606  -39.6259 H         1 UNK         0.0600 
    146 H146        1.7246  -22.8127  -38.6970 H         1 UNK         0.0600 
    147 H147        0.0158  -22.4308  -38.5537 H         1 UNK         0.0600 
    148 H148        0.5550  -23.5566  -39.7859 H         1 UNK         0.0600 
    149 H149        2.7602  -20.7637  -41.1271 H         1 UNK         0.3000 
    150 H150        4.4816  -22.8569  -42.5972 H         1 UNK         0.0600 
    151 H151        3.0983  -23.9216  -44.3605 H         1 UNK         0.0600 
    152 H152        4.0780  -22.6535  -45.0779 H         1 UNK         0.0600 
    153 H153        2.3663  -22.3725  -44.7651 H         1 UNK         0.0600 
    154 H154        3.1184  -20.3078  -43.3840 H         1 UNK         0.3000 
    155 H155        5.6747  -18.3841  -41.9973 H         1 UNK         0.0600 
    156 H156        6.8386  -18.6894  -44.1630 H         1 UNK         0.0600 
    157 H157        5.8783  -17.2181  -44.2031 H         1 UNK         0.0600 
    158 H158        5.3079  -18.6697  -45.0269 H         1 UNK         0.0600 
    159 H159        3.4639  -17.6540  -43.6444 H         1 UNK         0.3000 
    160 H160        0.8603  -18.1056  -41.3236 H         1 UNK         0.0600 
    161 H161        2.1735  -15.4229  -41.9988 H         1 UNK         0.0600 
    162 H162        1.9579  -16.0448  -40.3652 H         1 UNK         0.0600 
    163 H163        0.5532  -15.6717  -41.3478 H         1 UNK         0.0600 
    164 H164        0.7363  -16.6159  -43.6496 H         1 UNK         0.3000 
    165 H165        0.4336  -19.2428  -46.0756 H         1 UNK         0.0600 
    166 H166       -1.6306  -17.8013  -46.3714 H         1 UNK         0.0600 
    167 H167       -1.7606  -18.9200  -45.0267 H         1 UNK         0.0600 
    168 H168       -1.4360  -17.2235  -44.7223 H         1 UNK         0.0600 
    169 H169        0.3905  -16.4522  -46.4350 H         1 UNK         0.3000 
    170 H170        3.8741  -15.9321  -47.0258 H         1 UNK         0.0600 
    171 H171        2.9883  -16.7859  -49.1692 H         1 UNK         0.0600 
    172 H172        1.4416  -16.0042  -48.8870 H         1 UNK         0.0600 
    173 H173        2.8900  -15.0317  -49.1411 H         1 UNK         0.0600 
    174 H174        1.3712  -14.4005  -46.9746 H         1 UNK         0.3000 
    175 H175        1.8749  -13.1164  -43.7079 H         1 UNK         0.0600 
    176 H176        3.4193  -11.6706  -45.0367 H         1 UNK         0.0600 
    177 H177        2.2799  -11.6623  -46.3775 H         1 UNK         0.0600 
    178 H178        1.8481  -10.9109  -44.8408 H         1 UNK         0.0600 
    179 H179        0.0123  -12.4701  -45.7886 H         1 UNK         0.3000 
    180 H180       -2.3381  -15.0455  -45.1080 H         1 UNK         0.0600 
    181 H181       -2.7575  -13.3847  -43.2838 H         1 UNK         0.0600 
    182 H182       -2.4773  -12.0658  -44.4157 H         1 UNK         0.0600 
    183 H183       -3.8475  -13.1539  -44.6418 H         1 UNK         0.0600 
    184 H184       -2.7184  -12.9176  -46.8147 H         1 UNK         0.3000 
    185 H185       -1.6654  -12.7387  -49.1183 H         1 UNK         0.0600 
    186 H186       -0.0535  -14.4041  -50.0485 H         1 UNK         0.0600 
    187 H187       -1.3346  -15.6062  -50.1445 H         1 UNK         0.0600 
    188 H188       -1.4020  -14.1507  -51.1380 H         1 UNK         0.0600 
    189 H189       -3.5899  -14.9058  -49.6177 H         1 UNK         0.3000 
    190 H190       -0.6679  -21.2174  -45.5327 H         1 UNK         0.3000 
    191 H191        0.5606  -23.7392  -46.2221 H         1 UNK         0.0600 
    192 H192        1.5053  -21.5868  -46.9703 H         1 UNK         0.0600 
    193 H193        0.0263  -21.1973  -47.8397 H         1 UNK         0.0600 
    194 H194        1.0320  -22.5397  -48.3677 H         1 UNK         0.0600 
    195 H195       -1.6319  -24.7937  -45.6572 H         1 UNK         0.3000 
    196 H196       -3.8984  -24.6668  -47.2487 H         1 UNK         0.0600 
    197 H197       -4.4660  -26.8696  -46.2033 H         1 UNK         0.0600 
    198 H198       -3.8031  -25.7485  -45.0247 H         1 UNK         0.0600 
    199 H199       -2.7996  -27.0496  -45.6655 H         1 UNK         0.0600 
    200 H200       -0.9267  -26.3036  -48.0464 H         1 UNK         0.3000 
    201 H201       -1.8081  -28.1109  -50.0492 H         1 UNK         0.0600 
    202 H202        0.5859  -28.0112  -50.7737 H         1 UNK         0.0600 
    203 H203        0.8515  -26.6131  -49.7389 H         1 UNK         0.0600 
    204 H204        0.4560  -28.1803  -49.0309 H         1 UNK         0.0600 
    205 H205       -1.5645  -24.6140  -50.1045 H         1 UNK         0.3000 
    206 H206       -1.5937  -24.3127  -53.0091 H         1 UNK         0.0600 
    207 H207       -0.6000  -22.6140  -51.4071 H         1 UNK         0.0600 
    208 H208       -2.2205  -22.3298  -50.7663 H         1 UNK         0.0600 
    209 H209       -1.8534  -21.9202  -52.4261 H         1 UNK         0.0600 
    210 H210       -3.9407  -25.3603  -50.7928 H         1 UNK         0.3000 
    211 H211       -6.1312  -25.4965  -50.6520 H         1 UNK         0.0600 
    212 H212       -7.5058  -25.6199  -52.6840 H         1 UNK         0.0600 
    213 H213       -5.9712  -26.4187  -52.9831 H         1 UNK         0.0600 
    214 H214       -6.2715  -24.8083  -53.6354 H         1 UNK         0.0600 
    215 H215       -4.8450  -23.0431  -50.0456 H         1 UNK         0.3000 
    216 H216       -5.1543  -21.0127  -49.3113 H         1 UNK         0.0600 
    217 H217       -7.3648  -20.1977  -48.6405 H         1 UNK         0.0600 
    218 H218       -7.2310  -21.9033  -48.2548 H         1 UNK         0.0600 
    219 H219       -8.1676  -21.3849  -49.6578 H         1 UNK         0.0600 
    220 H220       -5.0631  -21.5652  -52.3780 H         1 UNK         0.3000 
    221 H221       -6.1685  -19.1174  -53.5176 H         1 UNK         0.0600 
    222 H222       -5.9779  -21.2156  -54.8574 H         1 UNK         0.0600 
    223 H223       -5.0587  -19.9011  -55.5773 H         1 UNK         0.0600 
    224 H224       -4.2251  -21.1710  -54.6952 H         1 UNK         0.0600 
    225 H225       -5.2252  -17.1879  -53.2598 H         1 UNK         0.3000 
    226 H226       -2.8586  -16.6923  -51.8883 H         1 UNK         0.0600 
    227 H227       -4.4313  -14.8821  -53.7920 H         1 UNK         0.0600 
    228 H228       -4.7080  -15.0770  -52.0624 H         1 UNK         0.0600 
    229 H229       -3.2316  -14.3230  -52.6373 H         1 UNK         0.0600 
    230 H230       -3.3176  -17.0697  -55.3738 H         1 UNK         0.3000 
    231 H231       -0.7673  -16.0369  -56.2031 H         1 UNK         0.0600 
    232 H232       -2.7392  -16.1327  -57.7094 H         1 UNK         0.0600 
    233 H233       -2.7535  -17.8948  -57.6204 H         1 UNK         0.0600 
    234 H234       -1.4106  -17.0576  -58.3894 H         1 UNK         0.0600 
    235 H235       -1.7383  -19.1363  -54.8826 H         1 UNK         0.3000 
    236 H236        0.7527  -20.4916  -55.8275 H         1 UNK         0.0600 
    237 H237       -1.3696  -21.6304  -56.3924 H         1 UNK         0.0600 
    238 H238       -0.4915  -22.5650  -55.1930 H         1 UNK         0.0600 
    239 H239       -1.8759  -21.5947  -54.7074 H         1 UNK         0.0600 
    240 H240       -0.2633  -18.6828  -53.2578 H         1 UNK         0.3000 
    241 H241        0.3960  -20.2641  -51.0191 H         1 UNK         0.0600 
    242 H242        2.1492  -19.8866  -49.3654 H         1 UNK         0.3800 
    243 H243        3.7366  -19.4980  -49.9653 H         1 UNK         0.3800 
    244 H244        0.5458  -17.2397  -50.8116 H         1 UNK         0.0800 
    245 H245       -0.9519  -17.9040  -51.3587 H         1 UNK         0.0800 
    246 H246       -2.4148  -19.4133  -50.4103 H         1 UNK         0.0800 
    247 H247       -1.6355  -20.6418  -49.4486 H         1 UNK         0.0800 
@<TRIPOS>BOND
     1    1    2 1    
     2    1  127 1    
     3    1  128 1    
     4    1  129 1    
     5    2    3 2    
     6    2    4 am   BACKBONE|DICT|INTERRES
     7    4    5 1    
     8    4  130 1    
     9    5    6 1    
    10    5   65 1    
    11    5  131 1    
    12    6    7 1    
    13    6  132 1    
    14    6  133 1    
    15    7    8 1    
    16    8    9 1    
    17    8  134 1    
    18    8  135 1    
    19    9   10 ar   
    20    9   14 ar   
    21   10   11 ar   
    22   10  136 1    
    23   11   12 ar   
    24   11  126 1    
    25   12   13 ar   
    26   12  137 1    
    27   13   14 ar   
    28   13   15 1    
    29   14  138 1    
    30   15   16 1    
    31   15  139 1    
    32   15  140 1    
    33   16   17 1    
    34   17   18 1    
    35   17  141 1    
    36   17  142 1    
    37   18   19 1    
    38   18   67 1    
    39   18  143 1    
    40   19   20 am   BACKBONE|DICT|INTERRES
    41   19  144 1    
    42   20   21 2    
    43   20   22 1    
    44   22   23 1    
    45   22   24 1    
    46   22  145 1    
    47   23  146 1    
    48   23  147 1    
    49   23  148 1    
    50   24   25 am   BACKBONE|DICT|INTERRES
    51   24  149 1    
    52   25   26 2    
    53   25   27 1    
    54   27   28 1    
    55   27   29 1    
    56   27  150 1    
    57   28  151 1    
    58   28  152 1    
    59   28  153 1    
    60   29   30 am   BACKBONE|DICT|INTERRES
    61   29  154 1    
    62   30   31 2    
    63   30   32 1    
    64   32   33 1    
    65   32   34 1    
    66   32  155 1    
    67   33  156 1    
    68   33  157 1    
    69   33  158 1    
    70   34   35 am   BACKBONE|DICT|INTERRES
    71   34  159 1    
    72   35   36 2    
    73   35   37 1    
    74   37   38 1    
    75   37   39 1    
    76   37  160 1    
    77   38  161 1    
    78   38  162 1    
    79   38  163 1    
    80   39   40 am   BACKBONE|DICT|INTERRES
    81   39  164 1    
    82   40   41 2    
    83   40   42 1    
    84   42   43 1    
    85   42   44 1    
    86   42  165 1    
    87   43  166 1    
    88   43  167 1    
    89   43  168 1    
    90   44   45 am   BACKBONE|DICT|INTERRES
    91   44  169 1    
    92   45   46 2    
    93   45   47 1    
    94   47   48 1    
    95   47   49 1    
    96   47  170 1    
    97   48  171 1    
    98   48  172 1    
    99   48  173 1    
   100   49   50 am   BACKBONE|DICT|INTERRES
   101   49  174 1    
   102   50   51 2    
   103   50   52 1    
   104   52   53 1    
   105   52   54 1    
   106   52  175 1    
   107   53  176 1    
   108   53  177 1    
   109   53  178 1    
   110   54   55 am   BACKBONE|DICT|INTERRES
   111   54  179 1    
   112   55   56 2    
   113   55   57 1    
   114   57   58 1    
   115   57   59 1    
   116   57  180 1    
   117   58  181 1    
   118   58  182 1    
   119   58  183 1    
   120   59   60 am   BACKBONE|DICT|INTERRES
   121   59  184 1    
   122   60   61 2    
   123   60   62 1    
   124   62   63 1    
   125   62   64 1    
   126   62  185 1    
   127   63  186 1    
   128   63  187 1    
   129   63  188 1    
   130   64   65 am   BACKBONE|DICT|INTERRES
   131   64  189 1    
   132   65   66 2    
   133   67   68 2    
   134   67   69 am   BACKBONE|DICT|INTERRES
   135   69   70 1    
   136   69  190 1    
   137   70   71 1    
   138   70   72 1    
   139   70  191 1    
   140   71  192 1    
   141   71  193 1    
   142   71  194 1    
   143   72   73 2    
   144   72   74 am   BACKBONE|DICT|INTERRES
   145   74   75 1    
   146   74  195 1    
   147   75   76 1    
   148   75   77 1    
   149   75  196 1    
   150   76  197 1    
   151   76  198 1    
   152   76  199 1    
   153   77   78 2    
   154   77   79 am   BACKBONE|DICT|INTERRES
   155   79   80 1    
   156   79  200 1    
   157   80   81 1    
   158   80   82 1    
   159   80  201 1    
   160   81  202 1    
   161   81  203 1    
   162   81  204 1    
   163   82   83 2    
   164   82   84 am   BACKBONE|DICT|INTERRES
   165   84   85 1    
   166   84  205 1    
   167   85   86 1    
   168   85   87 1    
   169   85  206 1    
   170   86  207 1    
   171   86  208 1    
   172   86  209 1    
   173   87   88 2    
   174   87   89 am   BACKBONE|DICT|INTERRES
   175   89   90 1    
   176   89  210 1    
   177   90   91 1    
   178   90   92 1    
   179   90  211 1    
   180   91  212 1    
   181   91  213 1    
   182   91  214 1    
   183   92   93 2    
   184   92   94 am   BACKBONE|DICT|INTERRES
   185   94   95 1    
   186   94  215 1    
   187   95   96 1    
   188   95   97 1    
   189   95  216 1    
   190   96  217 1    
   191   96  218 1    
   192   96  219 1    
   193   97   98 2    
   194   97   99 am   BACKBONE|DICT|INTERRES
   195   99  100 1    
   196   99  220 1    
   197  100  101 1    
   198  100  102 1    
   199  100  221 1    
   200  101  222 1    
   201  101  223 1    
   202  101  224 1    
   203  102  103 2    
   204  102  104 am   BACKBONE|DICT|INTERRES
   205  104  105 1    
   206  104  225 1    
   207  105  106 1    
   208  105  107 1    
   209  105  226 1    
   210  106  227 1    
   211  106  228 1    
   212  106  229 1    
   213  107  108 2    
   214  107  109 am   BACKBONE|DICT|INTERRES
   215  109  110 1    
   216  109  230 1    
   217  110  111 1    
   218  110  112 1    
   219  110  231 1    
   220  111  232 1    
   221  111  233 1    
   222  111  234 1    
   223  112  113 2    
   224  112  114 am   BACKBONE|DICT|INTERRES
   225  114  115 1    
   226  114  235 1    
   227  115  116 1    
   228  115  117 1    
   229  115  236 1    
   230  116  237 1    
   231  116  238 1    
   232  116  239 1    
   233  117  118 2    
   234  117  119 am   BACKBONE|DICT|INTERRES
   235  119  120 1    
   236  119  240 1    
   237  120  121 1    
   238  120  124 1    
   239  120  241 1    
   240  121  122 am   BACKBONE|DICT|INTERRES
   241  121  123 2    
   242  122  242 1    
   243  122  243 1    
   244  124  125 1    
   245  124  244 1    
   246  124  245 1    
   247  125  126 1    
   248  126  246 1    
   249  126  247 1    
@<TRIPOS>SUBSTRUCTURE
     1 UNK         1 GROUP             0       ****    0 ROOT    
