@<TRIPOS>MOLECULE
3R540
247   249    1
SMALL
USER_CHARGES


@<TRIPOS>ATOM
      1 CA          4.7119  -17.8845  -45.5488 C.3       0 UNK        -0.1800 
      2 C           3.8485  -17.4311  -46.7160 C.2       0 UNK         0.5000 
      3 O           2.8093  -18.0285  -46.9797 O.2       0 UNK        -0.5000 
      4 N           4.2921  -16.3902  -47.4270 N.am      1 UNK        -0.5000 
      5 CA          3.5717  -15.7810  -48.5486 C.3       1 UNK         0.1400 
      6 C6          4.5630  -15.3210  -49.6532 C.3       23 UNK        -0.0398 
      7 S7          3.8341  -15.3584  -51.3291 S.3       23 UNK        -0.2404 
      8 C8          4.5363  -16.8922  -52.0208 C.3       23 UNK        -0.0205 
      9 C9          3.8497  -18.1352  -51.4723 C.ar      23 UNK        -0.0193 
     10 C10         2.6769  -18.6065  -52.0672 C.ar      23 UNK        -0.1150 
     11 C11         2.0238  -19.7381  -51.5630 C.ar      23 UNK        -0.0193 
     12 C12         2.5908  -20.4222  -50.4860 C.ar      23 UNK        -0.1150 
     13 C13         3.7674  -19.9679  -49.8760 C.ar      23 UNK        -0.0193 
     14 C14         4.3876  -18.8206  -50.3800 C.ar      23 UNK        -0.1150 
     15 C15         4.4168  -20.6762  -48.6845 C.3       23 UNK        -0.0205 
     16 S16         3.4623  -22.0324  -47.9202 S.3       23 UNK        -0.2404 
     17 C17         2.0339  -21.1494  -47.1969 C.3       23 UNK        -0.0398 
     18 CA          0.8691  -22.1199  -46.8950 C.3       11 UNK         0.1400 
     19 N           0.0400  -21.6788  -45.7743 N.am      11 UNK        -0.5000 
     20 C          -0.7561  -22.5016  -45.0786 C.2       10 UNK         0.5000 
     21 O          -0.8679  -23.7046  -45.3189 O.2       10 UNK        -0.5000 
     22 CA         -1.5965  -21.8724  -43.9538 C.3       10 UNK         0.1400 
     23 CB         -0.7413  -21.6162  -42.7040 C.3       10 UNK        -0.1800 
     24 N          -2.2550  -20.6335  -44.3674 N.am      10 UNK        -0.5000 
     25 C          -3.1703  -20.5605  -45.3441 C.2       9 UNK         0.5000 
     26 O          -3.5620  -21.5346  -45.9872 O.2       9 UNK        -0.5000 
     27 CA         -3.7079  -19.1628  -45.6892 C.3       9 UNK         0.1400 
     28 CB         -4.7425  -18.6992  -44.6534 C.3       9 UNK        -0.1800 
     29 N          -2.6505  -18.1606  -45.8138 N.am      9 UNK        -0.5000 
     30 C          -1.6717  -18.1943  -46.7297 C.2       8 UNK         0.5000 
     31 O          -1.5781  -19.0547  -47.6015 O.2       8 UNK        -0.5000 
     32 CA         -0.5877  -17.1104  -46.6308 C.3       8 UNK         0.1400 
     33 CB         -1.1066  -15.7792  -47.1901 C.3       8 UNK        -0.1800 
     34 N          -0.1086  -16.9167  -45.2646 N.am      8 UNK        -0.5000 
     35 C           0.4399  -17.8683  -44.4947 C.2       7 UNK         0.5000 
     36 O           0.6164  -19.0350  -44.8461 O.2       7 UNK        -0.5000 
     37 CA          0.7784  -17.4588  -43.0531 C.3       7 UNK         0.1400 
     38 CB          2.0619  -16.6161  -43.0009 C.3       7 UNK        -0.1800 
     39 N          -0.3249  -16.7228  -42.4371 N.am      7 UNK        -0.5000 
     40 C          -1.5163  -17.2597  -42.1354 C.2       6 UNK         0.5000 
     41 O          -1.7988  -18.4463  -42.3039 O.2       6 UNK        -0.5000 
     42 CA         -2.5835  -16.2937  -41.5913 C.3       6 UNK         0.1400 
     43 CB         -2.3885  -16.0586  -40.0860 C.3       6 UNK        -0.1800 
     44 N          -2.5796  -15.0075  -42.2902 N.am      6 UNK        -0.5000 
     45 C          -2.9304  -14.8482  -43.5740 C.2       5 UNK         0.5000 
     46 O          -3.3169  -15.7658  -44.2963 O.2       5 UNK        -0.5000 
     47 CA         -2.7911  -13.4316  -44.1590 C.3       5 UNK         0.1400 
     48 CB         -4.0509  -12.6020  -43.8697 C.3       5 UNK        -0.1800 
     49 N          -1.6094  -12.7101  -43.6764 N.am      5 UNK        -0.5000 
     50 C          -0.3458  -13.0925  -43.9005 C.2       4 UNK         0.5000 
     51 O          -0.0378  -14.1396  -44.4713 O.2       4 UNK        -0.5000 
     52 CA          0.7608  -12.1640  -43.3926 C.3       4 UNK         0.1400 
     53 CB          1.4287  -12.7276  -42.1276 C.3       4 UNK        -0.1800 
     54 N           1.7454  -12.0120  -44.4574 N.am      4 UNK        -0.5000 
     55 C           2.4503  -10.8990  -44.6943 C.2       3 UNK         0.5000 
     56 O           2.4301   -9.9110  -43.9585 O.2       3 UNK        -0.5000 
     57 CA          3.3106  -10.8610  -45.9752 C.3       3 UNK         0.1400 
     58 CB          4.7603  -11.2588  -45.6573 C.3       3 UNK        -0.1800 
     59 N           2.8167  -11.7136  -47.0589 N.am      3 UNK        -0.5000 
     60 C           1.6282  -11.6099  -47.6694 C.2       2 UNK         0.5000 
     61 O           0.8148  -10.7218  -47.4109 O.2       2 UNK        -0.5000 
     62 CA          1.2765  -12.6534  -48.7566 C.3       2 UNK         0.1400 
     63 CB          1.0909  -11.9536  -50.1137 C.3       2 UNK        -0.1800 
     64 N           2.2261  -13.7591  -48.9452 N.am      2 UNK        -0.5000 
     65 C           2.6298  -14.6607  -48.0401 C.2       1 UNK         0.5000 
     66 O           2.3056  -14.6111  -46.8516 O.2       1 UNK        -0.5000 
     67 C           0.0278  -22.4665  -48.1430 C.2       11 UNK         0.5000 
     68 O           0.3467  -23.4432  -48.8182 O.2       11 UNK        -0.5000 
     69 N          -1.0622  -21.7273  -48.4064 N.am      12 UNK        -0.5000 
     70 CA         -2.0316  -22.0523  -49.4578 C.3       12 UNK         0.1400 
     71 CB         -3.0444  -20.9118  -49.6402 C.3       12 UNK        -0.1800 
     72 C          -2.7560  -23.3839  -49.2029 C.2       12 UNK         0.5000 
     73 O          -2.9574  -24.1469  -50.1475 O.2       12 UNK        -0.5000 
     74 N          -3.1079  -23.6645  -47.9408 N.am      13 UNK        -0.5000 
     75 CA         -3.6659  -24.9475  -47.5133 C.3       13 UNK         0.1400 
     76 CB         -4.1712  -24.8462  -46.0671 C.3       13 UNK        -0.1800 
     77 C          -2.6658  -26.1058  -47.6812 C.2       13 UNK         0.5000 
     78 O          -3.0444  -27.1538  -48.2042 O.2       13 UNK        -0.5000 
     79 N          -1.4015  -25.8821  -47.2927 N.am      14 UNK        -0.5000 
     80 CA         -0.2984  -26.8337  -47.4626 C.3       14 UNK         0.1400 
     81 CB          0.9453  -26.3178  -46.7235 C.3       14 UNK        -0.1800 
     82 C           0.0273  -27.1273  -48.9414 C.2       14 UNK         0.5000 
     83 O           0.3017  -28.2765  -49.2880 O.2       14 UNK        -0.5000 
     84 N          -0.0458  -26.0926  -49.7893 N.am      15 UNK        -0.5000 
     85 CA          0.1253  -26.1684  -51.2424 C.3       15 UNK         0.1400 
     86 CB          0.4122  -24.7551  -51.7776 C.3       15 UNK        -0.1800 
     87 C          -1.0827  -26.7825  -51.9817 C.2       15 UNK         0.5000 
     88 O          -0.9786  -27.0392  -53.1816 O.2       15 UNK        -0.5000 
     89 N          -2.2031  -26.9820  -51.2707 N.am      16 UNK        -0.5000 
     90 CA         -3.5009  -27.4695  -51.7516 C.3       16 UNK         0.1400 
     91 CB         -3.3900  -28.8969  -52.3269 C.3       16 UNK        -0.1800 
     92 C          -4.2188  -26.4871  -52.7037 C.2       16 UNK         0.5000 
     93 O          -5.1028  -26.8976  -53.4576 O.2       16 UNK        -0.5000 
     94 N          -3.8568  -25.2000  -52.6252 N.am      17 UNK        -0.5000 
     95 CA         -4.5595  -24.0893  -53.2681 C.3       17 UNK         0.1400 
     96 CB         -3.5827  -22.9168  -53.4475 C.3       17 UNK        -0.1800 
     97 C          -5.7917  -23.6630  -52.4447 C.2       17 UNK         0.5000 
     98 O          -6.7911  -23.2393  -53.0262 O.2       17 UNK        -0.5000 
     99 N          -5.6960  -23.8368  -51.1166 N.am      18 UNK        -0.5000 
    100 CA        -6.7149  -23.6139  -50.0874 C.3       18 UNK         0.1400 
    101 CB        -7.9386  -24.5226  -50.3353 C.3       18 UNK        -0.1800 
    102 C         -7.1050  -22.1338  -49.8926 C.2       18 UNK         0.5000 
    103 O         -6.5288  -21.2393  -50.5194 O.2       18 UNK        -0.5000 
    104 N         -8.0632  -21.9124  -48.9780 N.am      19 UNK        -0.5000 
    105 CA        -8.6079  -20.6199  -48.5510 C.3       19 UNK         0.1400 
    106 CB        -9.5155  -20.0390  -49.6599 C.3       19 UNK        -0.1800 
    107 C         -7.4855  -19.6703  -48.0837 C.2       19 UNK         0.5000 
    108 O         -6.8060  -19.9772  -47.1041 O.2       19 UNK        -0.5000 
    109 N         -7.2851  -18.5740  -48.8178 N.am      20 UNK        -0.5000 
    110 CA        -6.1299  -17.6922  -48.7242 C.3       20 UNK         0.1400 
    111 CB        -6.4415  -16.4991  -47.8024 C.3       20 UNK        -0.1800 
    112 C         -5.7217  -17.2894  -50.1484 C.2       20 UNK         0.5000 
    113 O         -5.5085  -16.1073  -50.4201 O.2       20 UNK        -0.5000 
    114 N         -5.6406  -18.2860  -51.0456 N.am      21 UNK        -0.5000 
    115 CA        -5.3569  -18.1277  -52.4780 C.3       21 UNK         0.1400 
    116 CB        -5.3735  -19.5130  -53.1404 C.3       21 UNK        -0.1800 
    117 C         -4.0357  -17.3996  -52.7997 C.2       21 UNK         0.5000 
    118 O         -3.9528  -16.7196  -53.8234 O.2       21 UNK        -0.5000 
    119 N         -3.0482  -17.5392  -51.9092 N.am      22 UNK        -0.5000 
    120 CA        -1.7558  -16.8392  -51.9537 C.3       22 UNK         0.1400 
    121 C         -1.7163  -15.5454  -51.0873 C.2       22 UNK         0.5000 
    122 N         -2.8206  -15.0730  -50.5209 N.am      22 UNK        -0.7600 
    123 O         -0.6602  -14.9406  -50.9341 O.2       22 UNK        -0.5000 
    124 C124       -0.5885  -17.8030  -51.6224 C.3       23 UNK        -0.0398 
    125 S125       -0.3469  -19.0253  -52.9577 S.3       23 UNK        -0.2404 
    126 C126        0.7158  -20.2690  -52.1505 C.3       23 UNK        -0.0205 
    127 H127        5.6141  -18.3752  -45.9140 H         1 UNK         0.0600 
    128 H128        5.0025  -17.0362  -44.9287 H         1 UNK         0.0600 
    129 H129        4.1692  -18.5944  -44.9240 H         1 UNK         0.0600 
    130 H130        5.1362  -15.9190  -47.1358 H         1 UNK         0.3000 
    131 H131        2.9207  -16.5406  -48.9875 H         1 UNK         0.0600 
    132 H132        5.4423  -15.9663  -49.6600 H         1 UNK         0.0800 
    133 H133        4.9503  -14.3206  -49.4513 H         1 UNK         0.0800 
    134 H134        4.4230  -16.8667  -53.1057 H         1 UNK         0.0800 
    135 H135        5.6106  -16.9302  -51.8345 H         1 UNK         0.0800 
    136 H136        2.2691  -18.0759  -52.9155 H         1 UNK         0.1150 
    137 H137        2.0964  -21.3121  -50.1264 H         1 UNK         0.1150 
    138 H138        5.2961  -18.4600  -49.9186 H         1 UNK         0.1150 
    139 H139        5.3715  -21.0864  -49.0158 H         1 UNK         0.0800 
    140 H140        4.6521  -19.9460  -47.9112 H         1 UNK         0.0800 
    141 H141        1.7088  -20.3278  -47.8368 H         1 UNK         0.0800 
    142 H142        2.3855  -20.6851  -46.2743 H         1 UNK         0.0800 
    143 H143        1.3218  -23.0576  -46.5650 H         1 UNK         0.0600 
    144 H144        0.1052  -20.6981  -45.5065 H         1 UNK         0.3000 
    145 H145       -2.3769  -22.5881  -43.6869 H         1 UNK         0.0600 
    146 H146       -1.3529  -21.2575  -41.8760 H         1 UNK         0.0600 
    147 H147       -0.2492  -22.5314  -42.3727 H         1 UNK         0.0600 
    148 H148        0.0351  -20.8738  -42.8903 H         1 UNK         0.0600 
    149 H149       -1.9904  -19.7885  -43.8718 H         1 UNK         0.3000 
    150 H150       -4.2047  -19.2435  -46.6549 H         1 UNK         0.0600 
    151 H151       -5.5426  -19.4328  -44.5464 H         1 UNK         0.0600 
    152 H152       -5.2040  -17.7588  -44.9542 H         1 UNK         0.0600 
    153 H153       -4.2932  -18.5528  -43.6707 H         1 UNK         0.0600 
    154 H154       -2.6826  -17.3847  -45.1584 H         1 UNK         0.3000 
    155 H155        0.2615  -17.4277  -47.2378 H         1 UNK         0.0600 
    156 H156       -1.9800  -15.4218  -46.6459 H         1 UNK         0.0600 
    157 H157       -1.3933  -15.8896  -48.2339 H         1 UNK         0.0600 
    158 H158       -0.3437  -15.0042  -47.1408 H         1 UNK         0.0600 
    159 H159       -0.1695  -15.9697  -44.8993 H         1 UNK         0.3000 
    160 H160        0.9445  -18.3679  -42.4713 H         1 UNK         0.0600 
    161 H161        2.9168  -17.1989  -43.3417 H         1 UNK         0.0600 
    162 H162        2.2801  -16.2863  -41.9852 H         1 UNK         0.0600 
    163 H163        1.9966  -15.7333  -43.6378 H         1 UNK         0.0600 
    164 H164       -0.1984  -15.7291  -42.3196 H         1 UNK         0.3000 
    165 H165       -3.5602  -16.7592  -41.7402 H         1 UNK         0.0600 
    166 H166       -3.1859  -15.4372  -39.6779 H         1 UNK         0.0600 
    167 H167       -2.4015  -17.0025  -39.5394 H         1 UNK         0.0600 
    168 H168       -1.4378  -15.5685  -39.8725 H         1 UNK         0.0600 
    169 H169       -2.2735  -14.1997  -41.7685 H         1 UNK         0.3000 
    170 H170       -2.6960  -13.5331  -45.2420 H         1 UNK         0.0600 
    171 H171       -4.9444  -13.1088  -44.2371 H         1 UNK         0.0600 
    172 H172       -4.1859  -12.4320  -42.8008 H         1 UNK         0.0600 
    173 H173       -4.0052  -11.6304  -44.3619 H         1 UNK         0.0600 
    174 H174       -1.7817  -11.8412  -43.1915 H         1 UNK         0.3000 
    175 H175        0.3175  -11.1934  -43.1593 H         1 UNK         0.0600 
    176 H176        0.6966  -12.8884  -41.3355 H         1 UNK         0.0600 
    177 H177        1.9207  -13.6804  -42.3223 H         1 UNK         0.0600 
    178 H178        2.1802  -12.0390  -41.7411 H         1 UNK         0.0600 
    179 H179        1.7882  -12.7822  -45.1160 H         1 UNK         0.3000 
    180 H180        3.3085   -9.8316  -46.3390 H         1 UNK         0.0600 
    181 H181        4.8268  -12.2931  -45.3168 H         1 UNK         0.0600 
    182 H182        5.1760  -10.6268  -44.8713 H         1 UNK         0.0600 
    183 H183        5.4013  -11.1502  -46.5323 H         1 UNK         0.0600 
    184 H184        3.3987  -12.4976  -47.3117 H         1 UNK         0.3000 
    185 H185        0.3210  -13.0957  -48.4701 H         1 UNK         0.0600 
    186 H186        0.3331  -11.1712  -50.0553 H         1 UNK         0.0600 
    187 H187        2.0174  -11.4896  -50.4541 H         1 UNK         0.0600 
    188 H188        0.7668  -12.6550  -50.8823 H         1 UNK         0.0600 
    189 H189        2.5452  -13.8893  -49.8962 H         1 UNK         0.3000 
    190 H190       -1.2556  -20.8943  -47.8554 H         1 UNK         0.3000 
    191 H191       -1.4827  -22.1612  -50.3942 H         1 UNK         0.0600 
    192 H192       -3.6019  -20.7152  -48.7237 H         1 UNK         0.0600 
    193 H193       -3.7693  -21.1529  -50.4183 H         1 UNK         0.0600 
    194 H194       -2.5470  -19.9897  -49.9383 H         1 UNK         0.0600 
    195 H195       -2.9776  -22.9585  -47.2216 H         1 UNK         0.3000 
    196 H196       -4.5241  -25.1683  -48.1499 H         1 UNK         0.0600 
    197 H197       -3.3684  -24.6003  -45.3724 H         1 UNK         0.0600 
    198 H198       -4.6113  -25.7890  -45.7403 H         1 UNK         0.0600 
    199 H199       -4.9391  -24.0781  -45.9729 H         1 UNK         0.0600 
    200 H200       -1.1821  -25.0059  -46.8290 H         1 UNK         0.3000 
    201 H201       -0.6012  -27.7743  -46.9979 H         1 UNK         0.0600 
    202 H202        0.7329  -26.1357  -45.6699 H         1 UNK         0.0600 
    203 H203        1.3150  -25.3888  -47.1569 H         1 UNK         0.0600 
    204 H204        1.7561  -27.0456  -46.7718 H         1 UNK         0.0600 
    205 H205       -0.1865  -25.1617  -49.4042 H         1 UNK         0.3000 
    206 H206        0.9921  -26.7973  -51.4551 H         1 UNK         0.0600 
    207 H207       -0.4248  -24.0805  -51.5951 H         1 UNK         0.0600 
    208 H208        0.5933  -24.7695  -52.8530 H         1 UNK         0.0600 
    209 H209        1.2969  -24.3259  -51.3068 H         1 UNK         0.0600 
    210 H210       -2.1807  -26.7273  -50.2914 H         1 UNK         0.3000 
    211 H211       -4.1337  -27.5289  -50.8650 H         1 UNK         0.0600 
    212 H212       -2.8484  -28.9144  -53.2728 H         1 UNK         0.0600 
    213 H213       -4.3775  -29.3212  -52.5111 H         1 UNK         0.0600 
    214 H214       -2.8773  -29.5627  -51.6326 H         1 UNK         0.0600 
    215 H215       -3.1700  -24.9471  -51.9222 H         1 UNK         0.3000 
    216 H216       -4.9006  -24.4049  -54.2563 H         1 UNK         0.0600 
    217 H217       -4.0523  -22.1054  -54.0036 H         1 UNK         0.0600 
    218 H218       -2.6984  -23.2223  -54.0070 H         1 UNK         0.0600 
    219 H219       -3.2498  -22.5146  -52.4903 H         1 UNK         0.0600 
    220 H220       -4.7903  -24.1304  -50.7661 H         1 UNK         0.3000 
    221 H221       -6.2556  -23.9263  -49.1497 H         1 UNK         0.0600 
    222 H222       -8.5254  -24.1869  -51.1910 H         1 UNK         0.0600 
    223 H223       -7.6322  -25.5516  -50.5245 H         1 UNK         0.0600 
    224 H224       -8.6041  -24.5442  -49.4722 H         1 UNK         0.0600 
    225 H225       -8.4387  -22.7114  -48.4880 H         1 UNK         0.3000 
    226 H226       -9.2314  -20.8114  -47.6765 H         1 UNK         0.0600 
    227 H227      -10.3297  -20.7260  -49.8907 H         1 UNK         0.0600 
    228 H228       -9.9725  -19.0996  -49.3459 H         1 UNK         0.0600 
    229 H229       -8.9717  -19.8566  -50.5877 H         1 UNK         0.0600 
    230 H230       -7.8850  -18.4200  -49.6167 H         1 UNK         0.3000 
    231 H231       -5.2793  -18.2359  -48.3140 H         1 UNK         0.0600 
    232 H232       -5.5719  -15.8493  -47.6964 H         1 UNK         0.0600 
    233 H233       -6.7167  -16.8363  -46.8031 H         1 UNK         0.0600 
    234 H234       -7.2626  -15.8956  -48.1907 H         1 UNK         0.0600 
    235 H235       -5.8541  -19.2319  -50.7431 H         1 UNK         0.3000 
    236 H236       -6.1662  -17.5334  -52.9065 H         1 UNK         0.0600 
    237 H237       -5.1581  -19.4450  -54.2075 H         1 UNK         0.0600 
    238 H238       -4.6292  -20.1722  -52.6934 H         1 UNK         0.0600 
    239 H239       -6.3476  -19.9913  -53.0356 H         1 UNK         0.0600 
    240 H240       -3.2201  -18.1057  -51.0932 H         1 UNK         0.3000 
    241 H241       -1.5874  -16.4772  -52.9696 H         1 UNK         0.0600 
    242 H242       -2.7631  -14.2242  -49.9833 H         1 UNK         0.3800 
    243 H243       -3.7242  -15.5205  -50.6435 H         1 UNK         0.3800 
    244 H244        0.3464  -17.2534  -51.5063 H         1 UNK         0.0800 
    245 H245       -0.7624  -18.3155  -50.6746 H         1 UNK         0.0800 
    246 H246        0.9524  -21.0484  -52.8757 H         1 UNK         0.0800 
    247 H247        0.1301  -20.7461  -51.3644 H         1 UNK         0.0800 
@<TRIPOS>BOND
     1    1    2 1    
     2    1  127 1    
     3    1  128 1    
     4    1  129 1    
     5    2    3 2    
     6    2    4 am   BACKBONE|DICT|INTERRES
     7    4    5 1    
     8    4  130 1    
     9    5    6 1    
    10    5   65 1    
    11    5  131 1    
    12    6    7 1    
    13    6  132 1    
    14    6  133 1    
    15    7    8 1    
    16    8    9 1    
    17    8  134 1    
    18    8  135 1    
    19    9   10 ar   
    20    9   14 ar   
    21   10   11 ar   
    22   10  136 1    
    23   11   12 ar   
    24   11  126 1    
    25   12   13 ar   
    26   12  137 1    
    27   13   14 ar   
    28   13   15 1    
    29   14  138 1    
    30   15   16 1    
    31   15  139 1    
    32   15  140 1    
    33   16   17 1    
    34   17   18 1    
    35   17  141 1    
    36   17  142 1    
    37   18   19 1    
    38   18   67 1    
    39   18  143 1    
    40   19   20 am   BACKBONE|DICT|INTERRES
    41   19  144 1    
    42   20   21 2    
    43   20   22 1    
    44   22   23 1    
    45   22   24 1    
    46   22  145 1    
    47   23  146 1    
    48   23  147 1    
    49   23  148 1    
    50   24   25 am   BACKBONE|DICT|INTERRES
    51   24  149 1    
    52   25   26 2    
    53   25   27 1    
    54   27   28 1    
    55   27   29 1    
    56   27  150 1    
    57   28  151 1    
    58   28  152 1    
    59   28  153 1    
    60   29   30 am   BACKBONE|DICT|INTERRES
    61   29  154 1    
    62   30   31 2    
    63   30   32 1    
    64   32   33 1    
    65   32   34 1    
    66   32  155 1    
    67   33  156 1    
    68   33  157 1    
    69   33  158 1    
    70   34   35 am   BACKBONE|DICT|INTERRES
    71   34  159 1    
    72   35   36 2    
    73   35   37 1    
    74   37   38 1    
    75   37   39 1    
    76   37  160 1    
    77   38  161 1    
    78   38  162 1    
    79   38  163 1    
    80   39   40 am   BACKBONE|DICT|INTERRES
    81   39  164 1    
    82   40   41 2    
    83   40   42 1    
    84   42   43 1    
    85   42   44 1    
    86   42  165 1    
    87   43  166 1    
    88   43  167 1    
    89   43  168 1    
    90   44   45 am   BACKBONE|DICT|INTERRES
    91   44  169 1    
    92   45   46 2    
    93   45   47 1    
    94   47   48 1    
    95   47   49 1    
    96   47  170 1    
    97   48  171 1    
    98   48  172 1    
    99   48  173 1    
   100   49   50 am   BACKBONE|DICT|INTERRES
   101   49  174 1    
   102   50   51 2    
   103   50   52 1    
   104   52   53 1    
   105   52   54 1    
   106   52  175 1    
   107   53  176 1    
   108   53  177 1    
   109   53  178 1    
   110   54   55 am   BACKBONE|DICT|INTERRES
   111   54  179 1    
   112   55   56 2    
   113   55   57 1    
   114   57   58 1    
   115   57   59 1    
   116   57  180 1    
   117   58  181 1    
   118   58  182 1    
   119   58  183 1    
   120   59   60 am   BACKBONE|DICT|INTERRES
   121   59  184 1    
   122   60   61 2    
   123   60   62 1    
   124   62   63 1    
   125   62   64 1    
   126   62  185 1    
   127   63  186 1    
   128   63  187 1    
   129   63  188 1    
   130   64   65 am   BACKBONE|DICT|INTERRES
   131   64  189 1    
   132   65   66 2    
   133   67   68 2    
   134   67   69 am   BACKBONE|DICT|INTERRES
   135   69   70 1    
   136   69  190 1    
   137   70   71 1    
   138   70   72 1    
   139   70  191 1    
   140   71  192 1    
   141   71  193 1    
   142   71  194 1    
   143   72   73 2    
   144   72   74 am   BACKBONE|DICT|INTERRES
   145   74   75 1    
   146   74  195 1    
   147   75   76 1    
   148   75   77 1    
   149   75  196 1    
   150   76  197 1    
   151   76  198 1    
   152   76  199 1    
   153   77   78 2    
   154   77   79 am   BACKBONE|DICT|INTERRES
   155   79   80 1    
   156   79  200 1    
   157   80   81 1    
   158   80   82 1    
   159   80  201 1    
   160   81  202 1    
   161   81  203 1    
   162   81  204 1    
   163   82   83 2    
   164   82   84 am   BACKBONE|DICT|INTERRES
   165   84   85 1    
   166   84  205 1    
   167   85   86 1    
   168   85   87 1    
   169   85  206 1    
   170   86  207 1    
   171   86  208 1    
   172   86  209 1    
   173   87   88 2    
   174   87   89 am   BACKBONE|DICT|INTERRES
   175   89   90 1    
   176   89  210 1    
   177   90   91 1    
   178   90   92 1    
   179   90  211 1    
   180   91  212 1    
   181   91  213 1    
   182   91  214 1    
   183   92   93 2    
   184   92   94 am   BACKBONE|DICT|INTERRES
   185   94   95 1    
   186   94  215 1    
   187   95   96 1    
   188   95   97 1    
   189   95  216 1    
   190   96  217 1    
   191   96  218 1    
   192   96  219 1    
   193   97   98 2    
   194   97   99 am   BACKBONE|DICT|INTERRES
   195   99  100 1    
   196   99  220 1    
   197  100  101 1    
   198  100  102 1    
   199  100  221 1    
   200  101  222 1    
   201  101  223 1    
   202  101  224 1    
   203  102  103 2    
   204  102  104 am   BACKBONE|DICT|INTERRES
   205  104  105 1    
   206  104  225 1    
   207  105  106 1    
   208  105  107 1    
   209  105  226 1    
   210  106  227 1    
   211  106  228 1    
   212  106  229 1    
   213  107  108 2    
   214  107  109 am   BACKBONE|DICT|INTERRES
   215  109  110 1    
   216  109  230 1    
   217  110  111 1    
   218  110  112 1    
   219  110  231 1    
   220  111  232 1    
   221  111  233 1    
   222  111  234 1    
   223  112  113 2    
   224  112  114 am   BACKBONE|DICT|INTERRES
   225  114  115 1    
   226  114  235 1    
   227  115  116 1    
   228  115  117 1    
   229  115  236 1    
   230  116  237 1    
   231  116  238 1    
   232  116  239 1    
   233  117  118 2    
   234  117  119 am   BACKBONE|DICT|INTERRES
   235  119  120 1    
   236  119  240 1    
   237  120  121 1    
   238  120  124 1    
   239  120  241 1    
   240  121  122 am   BACKBONE|DICT|INTERRES
   241  121  123 2    
   242  122  242 1    
   243  122  243 1    
   244  124  125 1    
   245  124  244 1    
   246  124  245 1    
   247  125  126 1    
   248  126  246 1    
   249  126  247 1    
@<TRIPOS>SUBSTRUCTURE
     1 UNK         1 GROUP             0       ****    0 ROOT    
