@<TRIPOS>MOLECULE
3R540
247   249    1
SMALL
USER_CHARGES


@<TRIPOS>ATOM
      1 CA          4.6047  -12.5658  -48.8759 C.3       0 UNK        -0.1800 
      2 C           3.7200  -13.7537  -48.5257 C.2       0 UNK         0.5000 
      3 O           3.0490  -13.7337  -47.4948 O.2       0 UNK        -0.5000 
      4 N           3.7300  -14.7900  -49.3730 N.am      1 UNK        -0.5000 
      5 CA          2.8947  -15.9898  -49.2511 C.3       1 UNK         0.1400 
      6 C6          3.4448  -17.1841  -50.0744 C.3       23 UNK        -0.0398 
      7 S7          4.0696  -16.7671  -51.7484 S.3       23 UNK        -0.2404 
      8 C8          2.9514  -17.6946  -52.8601 C.3       23 UNK        -0.0205 
      9 C9          2.9868  -19.2235  -52.7609 C.ar      23 UNK        -0.0193 
     10 C10         2.0682  -19.9503  -53.5259 C.ar      23 UNK        -0.1150 
     11 C11         1.9398  -21.3340  -53.3746 C.ar      23 UNK        -0.0193 
     12 C12         2.7807  -22.0046  -52.4840 C.ar      23 UNK        -0.1150 
     13 C13         3.7302  -21.3029  -51.7378 C.ar      23 UNK        -0.0193 
     14 C14         3.8477  -19.9203  -51.9011 C.ar      23 UNK        -0.1150 
     15 C15         4.5507  -22.0283  -50.6774 C.3       23 UNK        -0.0205 
     16 S16         4.2321  -21.4163  -48.9804 S.3       23 UNK        -0.2404 
     17 C17         2.4109  -21.2767  -48.9117 C.3       23 UNK        -0.0398 
     18 CA          1.7310  -22.3595  -48.0466 C.3       11 UNK         0.1400 
     19 N           2.0040  -22.1425  -46.6203 N.am      11 UNK        -0.5000 
     20 C           1.4595  -22.7621  -45.5644 C.2       10 UNK         0.5000 
     21 O           0.6146  -23.6532  -45.6568 O.2       10 UNK        -0.5000 
     22 CA          1.8766  -22.2685  -44.1637 C.3       10 UNK         0.1400 
     23 CB          3.0824  -23.0631  -43.6292 C.3       10 UNK        -0.1800 
     24 N           2.0892  -20.8144  -44.0697 N.am      10 UNK        -0.5000 
     25 C           3.0571  -20.0638  -44.6211 C.2       9 UNK         0.5000 
     26 O           3.9765  -20.5340  -45.2905 O.2       9 UNK        -0.5000 
     27 CA          2.9619  -18.5321  -44.4710 C.3       9 UNK         0.1400 
     28 CB          2.7962  -17.8718  -45.8501 C.3       9 UNK        -0.1800 
     29 N           1.8590  -18.0998  -43.6109 N.am      9 UNK        -0.5000 
     30 C           1.9273  -17.9854  -42.2784 C.2       8 UNK         0.5000 
     31 O           2.9493  -18.2010  -41.6264 O.2       8 UNK        -0.5000 
     32 CA          0.6324  -17.5778  -41.5445 C.3       8 UNK         0.1400 
     33 CB          0.6230  -16.0654  -41.2748 C.3       8 UNK        -0.1800 
     34 N          -0.6125  -17.9451  -42.2295 N.am      8 UNK        -0.5000 
     35 C          -0.9861  -19.1915  -42.5544 C.2       7 UNK         0.5000 
     36 O          -0.2633  -20.1779  -42.4050 O.2       7 UNK        -0.5000 
     37 CA         -2.3930  -19.3489  -43.1657 C.3       7 UNK         0.1400 
     38 CB         -2.8874  -20.8114  -43.1861 C.3       7 UNK        -0.1800 
     39 N          -3.3895  -18.4637  -42.5575 N.am      7 UNK        -0.5000 
     40 C          -3.7835  -18.4227  -41.2742 C.2       6 UNK         0.5000 
     41 O          -3.3728  -19.1937  -40.4055 O.2       6 UNK        -0.5000 
     42 CA         -4.8240  -17.3376  -40.9083 C.3       6 UNK         0.1400 
     43 CB         -4.6819  -16.8404  -39.4539 C.3       6 UNK        -0.1800 
     44 N          -4.8538  -16.2121  -41.8548 N.am      6 UNK        -0.5000 
     45 C          -3.8637  -15.3425  -42.1026 C.2       5 UNK         0.5000 
     46 O          -2.7972  -15.3096  -41.4851 O.2       5 UNK        -0.5000 
     47 CA         -4.1061  -14.3652  -43.2692 C.3       5 UNK         0.1400 
     48 CB         -4.6646  -13.0329  -42.7481 C.3       5 UNK        -0.1800 
     49 N          -2.9029  -14.0981  -44.0602 N.am      5 UNK        -0.5000 
     50 C          -2.0981  -15.0117  -44.6190 C.2       4 UNK         0.5000 
     51 O          -2.2875  -16.2293  -44.5575 O.2       4 UNK        -0.5000 
     52 CA         -0.9079  -14.4528  -45.4199 C.3       4 UNK         0.1400 
     53 CB          0.1915  -15.5037  -45.6311 C.3       4 UNK        -0.1800 
     54 N          -1.3525  -13.9566  -46.7215 N.am      4 UNK        -0.5000 
     55 C          -1.9602  -12.7798  -46.9308 C.2       3 UNK         0.5000 
     56 O          -2.1631  -11.9606  -46.0321 O.2       3 UNK        -0.5000 
     57 CA         -2.4620  -12.4819  -48.3606 C.3       3 UNK         0.1400 
     58 CB         -2.3982  -10.9830  -48.7224 C.3       3 UNK        -0.1800 
     59 N          -1.8404  -13.3179  -49.3936 N.am      3 UNK        -0.5000 
     60 C          -0.5735  -13.2853  -49.8237 C.2       2 UNK         0.5000 
     61 O           0.2681  -12.4677  -49.4443 O.2       2 UNK        -0.5000 
     62 CA         -0.1831  -14.3499  -50.8664 C.3       2 UNK         0.1400 
     63 CB         -0.1883  -13.7561  -52.2827 C.3       2 UNK        -0.1800 
     64 N           1.1449  -14.8845  -50.5749 N.am      2 UNK        -0.5000 
     65 C           1.4087  -15.6942  -49.5411 C.2       1 UNK         0.5000 
     66 O           0.5386  -16.1519  -48.7991 O.2       1 UNK        -0.5000 
     67 C           0.2258  -22.4075  -48.3856 C.2       11 UNK         0.5000 
     68 O          -0.1948  -23.2642  -49.1626 O.2       11 UNK        -0.5000 
     69 N          -0.5519  -21.5103  -47.7645 N.am      12 UNK        -0.5000 
     70 CA         -2.0050  -21.3950  -47.8851 C.3       12 UNK         0.1400 
     71 CB         -2.4682  -20.2582  -46.9633 C.3       12 UNK        -0.1800 
     72 C          -2.7592  -22.6881  -47.5288 C.2       12 UNK         0.5000 
     73 O          -3.7184  -23.0420  -48.2168 O.2       12 UNK        -0.5000 
     74 N          -2.2999  -23.3599  -46.4653 N.am      13 UNK        -0.5000 
     75 CA         -2.8549  -24.6147  -45.9678 C.3       13 UNK         0.1400 
     76 CB         -2.6541  -24.6856  -44.4462 C.3       13 UNK        -0.1800 
     77 C          -2.2134  -25.8296  -46.6559 C.2       13 UNK         0.5000 
     78 O          -2.9131  -26.8068  -46.9189 O.2       13 UNK        -0.5000 
     79 N          -0.9076  -25.7450  -46.9509 N.am      14 UNK        -0.5000 
     80 CA         -0.1275  -26.7976  -47.6050 C.3       14 UNK         0.1400 
     81 CB          1.3650  -26.4395  -47.5543 C.3       14 UNK        -0.1800 
     82 C          -0.5786  -27.0647  -49.0522 C.2       14 UNK         0.5000 
     83 O          -0.7383  -28.2249  -49.4334 O.2       14 UNK        -0.5000 
     84 N          -0.8089  -25.9899  -49.8195 N.am      15 UNK        -0.5000 
     85 CA         -1.3850  -26.0516  -51.1650 C.3       15 UNK         0.1400 
     86 CB         -0.9801  -24.7883  -51.9394 C.3       15 UNK        -0.1800 
     87 C          -2.9200  -26.1879  -51.1360 C.2       15 UNK         0.5000 
     88 O          -3.5093  -26.5857  -52.1407 O.2       15 UNK        -0.5000 
     89 N          -3.5311  -25.8306  -49.9952 N.am      16 UNK        -0.5000 
     90 CA         -4.9688  -25.8147  -49.6959 C.3       16 UNK         0.1400 
     91 CB         -5.5615  -27.2371  -49.7607 C.3       16 UNK        -0.1800 
     92 C          -5.7693  -24.7952  -50.5358 C.2       16 UNK         0.5000 
     93 O          -6.9934  -24.9011  -50.6273 O.2       16 UNK        -0.5000 
     94 N          -5.0681  -23.8176  -51.1239 N.am      17 UNK        -0.5000 
     95 CA         -5.6320  -22.7693  -51.9737 C.3       17 UNK         0.1400 
     96 CB         -4.5888  -22.3948  -53.0372 C.3       17 UNK        -0.1800 
     97 C          -6.0800  -21.5283  -51.1751 C.2       17 UNK         0.5000 
     98 O          -6.7393  -20.6616  -51.7494 O.2       17 UNK        -0.5000 
     99 N          -5.7253  -21.4719  -49.8813 N.am      18 UNK        -0.5000 
    100 CA        -5.9945  -20.4040  -48.9132 C.3       18 UNK         0.1400 
    101 CB        -7.5054  -20.1058  -48.8033 C.3       18 UNK        -0.1800 
    102 C         -5.1680  -19.1255  -49.1615 C.2       18 UNK         0.5000 
    103 O         -4.4433  -19.0130  -50.1552 O.2       18 UNK        -0.5000 
    104 N         -5.2696  -18.1830  -48.2126 N.am      19 UNK        -0.5000 
    105 CA        -4.5084  -16.9295  -48.1554 C.3       19 UNK         0.1400 
    106 CB        -4.8794  -16.1738  -46.8708 C.3       19 UNK        -0.1800 
    107 C         -4.6905  -16.0173  -49.3821 C.2       19 UNK         0.5000 
    108 O         -3.7668  -15.2851  -49.7318 O.2       19 UNK        -0.5000 
    109 N         -5.8611  -16.0980  -50.0269 N.am      20 UNK        -0.5000 
    110 CA        -6.2057  -15.3557  -51.2405 C.3       20 UNK         0.1400 
    111 CB        -7.7085  -15.5291  -51.5106 C.3       20 UNK        -0.1800 
    112 C         -5.3861  -15.7616  -52.4837 C.2       20 UNK         0.5000 
    113 O         -5.3173  -14.9779  -53.4316 O.2       20 UNK        -0.5000 
    114 N         -4.7959  -16.9633  -52.4662 N.am      21 UNK        -0.5000 
    115 CA        -3.9656  -17.5051  -53.5343 C.3       21 UNK         0.1400 
    116 CB        -4.6497  -18.7564  -54.1137 C.3       21 UNK        -0.1800 
    117 C         -2.5596  -17.7767  -52.9798 C.2       21 UNK         0.5000 
    118 O         -1.7149  -16.8818  -53.0185 O.2       21 UNK        -0.5000 
    119 N         -2.3304  -18.9993  -52.4866 N.am      22 UNK        -0.5000 
    120 CA        -1.0357  -19.4590  -51.9577 C.3       22 UNK         0.1400 
    121 C         -0.7026  -18.9579  -50.5287 C.2       22 UNK         0.5000 
    122 N         -1.6266  -18.3515  -49.8009 N.am      22 UNK        -0.7600 
    123 O          0.4249  -19.1090  -50.0773 O.2       22 UNK        -0.5000 
    124 C124       -0.8756  -20.9962  -52.0789 C.3       23 UNK        -0.0398 
    125 S125       -0.8461  -21.5085  -53.8365 S.3       23 UNK        -0.2404 
    126 C126        0.8604  -22.1094  -54.1231 C.3       23 UNK        -0.0205 
    127 H127        5.1556  -12.7288  -49.8026 H         1 UNK         0.0600 
    128 H128        5.3257  -12.3861  -48.0785 H         1 UNK         0.0600 
    129 H129        3.9958  -11.6695  -48.9956 H         1 UNK         0.0600 
    130 H130        4.3170  -14.7591  -50.1952 H         1 UNK         0.3000 
    131 H131        2.9318  -16.2945  -48.2042 H         1 UNK         0.0600 
    132 H132        2.7083  -17.9850  -50.1356 H         1 UNK         0.0800 
    133 H133        4.2846  -17.6185  -49.5306 H         1 UNK         0.0800 
    134 H134        3.1867  -17.4113  -53.8868 H         1 UNK         0.0800 
    135 H135        1.9311  -17.3547  -52.6726 H         1 UNK         0.0800 
    136 H136        1.4035  -19.4294  -54.2010 H         1 UNK         0.1150 
    137 H137        2.6688  -23.0703  -52.3409 H         1 UNK         0.1150 
    138 H138        4.5736  -19.3958  -51.2991 H         1 UNK         0.1150 
    139 H139        4.3488  -23.1002  -50.7013 H         1 UNK         0.0800 
    140 H140        5.6111  -21.9111  -50.9037 H         1 UNK         0.0800 
    141 H141        1.9981  -21.2857  -49.9183 H         1 UNK         0.0800 
    142 H142        2.1773  -20.2852  -48.5203 H         1 UNK         0.0800 
    143 H143        2.1527  -23.3284  -48.3147 H         1 UNK         0.0600 
    144 H144        2.7386  -21.4720  -46.4133 H         1 UNK         0.3000 
    145 H145        1.0336  -22.4784  -43.5034 H         1 UNK         0.0600 
    146 H146        3.3494  -22.7433  -42.6220 H         1 UNK         0.0600 
    147 H147        2.8522  -24.1282  -43.5822 H         1 UNK         0.0600 
    148 H148        3.9625  -22.9513  -44.2627 H         1 UNK         0.0600 
    149 H149        1.3745  -20.3351  -43.5306 H         1 UNK         0.3000 
    150 H150        3.9085  -18.1911  -44.0467 H         1 UNK         0.0600 
    151 H151        3.5982  -18.1654  -46.5289 H         1 UNK         0.0600 
    152 H152        2.8315  -16.7857  -45.7680 H         1 UNK         0.0600 
    153 H153        1.8517  -18.1455  -46.3225 H         1 UNK         0.0600 
    154 H154        0.9756  -17.9122  -44.0608 H         1 UNK         0.3000 
    155 H155        0.6358  -18.0939  -40.5824 H         1 UNK         0.0600 
    156 H156        0.5416  -15.4912  -42.1981 H         1 UNK         0.0600 
    157 H157       -0.2125  -15.7863  -40.6327 H         1 UNK         0.0600 
    158 H158        1.5367  -15.7496  -40.7695 H         1 UNK         0.0600 
    159 H159       -1.2730  -17.1958  -42.3941 H         1 UNK         0.3000 
    160 H160       -2.2998  -19.0125  -44.1977 H         1 UNK         0.0600 
    161 H161       -2.9919  -21.2179  -42.1800 H         1 UNK         0.0600 
    162 H162       -2.1916  -21.4561  -43.7241 H         1 UNK         0.0600 
    163 H163       -3.8536  -20.8937  -43.6839 H         1 UNK         0.0600 
    164 H164       -3.7549  -17.7527  -43.1759 H         1 UNK         0.3000 
    165 H165       -5.7974  -17.8233  -40.9907 H         1 UNK         0.0600 
    166 H166       -5.4179  -16.0693  -39.2266 H         1 UNK         0.0600 
    167 H167       -4.8387  -17.6547  -38.7457 H         1 UNK         0.0600 
    168 H168       -3.6916  -16.4282  -39.2590 H         1 UNK         0.0600 
    169 H169       -5.6955  -16.1471  -42.4111 H         1 UNK         0.3000 
    170 H170       -4.8398  -14.8074  -43.9461 H         1 UNK         0.0600 
    171 H171       -3.9521  -12.5289  -42.0937 H         1 UNK         0.0600 
    172 H172       -4.9037  -12.3563  -43.5689 H         1 UNK         0.0600 
    173 H173       -5.5816  -13.1877  -42.1779 H         1 UNK         0.0600 
    174 H174       -2.6829  -13.1237  -44.2243 H         1 UNK         0.3000 
    175 H175       -0.4710  -13.6289  -44.8516 H         1 UNK         0.0600 
    176 H176        1.0283  -15.0876  -46.1916 H         1 UNK         0.0600 
    177 H177       -0.1746  -16.3751  -46.1753 H         1 UNK         0.0600 
    178 H178        0.5816  -15.8476  -44.6743 H         1 UNK         0.0600 
    179 H179       -1.2155  -14.5766  -47.5076 H         1 UNK         0.3000 
    180 H180       -3.5158  -12.7640  -48.3599 H         1 UNK         0.0600 
    181 H181       -1.3856  -10.5870  -48.6437 H         1 UNK         0.0600 
    182 H182       -3.0277  -10.3939  -48.0547 H         1 UNK         0.0600 
    183 H183       -2.7515  -10.8064  -49.7383 H         1 UNK         0.0600 
    184 H184       -2.4518  -14.0568  -49.7409 H         1 UNK         0.3000 
    185 H185       -0.9038  -15.1709  -50.8326 H         1 UNK         0.0600 
    186 H186       -1.1774  -13.3742  -52.5388 H         1 UNK         0.0600 
    187 H187        0.5195  -12.9319  -52.3786 H         1 UNK         0.0600 
    188 H188        0.0690  -14.5114  -53.0257 H         1 UNK         0.0600 
    189 H189        1.9162  -14.5014  -51.0999 H         1 UNK         0.3000 
    190 H190       -0.1020  -20.8432  -47.1566 H         1 UNK         0.3000 
    191 H191       -2.2469  -21.1387  -48.9183 H         1 UNK         0.0600 
    192 H192       -2.0710  -19.2946  -47.2778 H         1 UNK         0.0600 
    193 H193       -3.5536  -20.1751  -46.9372 H         1 UNK         0.0600 
    194 H194       -2.1349  -20.4341  -45.9431 H         1 UNK         0.0600 
    195 H195       -1.4548  -23.0348  -46.0142 H         1 UNK         0.3000 
    196 H196       -3.9283  -24.6417  -46.1686 H         1 UNK         0.0600 
    197 H197       -3.0583  -25.6145  -44.0419 H         1 UNK         0.0600 
    198 H198       -3.1652  -23.8643  -43.9439 H         1 UNK         0.0600 
    199 H199       -1.5987  -24.6401  -44.1743 H         1 UNK         0.0600 
    200 H200       -0.3941  -24.9224  -46.6475 H         1 UNK         0.3000 
    201 H201       -0.2725  -27.7181  -47.0357 H         1 UNK         0.0600 
    202 H202        1.6983  -26.2728  -46.5297 H         1 UNK         0.0600 
    203 H203        1.5803  -25.5394  -48.1282 H         1 UNK         0.0600 
    204 H204        1.9728  -27.2447  -47.9686 H         1 UNK         0.0600 
    205 H205       -0.6164  -25.0599  -49.4522 H         1 UNK         0.3000 
    206 H206       -0.9795  -26.9185  -51.6909 H         1 UNK         0.0600 
    207 H207        0.1028  -24.6653  -51.9585 H         1 UNK         0.0600 
    208 H208       -1.3226  -24.8344  -52.9739 H         1 UNK         0.0600 
    209 H209       -1.4100  -23.8920  -51.4934 H         1 UNK         0.0600 
    210 H210       -2.9372  -25.5219  -49.2394 H         1 UNK         0.3000 
    211 H211       -5.0521  -25.4761  -48.6623 H         1 UNK         0.0600 
    212 H212       -5.5853  -27.6217  -50.7805 H         1 UNK         0.0600 
    213 H213       -6.5841  -27.2532  -49.3823 H         1 UNK         0.0600 
    214 H214       -4.9817  -27.9314  -49.1521 H         1 UNK         0.0600 
    215 H215       -4.0709  -23.7976  -50.9725 H         1 UNK         0.3000 
    216 H216       -6.5102  -23.1620  -52.4905 H         1 UNK         0.0600 
    217 H217       -3.7459  -21.8601  -52.6028 H         1 UNK         0.0600 
    218 H218       -5.0285  -21.7561  -53.8031 H         1 UNK         0.0600 
    219 H219       -4.2007  -23.2789  -53.5438 H         1 UNK         0.0600 
    220 H220       -5.1534  -22.2284  -49.5224 H         1 UNK         0.3000 
    221 H221       -5.6690  -20.8036  -47.9522 H         1 UNK         0.0600 
    222 H222       -7.8816  -19.5679  -49.6740 H         1 UNK         0.0600 
    223 H223       -8.0821  -21.0255  -48.7035 H         1 UNK         0.0600 
    224 H224       -7.7264  -19.4950  -47.9277 H         1 UNK         0.0600 
    225 H225       -5.8879  -18.3520  -47.4327 H         1 UNK         0.3000 
    226 H226       -3.4504  -17.1869  -48.0945 H         1 UNK         0.0600 
    227 H227       -5.9400  -15.9212  -46.8431 H         1 UNK         0.0600 
    228 H228       -4.6509  -16.7668  -45.9851 H         1 UNK         0.0600 
    229 H229       -4.3181  -15.2422  -46.7885 H         1 UNK         0.0600 
    230 H230       -6.5583  -16.7358  -49.6728 H         1 UNK         0.3000 
    231 H231       -6.0104  -14.2976  -51.0540 H         1 UNK         0.0600 
    232 H232       -7.9667  -16.5746  -51.6850 H         1 UNK         0.0600 
    233 H233       -8.0160  -14.9638  -52.3914 H         1 UNK         0.0600 
    234 H234       -8.3052  -15.1699  -50.6719 H         1 UNK         0.0600 
    235 H235       -4.8692  -17.5336  -51.6312 H         1 UNK         0.3000 
    236 H236       -3.8472  -16.7847  -54.3463 H         1 UNK         0.0600 
    237 H237       -5.5673  -18.4884  -54.6376 H         1 UNK         0.0600 
    238 H238       -4.0045  -19.2685  -54.8289 H         1 UNK         0.0600 
    239 H239       -4.9174  -19.4645  -53.3313 H         1 UNK         0.0600 
    240 H240       -3.0926  -19.6581  -52.4478 H         1 UNK         0.3000 
    241 H241       -0.2665  -19.0027  -52.5797 H         1 UNK         0.0600 
    242 H242       -1.3441  -17.9544  -48.9206 H         1 UNK         0.3800 
    243 H243       -2.5873  -18.3145  -50.1183 H         1 UNK         0.3800 
    244 H244        0.0269  -21.3460  -51.5770 H         1 UNK         0.0800 
    245 H245       -1.6976  -21.5002  -51.5713 H         1 UNK         0.0800 
    246 H246        0.8950  -23.1658  -53.8539 H         1 UNK         0.0800 
    247 H247        1.0717  -22.0643  -55.1920 H         1 UNK         0.0800 
@<TRIPOS>BOND
     1    1    2 1    
     2    1  127 1    
     3    1  128 1    
     4    1  129 1    
     5    2    3 2    
     6    2    4 am   BACKBONE|DICT|INTERRES
     7    4    5 1    
     8    4  130 1    
     9    5    6 1    
    10    5   65 1    
    11    5  131 1    
    12    6    7 1    
    13    6  132 1    
    14    6  133 1    
    15    7    8 1    
    16    8    9 1    
    17    8  134 1    
    18    8  135 1    
    19    9   10 ar   
    20    9   14 ar   
    21   10   11 ar   
    22   10  136 1    
    23   11   12 ar   
    24   11  126 1    
    25   12   13 ar   
    26   12  137 1    
    27   13   14 ar   
    28   13   15 1    
    29   14  138 1    
    30   15   16 1    
    31   15  139 1    
    32   15  140 1    
    33   16   17 1    
    34   17   18 1    
    35   17  141 1    
    36   17  142 1    
    37   18   19 1    
    38   18   67 1    
    39   18  143 1    
    40   19   20 am   BACKBONE|DICT|INTERRES
    41   19  144 1    
    42   20   21 2    
    43   20   22 1    
    44   22   23 1    
    45   22   24 1    
    46   22  145 1    
    47   23  146 1    
    48   23  147 1    
    49   23  148 1    
    50   24   25 am   BACKBONE|DICT|INTERRES
    51   24  149 1    
    52   25   26 2    
    53   25   27 1    
    54   27   28 1    
    55   27   29 1    
    56   27  150 1    
    57   28  151 1    
    58   28  152 1    
    59   28  153 1    
    60   29   30 am   BACKBONE|DICT|INTERRES
    61   29  154 1    
    62   30   31 2    
    63   30   32 1    
    64   32   33 1    
    65   32   34 1    
    66   32  155 1    
    67   33  156 1    
    68   33  157 1    
    69   33  158 1    
    70   34   35 am   BACKBONE|DICT|INTERRES
    71   34  159 1    
    72   35   36 2    
    73   35   37 1    
    74   37   38 1    
    75   37   39 1    
    76   37  160 1    
    77   38  161 1    
    78   38  162 1    
    79   38  163 1    
    80   39   40 am   BACKBONE|DICT|INTERRES
    81   39  164 1    
    82   40   41 2    
    83   40   42 1    
    84   42   43 1    
    85   42   44 1    
    86   42  165 1    
    87   43  166 1    
    88   43  167 1    
    89   43  168 1    
    90   44   45 am   BACKBONE|DICT|INTERRES
    91   44  169 1    
    92   45   46 2    
    93   45   47 1    
    94   47   48 1    
    95   47   49 1    
    96   47  170 1    
    97   48  171 1    
    98   48  172 1    
    99   48  173 1    
   100   49   50 am   BACKBONE|DICT|INTERRES
   101   49  174 1    
   102   50   51 2    
   103   50   52 1    
   104   52   53 1    
   105   52   54 1    
   106   52  175 1    
   107   53  176 1    
   108   53  177 1    
   109   53  178 1    
   110   54   55 am   BACKBONE|DICT|INTERRES
   111   54  179 1    
   112   55   56 2    
   113   55   57 1    
   114   57   58 1    
   115   57   59 1    
   116   57  180 1    
   117   58  181 1    
   118   58  182 1    
   119   58  183 1    
   120   59   60 am   BACKBONE|DICT|INTERRES
   121   59  184 1    
   122   60   61 2    
   123   60   62 1    
   124   62   63 1    
   125   62   64 1    
   126   62  185 1    
   127   63  186 1    
   128   63  187 1    
   129   63  188 1    
   130   64   65 am   BACKBONE|DICT|INTERRES
   131   64  189 1    
   132   65   66 2    
   133   67   68 2    
   134   67   69 am   BACKBONE|DICT|INTERRES
   135   69   70 1    
   136   69  190 1    
   137   70   71 1    
   138   70   72 1    
   139   70  191 1    
   140   71  192 1    
   141   71  193 1    
   142   71  194 1    
   143   72   73 2    
   144   72   74 am   BACKBONE|DICT|INTERRES
   145   74   75 1    
   146   74  195 1    
   147   75   76 1    
   148   75   77 1    
   149   75  196 1    
   150   76  197 1    
   151   76  198 1    
   152   76  199 1    
   153   77   78 2    
   154   77   79 am   BACKBONE|DICT|INTERRES
   155   79   80 1    
   156   79  200 1    
   157   80   81 1    
   158   80   82 1    
   159   80  201 1    
   160   81  202 1    
   161   81  203 1    
   162   81  204 1    
   163   82   83 2    
   164   82   84 am   BACKBONE|DICT|INTERRES
   165   84   85 1    
   166   84  205 1    
   167   85   86 1    
   168   85   87 1    
   169   85  206 1    
   170   86  207 1    
   171   86  208 1    
   172   86  209 1    
   173   87   88 2    
   174   87   89 am   BACKBONE|DICT|INTERRES
   175   89   90 1    
   176   89  210 1    
   177   90   91 1    
   178   90   92 1    
   179   90  211 1    
   180   91  212 1    
   181   91  213 1    
   182   91  214 1    
   183   92   93 2    
   184   92   94 am   BACKBONE|DICT|INTERRES
   185   94   95 1    
   186   94  215 1    
   187   95   96 1    
   188   95   97 1    
   189   95  216 1    
   190   96  217 1    
   191   96  218 1    
   192   96  219 1    
   193   97   98 2    
   194   97   99 am   BACKBONE|DICT|INTERRES
   195   99  100 1    
   196   99  220 1    
   197  100  101 1    
   198  100  102 1    
   199  100  221 1    
   200  101  222 1    
   201  101  223 1    
   202  101  224 1    
   203  102  103 2    
   204  102  104 am   BACKBONE|DICT|INTERRES
   205  104  105 1    
   206  104  225 1    
   207  105  106 1    
   208  105  107 1    
   209  105  226 1    
   210  106  227 1    
   211  106  228 1    
   212  106  229 1    
   213  107  108 2    
   214  107  109 am   BACKBONE|DICT|INTERRES
   215  109  110 1    
   216  109  230 1    
   217  110  111 1    
   218  110  112 1    
   219  110  231 1    
   220  111  232 1    
   221  111  233 1    
   222  111  234 1    
   223  112  113 2    
   224  112  114 am   BACKBONE|DICT|INTERRES
   225  114  115 1    
   226  114  235 1    
   227  115  116 1    
   228  115  117 1    
   229  115  236 1    
   230  116  237 1    
   231  116  238 1    
   232  116  239 1    
   233  117  118 2    
   234  117  119 am   BACKBONE|DICT|INTERRES
   235  119  120 1    
   236  119  240 1    
   237  120  121 1    
   238  120  124 1    
   239  120  241 1    
   240  121  122 am   BACKBONE|DICT|INTERRES
   241  121  123 2    
   242  122  242 1    
   243  122  243 1    
   244  124  125 1    
   245  124  244 1    
   246  124  245 1    
   247  125  126 1    
   248  126  246 1    
   249  126  247 1    
@<TRIPOS>SUBSTRUCTURE
     1 UNK         1 GROUP             0       ****    0 ROOT    
