@<TRIPOS>MOLECULE
3R540
247   249    1
SMALL
USER_CHARGES


@<TRIPOS>ATOM
      1 CA          0.3540  -10.9951  -46.2816 C.3       0 UNK        -0.1800 
      2 C           1.1344  -12.0566  -47.0425 C.2       0 UNK         0.5000 
      3 O           0.6990  -13.2063  -47.1120 O.2       0 UNK        -0.5000 
      4 N           2.2924  -11.6752  -47.5987 N.am      1 UNK        -0.5000 
      5 CA          3.2444  -12.4986  -48.3577 C.3       1 UNK         0.1400 
      6 C6          2.6315  -13.1429  -49.6285 C.3       23 UNK        -0.0398 
      7 S7          3.9019  -13.5486  -50.8755 S.3       23 UNK        -0.2404 
      8 C8          2.8705  -14.0566  -52.2965 C.3       23 UNK        -0.0205 
      9 C9          2.2553  -15.4575  -52.2275 C.ar      23 UNK        -0.0193 
     10 C10         1.5543  -15.9249  -53.3438 C.ar      23 UNK        -0.1150 
     11 C11         0.9673  -17.1942  -53.3489 C.ar      23 UNK        -0.0193 
     12 C12         1.0722  -18.0036  -52.2144 C.ar      23 UNK        -0.1150 
     13 C13         1.7718  -17.5552  -51.0912 C.ar      23 UNK        -0.0193 
     14 C14         2.3666  -16.2920  -51.1076 C.ar      23 UNK        -0.1150 
     15 C15         1.9063  -18.4253  -49.8531 C.3       23 UNK        -0.0205 
     16 S16         0.7028  -17.9416  -48.5790 S.3       23 UNK        -0.2404 
     17 C17        -0.7045  -19.0247  -48.9850 C.3       23 UNK        -0.0398 
     18 CA         -0.7141  -20.2949  -48.1057 C.3       11 UNK         0.1400 
     19 N          -0.7709  -20.0004  -46.6722 N.am      11 UNK        -0.5000 
     20 C          -0.6019  -20.9136  -45.7067 C.2       10 UNK         0.5000 
     21 O          -0.3319  -22.0957  -45.9192 O.2       10 UNK        -0.5000 
     22 CA         -0.8367  -20.4358  -44.2661 C.3       10 UNK         0.1400 
     23 CB          0.4228  -19.7645  -43.6963 C.3       10 UNK        -0.1800 
     24 N          -1.9857  -19.5303  -44.1877 N.am      10 UNK        -0.5000 
     25 C          -3.2575  -19.9334  -44.3346 C.2       9 UNK         0.5000 
     26 O          -3.5835  -21.1115  -44.4786 O.2       9 UNK        -0.5000 
     27 CA         -4.3453  -18.8445  -44.3797 C.3       9 UNK         0.1400 
     28 CB         -4.8596  -18.5262  -42.9690 C.3       9 UNK        -0.1800 
     29 N          -3.8883  -17.6169  -45.0323 N.am      9 UNK        -0.5000 
     30 C          -3.6476  -17.5180  -46.3486 C.2       8 UNK         0.5000 
     31 O          -3.8195  -18.4433  -47.1400 O.2       8 UNK        -0.5000 
     32 CA         -3.0760  -16.1869  -46.8736 C.3       8 UNK         0.1400 
     33 CB         -4.2074  -15.2688  -47.3573 C.3       8 UNK        -0.1800 
     34 N          -2.2513  -15.4656  -45.9037 N.am      8 UNK        -0.5000 
     35 C          -1.1512  -15.9536  -45.3163 C.2       7 UNK         0.5000 
     36 O          -0.7285  -17.0944  -45.5139 O.2       7 UNK        -0.5000 
     37 CA         -0.4170  -15.0447  -44.3105 C.3       7 UNK         0.1400 
     38 CB         -1.0850  -13.6700  -44.0777 C.3       7 UNK        -0.1800 
     39 N          -0.1928  -15.7289  -43.0324 N.am      7 UNK        -0.5000 
     40 C          -1.1406  -16.2231  -42.2191 C.2       6 UNK         0.5000 
     41 O          -2.3445  -16.1587  -42.4738 O.2       6 UNK        -0.5000 
     42 CA         -0.6887  -16.9131  -40.9135 C.3       6 UNK         0.1400 
     43 CB         -1.5571  -18.1415  -40.5853 C.3       6 UNK        -0.1800 
     44 N           0.7183  -17.3215  -40.9345 N.am      6 UNK        -0.5000 
     45 C           1.7419  -16.5873  -40.4832 C.2       5 UNK         0.5000 
     46 O           1.6017  -15.4599  -40.0053 O.2       5 UNK        -0.5000 
     47 CA          3.1509  -17.2094  -40.5766 C.3       5 UNK         0.1400 
     48 CB          3.2517  -18.3687  -41.5901 C.3       5 UNK        -0.1800 
     49 N           4.0929  -16.1680  -40.9681 N.am      5 UNK        -0.5000 
     50 C           5.0297  -15.6137  -40.1879 C.2       4 UNK         0.5000 
     51 O           5.2882  -15.9987  -39.0465 O.2       4 UNK        -0.5000 
     52 CA          5.8178  -14.4248  -40.7801 C.3       4 UNK         0.1400 
     53 CB          7.1998  -14.8858  -41.2683 C.3       4 UNK        -0.1800 
     54 N           5.1180  -13.7752  -41.8908 N.am      4 UNK        -0.5000 
     55 C           4.0277  -13.0061  -41.7629 C.2       3 UNK         0.5000 
     56 O           3.5858  -12.6272  -40.6781 O.2       3 UNK        -0.5000 
     57 CA          3.2919  -12.6085  -43.0593 C.3       3 UNK         0.1400 
     58 CB          3.5412  -11.1311  -43.3990 C.3       3 UNK        -0.1800 
     59 N           3.6346  -13.4222  -44.2305 N.am      3 UNK        -0.5000 
     60 C           3.3654  -14.7257  -44.3886 C.2       2 UNK         0.5000 
     61 O           2.8593  -15.4197  -43.5053 O.2       2 UNK        -0.5000 
     62 CA          3.6851  -15.3297  -45.7711 C.3       2 UNK         0.1400 
     63 CB          3.0314  -16.7071  -45.9780 C.3       2 UNK        -0.1800 
     64 N           3.2314  -14.4217  -46.8251 N.am      2 UNK        -0.5000 
     65 C           3.9834  -13.5113  -47.4541 C.2       1 UNK         0.5000 
     66 O           5.1974  -13.3994  -47.2810 O.2       1 UNK        -0.5000 
     67 C          -1.8417  -21.2545  -48.5298 C.2       11 UNK         0.5000 
     68 O          -1.5767  -22.2021  -49.2658 O.2       11 UNK        -0.5000 
     69 N          -3.0666  -21.0263  -48.0339 N.am      12 UNK        -0.5000 
     70 CA         -4.2210  -21.8991  -48.2496 C.3       12 UNK         0.1400 
     71 CB         -5.4934  -21.2315  -47.7110 C.3       12 UNK        -0.1800 
     72 C          -4.0343  -23.2983  -47.6404 C.2       12 UNK         0.5000 
     73 O          -4.3814  -24.2850  -48.2873 O.2       12 UNK        -0.5000 
     74 N          -3.4524  -23.3724  -46.4346 N.am      13 UNK        -0.5000 
     75 CA         -3.0910  -24.6290  -45.7756 C.3       13 UNK         0.1400 
     76 CB         -2.6216  -24.3542  -44.3393 C.3       13 UNK        -0.1800 
     77 C          -2.0327  -25.4214  -46.5655 C.2       13 UNK         0.5000 
     78 O          -2.2091  -26.6220  -46.7763 O.2       13 UNK        -0.5000 
     79 N          -0.9878  -24.7280  -47.0417 N.am      14 UNK        -0.5000 
     80 CA          0.0562  -25.2822  -47.9095 C.3       14 UNK         0.1400 
     81 CB          1.1717  -24.2425  -48.0947 C.3       14 UNK        -0.1800 
     82 C          -0.4814  -25.7571  -49.2748 C.2       14 UNK         0.5000 
     83 O          -0.0149  -26.7709  -49.7946 O.2       14 UNK        -0.5000 
     84 N          -1.4821  -25.0426  -49.8050 N.am      15 UNK        -0.5000 
     85 CA         -2.2107  -25.3649  -51.0327 C.3       15 UNK         0.1400 
     86 CB         -2.7880  -24.0654  -51.6176 C.3       15 UNK        -0.1800 
     87 C          -3.3133  -26.4312  -50.8418 C.2       15 UNK         0.5000 
     88 O          -4.0601  -26.6869  -51.7862 O.2       15 UNK        -0.5000 
     89 N          -3.4078  -27.0321  -49.6454 N.am      16 UNK        -0.5000 
     90 CA         -4.3364  -28.0984  -49.2559 C.3       16 UNK         0.1400 
     91 CB         -4.0560  -29.3912  -50.0511 C.3       16 UNK        -0.1800 
     92 C          -5.8150  -27.6599  -49.3024 C.2       16 UNK         0.5000 
     93 O          -6.6644  -28.3822  -49.8267 O.2       16 UNK        -0.5000 
     94 N          -6.0819  -26.4745  -48.7381 N.am      17 UNK        -0.5000 
     95 CA         -7.3806  -25.8086  -48.5870 C.3       17 UNK         0.1400 
     96 CB         -8.4090  -26.7006  -47.8596 C.3       17 UNK        -0.1800 
     97 C          -7.9313  -25.1909  -49.8878 C.2       17 UNK         0.5000 
     98 O          -9.0916  -24.7757  -49.9163 O.2       17 UNK        -0.5000 
     99 N          -7.0903  -25.0882  -50.9251 N.am      18 UNK        -0.5000 
    100 CA        -7.3461  -24.2742  -52.1129 C.3       18 UNK         0.1400 
    101 CB        -6.4569  -24.7746  -53.2613 C.3       18 UNK        -0.1800 
    102 C         -7.0801  -22.7840  -51.8182 C.2       18 UNK         0.5000 
    103 O         -6.5087  -22.4468  -50.7774 O.2       18 UNK        -0.5000 
    104 N         -7.4744  -21.9098  -52.7523 N.am      19 UNK        -0.5000 
    105 CA        -7.3181  -20.4534  -52.6797 C.3       19 UNK         0.1400 
    106 CB        -8.2701  -19.8051  -53.7007 C.3       19 UNK        -0.1800 
    107 C         -5.8535  -20.0051  -52.8771 C.2       19 UNK         0.5000 
    108 O         -5.5242  -19.3738  -53.8833 O.2       19 UNK        -0.5000 
    109 N         -4.9822  -20.3957  -51.9374 N.am      20 UNK        -0.5000 
    110 CA        -3.5485  -20.0831  -51.8319 C.3       20 UNK         0.1400 
    111 CB        -3.3530  -18.5727  -51.5828 C.3       20 UNK        -0.1800 
    112 C         -2.6712  -20.5837  -53.0007 C.2       20 UNK         0.5000 
    113 O         -1.4805  -20.2793  -53.0285 O.2       20 UNK        -0.5000 
    114 N         -3.2722  -21.3283  -53.9403 N.am      21 UNK        -0.5000 
    115 CA        -2.7423  -21.7179  -55.2501 C.3       21 UNK         0.1400 
    116 CB        -1.5023  -22.6268  -55.1110 C.3       21 UNK        -0.1800 
    117 C         -2.5069  -20.5139  -56.1928 C.2       21 UNK         0.5000 
    118 O         -1.7177  -20.6274  -57.1327 O.2       21 UNK        -0.5000 
    119 N         -3.2007  -19.3919  -55.9504 N.am      22 UNK        -0.5000 
    120 CA        -3.0913  -18.1561  -56.7437 C.3       22 UNK         0.1400 
    121 C         -4.3170  -17.2002  -56.6656 C.2       22 UNK         0.5000 
    122 N         -5.3401  -17.4542  -55.8601 N.am      22 UNK        -0.7600 
    123 O         -4.3609  -16.2070  -57.3872 O.2       22 UNK        -0.5000 
    124 C124       -1.7416  -17.4113  -56.5403 C.3       23 UNK        -0.0398 
    125 S125       -1.3816  -16.9401  -54.8092 S.3       23 UNK        -0.2404 
    126 C126        0.2605  -17.6966  -54.5988 C.3       23 UNK        -0.0205 
    127 H127        0.7448   -9.9945  -46.4679 H         1 UNK         0.0600 
    128 H128        0.4079  -11.1874  -45.2102 H         1 UNK         0.0600 
    129 H129       -0.6937  -11.0104  -46.5818 H         1 UNK         0.0600 
    130 H130        2.5827  -10.7146  -47.4773 H         1 UNK         0.3000 
    131 H131        3.9987  -11.7840  -48.6923 H         1 UNK         0.0600 
    132 H132        1.9373  -12.4405  -50.0918 H         1 UNK         0.0800 
    133 H133        2.0400  -14.0257  -49.3838 H         1 UNK         0.0800 
    134 H134        2.0744  -13.3244  -52.4384 H         1 UNK         0.0800 
    135 H135        3.4954  -14.0036  -53.1892 H         1 UNK         0.0800 
    136 H136        1.4686  -15.2991  -54.2215 H         1 UNK         0.1150 
    137 H137        0.6212  -18.9856  -52.2109 H         1 UNK         0.1150 
    138 H138        2.9113  -15.9757  -50.2313 H         1 UNK         0.1150 
    139 H139        1.7954  -19.4818  -50.1023 H         1 UNK         0.0800 
    140 H140        2.9110  -18.3167  -49.4418 H         1 UNK         0.0800 
    141 H141       -0.6574  -19.2904  -50.0422 H         1 UNK         0.0800 
    142 H142       -1.6252  -18.4553  -48.8530 H         1 UNK         0.0800 
    143 H143        0.2265  -20.8210  -48.2837 H         1 UNK         0.0600 
    144 H144       -0.9331  -19.0349  -46.4082 H         1 UNK         0.3000 
    145 H145       -1.0495  -21.3164  -43.6562 H         1 UNK         0.0600 
    146 H146        1.2892  -20.4200  -43.7936 H         1 UNK         0.0600 
    147 H147        0.6635  -18.8328  -44.2076 H         1 UNK         0.0600 
    148 H148        0.3048  -19.5504  -42.6367 H         1 UNK         0.0600 
    149 H149       -1.7857  -18.5386  -44.1737 H         1 UNK         0.3000 
    150 H150       -5.1839  -19.2399  -44.9565 H         1 UNK         0.0600 
    151 H151       -5.6592  -17.7858  -42.9973 H         1 UNK         0.0600 
    152 H152       -4.0684  -18.1413  -42.3275 H         1 UNK         0.0600 
    153 H153       -5.2609  -19.4206  -42.4908 H         1 UNK         0.0600 
    154 H154       -3.6788  -16.8294  -44.4326 H         1 UNK         0.3000 
    155 H155       -2.4390  -16.4213  -47.7287 H         1 UNK         0.0600 
    156 H156       -4.8252  -15.7707  -48.1035 H         1 UNK         0.0600 
    157 H157       -3.8118  -14.3647  -47.8206 H         1 UNK         0.0600 
    158 H158       -4.8609  -14.9693  -46.5370 H         1 UNK         0.0600 
    159 H159       -2.5426  -14.5275  -45.6721 H         1 UNK         0.3000 
    160 H160        0.5597  -14.8572  -44.7511 H         1 UNK         0.0600 
    161 H161       -1.1948  -13.1194  -45.0117 H         1 UNK         0.0600 
    162 H162       -0.4778  -13.0534  -43.4150 H         1 UNK         0.0600 
    163 H163       -2.0747  -13.7595  -43.6292 H         1 UNK         0.0600 
    164 H164        0.7791  -15.8536  -42.7776 H         1 UNK         0.3000 
    165 H165       -0.8413  -16.1877  -40.1119 H         1 UNK         0.0600 
    166 H166       -1.2052  -18.6457  -39.6852 H         1 UNK         0.0600 
    167 H167       -2.5915  -17.8491  -40.4016 H         1 UNK         0.0600 
    168 H168       -1.5631  -18.8682  -41.3970 H         1 UNK         0.0600 
    169 H169        0.9166  -18.2279  -41.3308 H         1 UNK         0.3000 
    170 H170        3.3964  -17.5977  -39.5865 H         1 UNK         0.0600 
    171 H171        4.2790  -18.7243  -41.6716 H         1 UNK         0.0600 
    172 H172        2.6470  -19.2227  -41.2832 H         1 UNK         0.0600 
    173 H173        2.9297  -18.0665  -42.5878 H         1 UNK         0.0600 
    174 H174        3.8964  -15.7423  -41.8679 H         1 UNK         0.3000 
    175 H175        5.9616  -13.6923  -39.9829 H         1 UNK         0.0600 
    176 H176        7.1190  -15.6181  -42.0726 H         1 UNK         0.0600 
    177 H177        7.7895  -14.0456  -41.6355 H         1 UNK         0.0600 
    178 H178        7.7655  -15.3489  -40.4586 H         1 UNK         0.0600 
    179 H179        5.4237  -14.0153  -42.8219 H         1 UNK         0.3000 
    180 H180        2.2241  -12.7387  -42.8705 H         1 UNK         0.0600 
    181 H181        2.9519  -10.8189  -44.2613 H         1 UNK         0.0600 
    182 H182        4.5919  -10.9427  -43.6228 H         1 UNK         0.0600 
    183 H183        3.2617  -10.4848  -42.5659 H         1 UNK         0.0600 
    184 H184        4.0720  -12.9351  -44.9994 H         1 UNK         0.3000 
    185 H185        4.7673  -15.4617  -45.8246 H         1 UNK         0.0600 
    186 H186        1.9446  -16.6521  -45.9177 H         1 UNK         0.0600 
    187 H187        3.2896  -17.1205  -46.9529 H         1 UNK         0.0600 
    188 H188        3.3665  -17.4214  -45.2250 H         1 UNK         0.0600 
    189 H189        2.2256  -14.3536  -46.9585 H         1 UNK         0.3000 
    190 H190       -3.2339  -20.1812  -47.4933 H         1 UNK         0.3000 
    191 H191       -4.3387  -22.0282  -49.3257 H         1 UNK         0.0600 
    192 H192       -5.4310  -21.0511  -46.6379 H         1 UNK         0.0600 
    193 H193       -6.3672  -21.8594  -47.8908 H         1 UNK         0.0600 
    194 H194       -5.6749  -20.2763  -48.2039 H         1 UNK         0.0600 
    195 H195       -3.2444  -22.5161  -45.9321 H         1 UNK         0.3000 
    196 H196       -3.9915  -25.2444  -45.7215 H         1 UNK         0.0600 
    197 H197       -2.3752  -25.2840  -43.8253 H         1 UNK         0.0600 
    198 H198       -3.4002  -23.8587  -43.7592 H         1 UNK         0.0600 
    199 H199       -1.7347  -23.7218  -44.3157 H         1 UNK         0.0600 
    200 H200       -0.8964  -23.7474  -46.7904 H         1 UNK         0.3000 
    201 H201        0.4818  -26.1505  -47.4026 H         1 UNK         0.0600 
    202 H202        1.6020  -23.9511  -47.1363 H         1 UNK         0.0600 
    203 H203        0.8045  -23.3400  -48.5835 H         1 UNK         0.0600 
    204 H204        1.9806  -24.6422  -48.7074 H         1 UNK         0.0600 
    205 H205       -1.7504  -24.1787  -49.3439 H         1 UNK         0.3000 
    206 H206       -1.5007  -25.7682  -51.7573 H         1 UNK         0.0600 
    207 H207       -3.2016  -24.2343  -52.6109 H         1 UNK         0.0600 
    208 H208       -3.5811  -23.6568  -50.9908 H         1 UNK         0.0600 
    209 H209       -2.0148  -23.3046  -51.7237 H         1 UNK         0.0600 
    210 H210       -2.7803  -26.7225  -48.9134 H         1 UNK         0.3000 
    211 H211       -4.1220  -28.3123  -48.2078 H         1 UNK         0.0600 
    212 H212       -4.2943  -29.2791  -51.1091 H         1 UNK         0.0600 
    213 H213       -4.6524  -30.2205  -49.6692 H         1 UNK         0.0600 
    214 H214       -3.0087  -29.6826  -49.9720 H         1 UNK         0.0600 
    215 H215       -5.2934  -25.9059  -48.4348 H         1 UNK         0.3000 
    216 H216       -7.1833  -24.9580  -47.9329 H         1 UNK         0.0600 
    217 H217       -9.2913  -26.1258  -47.5762 H         1 UNK         0.0600 
    218 H218       -7.9911  -27.1212  -46.9450 H         1 UNK         0.0600 
    219 H219       -8.7497  -27.5250  -48.4861 H         1 UNK         0.0600 
    220 H220       -6.1491  -25.4368  -50.8103 H         1 UNK         0.3000 
    221 H221       -8.3914  -24.3872  -52.4075 H         1 UNK         0.0600 
    222 H222       -5.4011  -24.6171  -53.0487 H         1 UNK         0.0600 
    223 H223       -6.6044  -25.8402  -53.4388 H         1 UNK         0.0600 
    224 H224       -6.6838  -24.2572  -54.1939 H         1 UNK         0.0600 
    225 H225       -7.9130  -22.2628  -53.5906 H         1 UNK         0.3000 
    226 H226       -7.6243  -20.1213  -51.6854 H         1 UNK         0.0600 
    227 H227       -9.3075  -20.0701  -53.4963 H         1 UNK         0.0600 
    228 H228       -8.2015  -18.7171  -53.6636 H         1 UNK         0.0600 
    229 H229       -8.0395  -20.1139  -54.7212 H         1 UNK         0.0600 
    230 H230       -5.3563  -21.0072  -51.2157 H         1 UNK         0.3000 
    231 H231       -3.1890  -20.6147  -50.9538 H         1 UNK         0.0600 
    232 H232       -3.7211  -17.9740  -52.4164 H         1 UNK         0.0600 
    233 H233       -3.8753  -18.2528  -50.6810 H         1 UNK         0.0600 
    234 H234       -2.3006  -18.3197  -51.4538 H         1 UNK         0.0600 
    235 H235       -4.2575  -21.5033  -53.8079 H         1 UNK         0.3000 
    236 H236       -3.5266  -22.3117  -55.7213 H         1 UNK         0.0600 
    237 H237       -0.6372  -22.0813  -54.7338 H         1 UNK         0.0600 
    238 H238       -1.6948  -23.4600  -54.4361 H         1 UNK         0.0600 
    239 H239       -1.2208  -23.0523  -56.0748 H         1 UNK         0.0600 
    240 H240       -3.8397  -19.3665  -55.1657 H         1 UNK         0.3000 
    241 H241       -3.1076  -18.4765  -57.7873 H         1 UNK         0.0600 
    242 H242       -6.1158  -16.8120  -55.8598 H         1 UNK         0.3800 
    243 H243       -5.3590  -18.2374  -55.2100 H         1 UNK         0.3800 
    244 H244       -0.9330  -18.0380  -56.9171 H         1 UNK         0.0800 
    245 H245       -1.7024  -16.5093  -57.1531 H         1 UNK         0.0800 
    246 H246        0.8812  -17.4679  -55.4664 H         1 UNK         0.0800 
    247 H247        0.1542  -18.7823  -54.5744 H         1 UNK         0.0800 
@<TRIPOS>BOND
     1    1    2 1    
     2    1  127 1    
     3    1  128 1    
     4    1  129 1    
     5    2    3 2    
     6    2    4 am   BACKBONE|DICT|INTERRES
     7    4    5 1    
     8    4  130 1    
     9    5    6 1    
    10    5   65 1    
    11    5  131 1    
    12    6    7 1    
    13    6  132 1    
    14    6  133 1    
    15    7    8 1    
    16    8    9 1    
    17    8  134 1    
    18    8  135 1    
    19    9   10 ar   
    20    9   14 ar   
    21   10   11 ar   
    22   10  136 1    
    23   11   12 ar   
    24   11  126 1    
    25   12   13 ar   
    26   12  137 1    
    27   13   14 ar   
    28   13   15 1    
    29   14  138 1    
    30   15   16 1    
    31   15  139 1    
    32   15  140 1    
    33   16   17 1    
    34   17   18 1    
    35   17  141 1    
    36   17  142 1    
    37   18   19 1    
    38   18   67 1    
    39   18  143 1    
    40   19   20 am   BACKBONE|DICT|INTERRES
    41   19  144 1    
    42   20   21 2    
    43   20   22 1    
    44   22   23 1    
    45   22   24 1    
    46   22  145 1    
    47   23  146 1    
    48   23  147 1    
    49   23  148 1    
    50   24   25 am   BACKBONE|DICT|INTERRES
    51   24  149 1    
    52   25   26 2    
    53   25   27 1    
    54   27   28 1    
    55   27   29 1    
    56   27  150 1    
    57   28  151 1    
    58   28  152 1    
    59   28  153 1    
    60   29   30 am   BACKBONE|DICT|INTERRES
    61   29  154 1    
    62   30   31 2    
    63   30   32 1    
    64   32   33 1    
    65   32   34 1    
    66   32  155 1    
    67   33  156 1    
    68   33  157 1    
    69   33  158 1    
    70   34   35 am   BACKBONE|DICT|INTERRES
    71   34  159 1    
    72   35   36 2    
    73   35   37 1    
    74   37   38 1    
    75   37   39 1    
    76   37  160 1    
    77   38  161 1    
    78   38  162 1    
    79   38  163 1    
    80   39   40 am   BACKBONE|DICT|INTERRES
    81   39  164 1    
    82   40   41 2    
    83   40   42 1    
    84   42   43 1    
    85   42   44 1    
    86   42  165 1    
    87   43  166 1    
    88   43  167 1    
    89   43  168 1    
    90   44   45 am   BACKBONE|DICT|INTERRES
    91   44  169 1    
    92   45   46 2    
    93   45   47 1    
    94   47   48 1    
    95   47   49 1    
    96   47  170 1    
    97   48  171 1    
    98   48  172 1    
    99   48  173 1    
   100   49   50 am   BACKBONE|DICT|INTERRES
   101   49  174 1    
   102   50   51 2    
   103   50   52 1    
   104   52   53 1    
   105   52   54 1    
   106   52  175 1    
   107   53  176 1    
   108   53  177 1    
   109   53  178 1    
   110   54   55 am   BACKBONE|DICT|INTERRES
   111   54  179 1    
   112   55   56 2    
   113   55   57 1    
   114   57   58 1    
   115   57   59 1    
   116   57  180 1    
   117   58  181 1    
   118   58  182 1    
   119   58  183 1    
   120   59   60 am   BACKBONE|DICT|INTERRES
   121   59  184 1    
   122   60   61 2    
   123   60   62 1    
   124   62   63 1    
   125   62   64 1    
   126   62  185 1    
   127   63  186 1    
   128   63  187 1    
   129   63  188 1    
   130   64   65 am   BACKBONE|DICT|INTERRES
   131   64  189 1    
   132   65   66 2    
   133   67   68 2    
   134   67   69 am   BACKBONE|DICT|INTERRES
   135   69   70 1    
   136   69  190 1    
   137   70   71 1    
   138   70   72 1    
   139   70  191 1    
   140   71  192 1    
   141   71  193 1    
   142   71  194 1    
   143   72   73 2    
   144   72   74 am   BACKBONE|DICT|INTERRES
   145   74   75 1    
   146   74  195 1    
   147   75   76 1    
   148   75   77 1    
   149   75  196 1    
   150   76  197 1    
   151   76  198 1    
   152   76  199 1    
   153   77   78 2    
   154   77   79 am   BACKBONE|DICT|INTERRES
   155   79   80 1    
   156   79  200 1    
   157   80   81 1    
   158   80   82 1    
   159   80  201 1    
   160   81  202 1    
   161   81  203 1    
   162   81  204 1    
   163   82   83 2    
   164   82   84 am   BACKBONE|DICT|INTERRES
   165   84   85 1    
   166   84  205 1    
   167   85   86 1    
   168   85   87 1    
   169   85  206 1    
   170   86  207 1    
   171   86  208 1    
   172   86  209 1    
   173   87   88 2    
   174   87   89 am   BACKBONE|DICT|INTERRES
   175   89   90 1    
   176   89  210 1    
   177   90   91 1    
   178   90   92 1    
   179   90  211 1    
   180   91  212 1    
   181   91  213 1    
   182   91  214 1    
   183   92   93 2    
   184   92   94 am   BACKBONE|DICT|INTERRES
   185   94   95 1    
   186   94  215 1    
   187   95   96 1    
   188   95   97 1    
   189   95  216 1    
   190   96  217 1    
   191   96  218 1    
   192   96  219 1    
   193   97   98 2    
   194   97   99 am   BACKBONE|DICT|INTERRES
   195   99  100 1    
   196   99  220 1    
   197  100  101 1    
   198  100  102 1    
   199  100  221 1    
   200  101  222 1    
   201  101  223 1    
   202  101  224 1    
   203  102  103 2    
   204  102  104 am   BACKBONE|DICT|INTERRES
   205  104  105 1    
   206  104  225 1    
   207  105  106 1    
   208  105  107 1    
   209  105  226 1    
   210  106  227 1    
   211  106  228 1    
   212  106  229 1    
   213  107  108 2    
   214  107  109 am   BACKBONE|DICT|INTERRES
   215  109  110 1    
   216  109  230 1    
   217  110  111 1    
   218  110  112 1    
   219  110  231 1    
   220  111  232 1    
   221  111  233 1    
   222  111  234 1    
   223  112  113 2    
   224  112  114 am   BACKBONE|DICT|INTERRES
   225  114  115 1    
   226  114  235 1    
   227  115  116 1    
   228  115  117 1    
   229  115  236 1    
   230  116  237 1    
   231  116  238 1    
   232  116  239 1    
   233  117  118 2    
   234  117  119 am   BACKBONE|DICT|INTERRES
   235  119  120 1    
   236  119  240 1    
   237  120  121 1    
   238  120  124 1    
   239  120  241 1    
   240  121  122 am   BACKBONE|DICT|INTERRES
   241  121  123 2    
   242  122  242 1    
   243  122  243 1    
   244  124  125 1    
   245  124  244 1    
   246  124  245 1    
   247  125  126 1    
   248  126  246 1    
   249  126  247 1    
@<TRIPOS>SUBSTRUCTURE
     1 UNK         1 GROUP             0       ****    0 ROOT    
