@<TRIPOS>MOLECULE
3R540
247   249    1
SMALL
USER_CHARGES


@<TRIPOS>ATOM
      1 CA         -1.0949  -13.7951  -49.5034 C.3       0 UNK        -0.1800 
      2 C           0.2916  -13.2399  -49.2125 C.2       0 UNK         0.5000 
      3 O           0.4160  -12.0994  -48.7663 O.2       0 UNK        -0.5000 
      4 N           1.3307  -14.0361  -49.4865 N.am      1 UNK        -0.5000 
      5 CA          2.7396  -13.7010  -49.2543 C.3       1 UNK         0.1400 
      6 C6          3.6941  -14.6778  -49.9854 C.3       23 UNK        -0.0398 
      7 S7          3.2938  -14.8944  -51.7591 S.3       23 UNK        -0.2404 
      8 C8          3.9327  -16.5657  -52.1196 C.3       23 UNK        -0.0205 
      9 C9          3.3092  -17.6343  -51.2324 C.ar      23 UNK        -0.0193 
     10 C10         2.0094  -18.0858  -51.4658 C.ar      23 UNK        -0.1150 
     11 C11         1.4131  -19.0253  -50.6147 C.ar      23 UNK        -0.0193 
     12 C12         2.1539  -19.5289  -49.5345 C.ar      23 UNK        -0.1150 
     13 C13         3.4685  -19.0975  -49.2978 C.ar      23 UNK        -0.0193 
     14 C14         4.0331  -18.1561  -50.1601 C.ar      23 UNK        -0.1150 
     15 C15         4.3130  -19.5638  -48.1091 C.3       23 UNK        -0.0205 
     16 S16         4.0092  -21.2658  -47.5327 S.3       23 UNK        -0.2404 
     17 C17         2.8359  -20.9421  -46.1704 C.3       23 UNK        -0.0398 
     18 CA          2.1970  -22.1783  -45.4810 C.3       11 UNK         0.1400 
     19 N           1.0791  -21.7596  -44.6337 N.am      11 UNK        -0.5000 
     20 C           0.3650  -22.5359  -43.8083 C.2       10 UNK         0.5000 
     21 O           0.6005  -23.7268  -43.6077 O.2       10 UNK        -0.5000 
     22 CA         -0.8364  -21.8674  -43.1166 C.3       10 UNK         0.1400 
     23 CB         -0.3915  -21.0915  -41.8679 C.3       10 UNK        -0.1800 
     24 N          -1.5484  -20.9689  -44.0263 N.am      10 UNK        -0.5000 
     25 C          -2.3567  -21.3823  -45.0134 C.2       9 UNK         0.5000 
     26 O          -2.6581  -22.5588  -45.2024 O.2       9 UNK        -0.5000 
     27 CA         -2.9212  -20.3088  -45.9588 C.3       9 UNK         0.1400 
     28 CB         -4.3037  -19.8529  -45.4702 C.3       9 UNK        -0.1800 
     29 N          -2.0298  -19.1559  -46.1092 N.am      9 UNK        -0.5000 
     30 C          -0.8639  -19.2042  -46.7689 C.2       8 UNK         0.5000 
     31 O          -0.4362  -20.2289  -47.3037 O.2       8 UNK        -0.5000 
     32 CA         -0.0022  -17.9252  -46.7939 C.3       8 UNK         0.1400 
     33 CB         -0.4717  -16.9374  -47.8652 C.3       8 UNK        -0.1800 
     34 N           0.0739  -17.2329  -45.5088 N.am      8 UNK        -0.5000 
     35 C           0.6365  -17.7507  -44.4101 C.2       7 UNK         0.5000 
     36 O           1.0272  -18.9146  -44.3255 O.2       7 UNK        -0.5000 
     37 CA          0.7937  -16.8093  -43.2083 C.3       7 UNK         0.1400 
     38 CB          1.9286  -15.8055  -43.4559 C.3       7 UNK        -0.1800 
     39 N          -0.4492  -16.0967  -42.9272 N.am      7 UNK        -0.5000 
     40 C          -1.4766  -16.6332  -42.2547 C.2       6 UNK         0.5000 
     41 O          -1.4391  -17.7392  -41.7151 O.2       6 UNK        -0.5000 
     42 CA         -2.7812  -15.8149  -42.2060 C.3       6 UNK         0.1400 
     43 CB         -2.7456  -14.7993  -41.0542 C.3       6 UNK        -0.1800 
     44 N          -3.0674  -15.1162  -43.4598 N.am      6 UNK        -0.5000 
     45 C          -3.2632  -15.7175  -44.6428 C.2       5 UNK         0.5000 
     46 O          -3.2584  -16.9366  -44.7936 O.2       5 UNK        -0.5000 
     47 CA         -3.4491  -14.8075  -45.8713 C.3       5 UNK         0.1400 
     48 CB         -4.9405  -14.5695  -46.1483 C.3       5 UNK        -0.1800 
     49 N          -2.7692  -13.5165  -45.7530 N.am      5 UNK        -0.5000 
     50 C          -1.4488  -13.3494  -45.5959 C.2       4 UNK         0.5000 
     51 O          -0.6508  -14.2898  -45.5594 O.2       4 UNK        -0.5000 
     52 CA         -0.9599  -11.8897  -45.4621 C.3       4 UNK         0.1400 
     53 CB         -1.9933  -10.9621  -44.7827 C.3       4 UNK        -0.1800 
     54 N           0.3335  -11.7619  -44.7893 N.am      4 UNK        -0.5000 
     55 C           0.6670  -12.1571  -43.5540 C.2       3 UNK         0.5000 
     56 O          -0.0927  -12.7623  -42.7945 O.2       3 UNK        -0.5000 
     57 CA          2.1005  -11.7953  -43.1041 C.3       3 UNK         0.1400 
     58 CB          2.3964  -12.1914  -41.6461 C.3       3 UNK        -0.1800 
     59 N           3.1240  -12.3713  -43.9820 N.am      3 UNK        -0.5000 
     60 C           3.4590  -11.8992  -45.1906 C.2       2 UNK         0.5000 
     61 O           2.9431  -10.8941  -45.6859 O.2       2 UNK        -0.5000 
     62 CA          4.5424  -12.6487  -45.9947 C.3       2 UNK         0.1400 
     63 CB          5.0685  -13.9400  -45.3251 C.3       2 UNK        -0.1800 
     64 N           4.0928  -12.9002  -47.3692 N.am      2 UNK        -0.5000 
     65 C           3.0641  -13.6754  -47.7435 C.2       1 UNK         0.5000 
     66 O           2.4150  -14.3770  -46.9649 O.2       1 UNK        -0.5000 
     67 C           1.7642  -23.2786  -46.4725 C.2       11 UNK         0.5000 
     68 O           2.3594  -24.3572  -46.4911 O.2       11 UNK        -0.5000 
     69 N           0.7182  -22.9921  -47.2555 N.am      12 UNK        -0.5000 
     70 CA          0.2080  -23.8712  -48.3056 C.3       12 UNK         0.1400 
     71 CB         -0.1345  -23.0102  -49.5317 C.3       12 UNK        -0.1800 
     72 C          -0.9750  -24.7407  -47.8329 C.2       12 UNK         0.5000 
     73 O          -1.7811  -25.1670  -48.6612 O.2       12 UNK        -0.5000 
     74 N          -1.0723  -25.0088  -46.5218 N.am      13 UNK        -0.5000 
     75 CA         -2.1638  -25.7580  -45.8845 C.3       13 UNK         0.1400 
     76 CB         -1.9251  -25.8295  -44.3690 C.3       13 UNK        -0.1800 
     77 C          -2.3733  -27.1738  -46.4519 C.2       13 UNK         0.5000 
     78 O          -3.5163  -27.6016  -46.6150 O.2       13 UNK        -0.5000 
     79 N          -1.2691  -27.8489  -46.8000 N.am      14 UNK        -0.5000 
     80 CA         -1.2530  -29.1746  -47.4263 C.3       14 UNK         0.1400 
     81 CB          0.1933  -29.6922  -47.4485 C.3       14 UNK        -0.1800 
     82 C          -1.8562  -29.2026  -48.8469 C.2       14 UNK         0.5000 
     83 O          -2.2622  -30.2691  -49.3094 O.2       14 UNK        -0.5000 
     84 N          -1.9142  -28.0367  -49.5022 N.am      15 UNK        -0.5000 
     85 CA         -2.5011  -27.8241  -50.8234 C.3       15 UNK         0.1400 
     86 CB         -1.4881  -27.0374  -51.6725 C.3       15 UNK        -0.1800 
     87 C          -3.8492  -27.0797  -50.7337 C.2       15 UNK         0.5000 
     88 O          -4.3365  -26.5998  -51.7579 O.2       15 UNK        -0.5000 
     89 N          -4.4163  -26.9582  -49.5211 N.am      16 UNK        -0.5000 
     90 CA         -5.6440  -26.2232  -49.1896 C.3       16 UNK         0.1400 
     91 CB         -6.8801  -26.9245  -49.7902 C.3       16 UNK        -0.1800 
     92 C          -5.5504  -24.7271  -49.5620 C.2       16 UNK         0.5000 
     93 O          -6.4780  -24.1708  -50.1504 O.2       16 UNK        -0.5000 
     94 N          -4.3943  -24.1310  -49.2390 N.am      17 UNK        -0.5000 
     95 CA         -3.9309  -22.7737  -49.5457 C.3       17 UNK         0.1400 
     96 CB         -4.9644  -21.6879  -49.1815 C.3       17 UNK        -0.1800 
     97 C          -3.3888  -22.6099  -50.9800 C.2       17 UNK         0.5000 
     98 O          -2.8319  -21.5574  -51.2787 O.2       17 UNK        -0.5000 
     99 N          -3.5144  -23.6358  -51.8349 N.am      18 UNK        -0.5000 
    100 CA        -3.0520  -23.7362  -53.2277 C.3       18 UNK         0.1400 
    101 CB        -1.5250  -23.5522  -53.3390 C.3       18 UNK        -0.1800 
    102 C         -3.7856  -22.8211  -54.2297 C.2       18 UNK         0.5000 
    103 O         -4.1106  -23.2773  -55.3270 O.2       18 UNK        -0.5000 
    104 N         -4.0379  -21.5647  -53.8540 N.am      19 UNK        -0.5000 
    105 CA        -4.7258  -20.5554  -54.6489 C.3       19 UNK         0.1400 
    106 CB        -3.6886  -19.7296  -55.4288 C.3       19 UNK        -0.1800 
    107 C         -5.5480  -19.6526  -53.7219 C.2       19 UNK         0.5000 
    108 O         -5.1905  -19.4791  -52.5547 O.2       19 UNK        -0.5000 
    109 N         -6.6117  -19.0515  -54.2716 N.am      20 UNK        -0.5000 
    110 CA        -7.5150  -18.1359  -53.5650 C.3       20 UNK         0.1400 
    111 CB        -8.7046  -17.7979  -54.4761 C.3       20 UNK        -0.1800 
    112 C         -6.8290  -16.8464  -53.0726 C.2       20 UNK         0.5000 
    113 O         -7.2393  -16.2919  -52.0522 O.2       20 UNK        -0.5000 
    114 N         -5.7679  -16.4213  -53.7745 N.am      21 UNK        -0.5000 
    115 CA        -4.9126  -15.2850  -53.4201 C.3       21 UNK         0.1400 
    116 CB        -3.8944  -15.0593  -54.5483 C.3       21 UNK        -0.1800 
    117 C         -4.1876  -15.4499  -52.0684 C.2       21 UNK         0.5000 
    118 O         -3.8692  -14.4471  -51.4295 O.2       21 UNK        -0.5000 
    119 N         -3.9649  -16.7023  -51.6521 N.am      22 UNK        -0.5000 
    120 CA        -3.4224  -17.0709  -50.3378 C.3       22 UNK         0.1400 
    121 C         -4.5006  -17.1395  -49.2169 C.2       22 UNK         0.5000 
    122 N         -5.7805  -16.9010  -49.4821 N.am      22 UNK        -0.7600 
    123 O         -4.1641  -17.3997  -48.0686 O.2       22 UNK        -0.5000 
    124 C124       -2.6067  -18.3852  -50.4154 C.3       23 UNK        -0.0398 
    125 S125       -1.1521  -18.2398  -51.5126 S.3       23 UNK        -0.2404 
    126 C126       -0.0158  -19.5204  -50.8588 C.3       23 UNK        -0.0205 
    127 H127       -1.0435  -14.6708  -50.1504 H         1 UNK         0.0600 
    128 H128       -1.7074  -13.0452  -50.0040 H         1 UNK         0.0600 
    129 H129       -1.5926  -14.0801  -48.5773 H         1 UNK         0.0600 
    130 H130        1.1664  -14.9625  -49.8512 H         1 UNK         0.3000 
    131 H131        2.9075  -12.6985  -49.6540 H         1 UNK         0.0600 
    132 H132        4.7259  -14.3300  -49.9138 H         1 UNK         0.0800 
    133 H133        3.6660  -15.6427  -49.4827 H         1 UNK         0.0800 
    134 H134        3.7312  -16.8025  -53.1653 H         1 UNK         0.0800 
    135 H135        5.0186  -16.5622  -52.0132 H         1 UNK         0.0800 
    136 H136        1.4594  -17.6865  -52.3058 H         1 UNK         0.1150 
    137 H137        1.6991  -20.2564  -48.8790 H         1 UNK         0.1150 
    138 H138        5.0387  -17.8022  -49.9789 H         1 UNK         0.1150 
    139 H139        5.3697  -19.5087  -48.3759 H         1 UNK         0.0800 
    140 H140        4.1766  -18.8618  -47.2853 H         1 UNK         0.0800 
    141 H141        2.0534  -20.3014  -46.5713 H         1 UNK         0.0800 
    142 H142        3.3461  -20.3394  -45.4176 H         1 UNK         0.0800 
    143 H143        2.9518  -22.6192  -44.8266 H         1 UNK         0.0600 
    144 H144        0.8489  -20.7702  -44.6690 H         1 UNK         0.3000 
    145 H145       -1.5220  -22.6545  -42.7961 H         1 UNK         0.0600 
    146 H146       -1.2473  -20.6623  -41.3464 H         1 UNK         0.0600 
    147 H147        0.1229  -21.7473  -41.1644 H         1 UNK         0.0600 
    148 H148        0.2894  -20.2768  -42.1150 H         1 UNK         0.0600 
    149 H149       -1.3442  -19.9826  -43.9494 H         1 UNK         0.3000 
    150 H150       -3.0467  -20.7664  -46.9422 H         1 UNK         0.0600 
    151 H151       -4.9963  -20.6941  -45.4227 H         1 UNK         0.0600 
    152 H152       -4.7389  -19.1136  -46.1414 H         1 UNK         0.0600 
    153 H153       -4.2533  -19.4132  -44.4735 H         1 UNK         0.0600 
    154 H154       -2.3450  -18.2833  -45.6895 H         1 UNK         0.3000 
    155 H155        1.0163  -18.2193  -47.0534 H         1 UNK         0.0600 
    156 H156       -1.5279  -16.6973  -47.7586 H         1 UNK         0.0600 
    157 H157        0.0930  -16.0074  -47.8105 H         1 UNK         0.0600 
    158 H158       -0.3179  -17.3463  -48.8612 H         1 UNK         0.0600 
    159 H159       -0.2038  -16.2556  -45.5000 H         1 UNK         0.3000 
    160 H160        1.0672  -17.4149  -42.3414 H         1 UNK         0.0600 
    161 H161        1.6910  -15.1126  -44.2644 H         1 UNK         0.0600 
    162 H162        2.8535  -16.3181  -43.7231 H         1 UNK         0.0600 
    163 H163        2.1296  -15.2242  -42.5590 H         1 UNK         0.0600 
    164 H164       -0.5635  -15.1871  -43.3580 H         1 UNK         0.3000 
    165 H165       -3.6009  -16.5123  -42.0216 H         1 UNK         0.0600 
    166 H166       -3.6963  -14.2743  -40.9607 H         1 UNK         0.0600 
    167 H167       -2.5541  -15.2962  -40.1022 H         1 UNK         0.0600 
    168 H168       -1.9625  -14.0540  -41.1984 H         1 UNK         0.0600 
    169 H169       -3.0590  -14.1076  -43.4295 H         1 UNK         0.3000 
    170 H170       -3.0236  -15.3251  -46.7307 H         1 UNK         0.0600 
    171 H171       -5.4188  -14.0160  -45.3394 H         1 UNK         0.0600 
    172 H172       -5.0855  -14.0120  -47.0738 H         1 UNK         0.0600 
    173 H173       -5.4702  -15.5170  -46.2577 H         1 UNK         0.0600 
    174 H174       -3.3591  -12.6976  -45.7753 H         1 UNK         0.3000 
    175 H175       -0.8063  -11.5256  -46.4776 H         1 UNK         0.0600 
    176 H176       -1.5895   -9.9582  -44.6500 H         1 UNK         0.0600 
    177 H177       -2.2855  -11.3328  -43.7993 H         1 UNK         0.0600 
    178 H178       -2.8975  -10.8577  -45.3828 H         1 UNK         0.0600 
    179 H179        1.0721  -11.3363  -45.3413 H         1 UNK         0.3000 
    180 H180        2.1766  -10.7070  -43.1561 H         1 UNK         0.0600 
    181 H181        2.3375  -13.2672  -41.4912 H         1 UNK         0.0600 
    182 H182        1.6831  -11.7256  -40.9650 H         1 UNK         0.0600 
    183 H183        3.3911  -11.8637  -41.3435 H         1 UNK         0.0600 
    184 H184        3.5645  -13.2200  -43.6597 H         1 UNK         0.3000 
    185 H185        5.3843  -11.9595  -46.0730 H         1 UNK         0.0600 
    186 H186        5.5337  -13.7228  -44.3629 H         1 UNK         0.0600 
    187 H187        4.2796  -14.6726  -45.1545 H         1 UNK         0.0600 
    188 H188        5.8288  -14.4157  -45.9445 H         1 UNK         0.0600 
    189 H189        4.5550  -12.3442  -48.0750 H         1 UNK         0.3000 
    190 H190        0.2679  -22.0848  -47.1678 H         1 UNK         0.3000 
    191 H191        0.9872  -24.5696  -48.6168 H         1 UNK         0.0600 
    192 H192        0.7560  -22.5163  -49.9204 H         1 UNK         0.0600 
    193 H193       -0.5462  -23.6100  -50.3434 H         1 UNK         0.0600 
    194 H194       -0.8571  -22.2337  -49.2857 H         1 UNK         0.0600 
    195 H195       -0.3773  -24.6159  -45.9025 H         1 UNK         0.3000 
    196 H196       -3.0859  -25.1998  -46.0583 H         1 UNK         0.0600 
    197 H197       -2.7058  -26.4090  -43.8745 H         1 UNK         0.0600 
    198 H198       -1.9337  -24.8366  -43.9220 H         1 UNK         0.0600 
    199 H199       -0.9677  -26.2953  -44.1325 H         1 UNK         0.0600 
    200 H200       -0.3729  -27.4114  -46.6419 H         1 UNK         0.3000 
    201 H201       -1.8492  -29.8469  -46.8059 H         1 UNK         0.0600 
    202 H202        0.6066  -29.7534  -46.4415 H         1 UNK         0.0600 
    203 H203        0.8425  -29.0458  -48.0406 H         1 UNK         0.0600 
    204 H204        0.2445  -30.6928  -47.8800 H         1 UNK         0.0600 
    205 H205       -1.5999  -27.1957  -49.0313 H         1 UNK         0.3000 
    206 H206       -2.6939  -28.7782  -51.3174 H         1 UNK         0.0600 
    207 H207       -0.5432  -27.5745  -51.7550 H         1 UNK         0.0600 
    208 H208       -1.8569  -26.8763  -52.6861 H         1 UNK         0.0600 
    209 H209       -1.2797  -26.0606  -51.2357 H         1 UNK         0.0600 
    210 H210       -3.9385  -27.3738  -48.7303 H         1 UNK         0.3000 
    211 H211       -5.7400  -26.2611  -48.1035 H         1 UNK         0.0600 
    212 H212       -6.8799  -26.8879  -50.8799 H         1 UNK         0.0600 
    213 H213       -7.8013  -26.4517  -49.4480 H         1 UNK         0.0600 
    214 H214       -6.9229  -27.9714  -49.4900 H         1 UNK         0.0600 
    215 H215       -3.6666  -24.7187  -48.8414 H         1 UNK         0.3000 
    216 H216       -3.0789  -22.6183  -48.8848 H         1 UNK         0.0600 
    217 H217       -4.5109  -20.6965  -49.2127 H         1 UNK         0.0600 
    218 H218       -5.3550  -21.8322  -48.1742 H         1 UNK         0.0600 
    219 H219       -5.8051  -21.6743  -49.8753 H         1 UNK         0.0600 
    220 H220       -4.0056  -24.4577  -51.5050 H         1 UNK         0.3000 
    221 H221       -3.2743  -24.7608  -53.5290 H         1 UNK         0.0600 
    222 H222       -1.2131  -22.5394  -53.0828 H         1 UNK         0.0600 
    223 H223       -0.9907  -24.2408  -52.6871 H         1 UNK         0.0600 
    224 H224       -1.1865  -23.7447  -54.3576 H         1 UNK         0.0600 
    225 H225       -3.7523  -21.2696  -52.9219 H         1 UNK         0.3000 
    226 H226       -5.4099  -21.0387  -55.3496 H         1 UNK         0.0600 
    227 H227       -3.1079  -20.3608  -56.1017 H         1 UNK         0.0600 
    228 H228       -4.1705  -18.9640  -56.0379 H         1 UNK         0.0600 
    229 H229       -2.9908  -19.2268  -54.7573 H         1 UNK         0.0600 
    230 H230       -6.8323  -19.2368  -55.2397 H         1 UNK         0.3000 
    231 H231       -7.8956  -18.6580  -52.6846 H         1 UNK         0.0600 
    232 H232       -8.3827  -17.2965  -55.3896 H         1 UNK         0.0600 
    233 H233       -9.4091  -17.1367  -53.9695 H         1 UNK         0.0600 
    234 H234       -9.2524  -18.6966  -54.7602 H         1 UNK         0.0600 
    235 H235       -5.5051  -16.9436  -54.5968 H         1 UNK         0.3000 
    236 H236       -5.5477  -14.4000  -53.3457 H         1 UNK         0.0600 
    237 H237       -3.2547  -14.2027  -54.3316 H         1 UNK         0.0600 
    238 H238       -3.2466  -15.9265  -54.6838 H         1 UNK         0.0600 
    239 H239       -4.3928  -14.8591  -55.4970 H         1 UNK         0.0600 
    240 H240       -4.2888  -17.4756  -52.2191 H         1 UNK         0.3000 
    241 H241       -2.7357  -16.2865  -50.0195 H         1 UNK         0.0600 
    242 H242       -6.0977  -16.6692  -50.4159 H         1 UNK         0.3800 
    243 H243       -6.4483  -16.9507  -48.7306 H         1 UNK         0.3800 
    244 H244       -2.2734  -18.6925  -49.4239 H         1 UNK         0.0800 
    245 H245       -3.2455  -19.1853  -50.7820 H         1 UNK         0.0800 
    246 H246       -0.4255  -19.9327  -49.9377 H         1 UNK         0.0800 
    247 H247        0.0161  -20.3479  -51.5683 H         1 UNK         0.0800 
@<TRIPOS>BOND
     1    1    2 1    
     2    1  127 1    
     3    1  128 1    
     4    1  129 1    
     5    2    3 2    
     6    2    4 am   BACKBONE|DICT|INTERRES
     7    4    5 1    
     8    4  130 1    
     9    5    6 1    
    10    5   65 1    
    11    5  131 1    
    12    6    7 1    
    13    6  132 1    
    14    6  133 1    
    15    7    8 1    
    16    8    9 1    
    17    8  134 1    
    18    8  135 1    
    19    9   10 ar   
    20    9   14 ar   
    21   10   11 ar   
    22   10  136 1    
    23   11   12 ar   
    24   11  126 1    
    25   12   13 ar   
    26   12  137 1    
    27   13   14 ar   
    28   13   15 1    
    29   14  138 1    
    30   15   16 1    
    31   15  139 1    
    32   15  140 1    
    33   16   17 1    
    34   17   18 1    
    35   17  141 1    
    36   17  142 1    
    37   18   19 1    
    38   18   67 1    
    39   18  143 1    
    40   19   20 am   BACKBONE|DICT|INTERRES
    41   19  144 1    
    42   20   21 2    
    43   20   22 1    
    44   22   23 1    
    45   22   24 1    
    46   22  145 1    
    47   23  146 1    
    48   23  147 1    
    49   23  148 1    
    50   24   25 am   BACKBONE|DICT|INTERRES
    51   24  149 1    
    52   25   26 2    
    53   25   27 1    
    54   27   28 1    
    55   27   29 1    
    56   27  150 1    
    57   28  151 1    
    58   28  152 1    
    59   28  153 1    
    60   29   30 am   BACKBONE|DICT|INTERRES
    61   29  154 1    
    62   30   31 2    
    63   30   32 1    
    64   32   33 1    
    65   32   34 1    
    66   32  155 1    
    67   33  156 1    
    68   33  157 1    
    69   33  158 1    
    70   34   35 am   BACKBONE|DICT|INTERRES
    71   34  159 1    
    72   35   36 2    
    73   35   37 1    
    74   37   38 1    
    75   37   39 1    
    76   37  160 1    
    77   38  161 1    
    78   38  162 1    
    79   38  163 1    
    80   39   40 am   BACKBONE|DICT|INTERRES
    81   39  164 1    
    82   40   41 2    
    83   40   42 1    
    84   42   43 1    
    85   42   44 1    
    86   42  165 1    
    87   43  166 1    
    88   43  167 1    
    89   43  168 1    
    90   44   45 am   BACKBONE|DICT|INTERRES
    91   44  169 1    
    92   45   46 2    
    93   45   47 1    
    94   47   48 1    
    95   47   49 1    
    96   47  170 1    
    97   48  171 1    
    98   48  172 1    
    99   48  173 1    
   100   49   50 am   BACKBONE|DICT|INTERRES
   101   49  174 1    
   102   50   51 2    
   103   50   52 1    
   104   52   53 1    
   105   52   54 1    
   106   52  175 1    
   107   53  176 1    
   108   53  177 1    
   109   53  178 1    
   110   54   55 am   BACKBONE|DICT|INTERRES
   111   54  179 1    
   112   55   56 2    
   113   55   57 1    
   114   57   58 1    
   115   57   59 1    
   116   57  180 1    
   117   58  181 1    
   118   58  182 1    
   119   58  183 1    
   120   59   60 am   BACKBONE|DICT|INTERRES
   121   59  184 1    
   122   60   61 2    
   123   60   62 1    
   124   62   63 1    
   125   62   64 1    
   126   62  185 1    
   127   63  186 1    
   128   63  187 1    
   129   63  188 1    
   130   64   65 am   BACKBONE|DICT|INTERRES
   131   64  189 1    
   132   65   66 2    
   133   67   68 2    
   134   67   69 am   BACKBONE|DICT|INTERRES
   135   69   70 1    
   136   69  190 1    
   137   70   71 1    
   138   70   72 1    
   139   70  191 1    
   140   71  192 1    
   141   71  193 1    
   142   71  194 1    
   143   72   73 2    
   144   72   74 am   BACKBONE|DICT|INTERRES
   145   74   75 1    
   146   74  195 1    
   147   75   76 1    
   148   75   77 1    
   149   75  196 1    
   150   76  197 1    
   151   76  198 1    
   152   76  199 1    
   153   77   78 2    
   154   77   79 am   BACKBONE|DICT|INTERRES
   155   79   80 1    
   156   79  200 1    
   157   80   81 1    
   158   80   82 1    
   159   80  201 1    
   160   81  202 1    
   161   81  203 1    
   162   81  204 1    
   163   82   83 2    
   164   82   84 am   BACKBONE|DICT|INTERRES
   165   84   85 1    
   166   84  205 1    
   167   85   86 1    
   168   85   87 1    
   169   85  206 1    
   170   86  207 1    
   171   86  208 1    
   172   86  209 1    
   173   87   88 2    
   174   87   89 am   BACKBONE|DICT|INTERRES
   175   89   90 1    
   176   89  210 1    
   177   90   91 1    
   178   90   92 1    
   179   90  211 1    
   180   91  212 1    
   181   91  213 1    
   182   91  214 1    
   183   92   93 2    
   184   92   94 am   BACKBONE|DICT|INTERRES
   185   94   95 1    
   186   94  215 1    
   187   95   96 1    
   188   95   97 1    
   189   95  216 1    
   190   96  217 1    
   191   96  218 1    
   192   96  219 1    
   193   97   98 2    
   194   97   99 am   BACKBONE|DICT|INTERRES
   195   99  100 1    
   196   99  220 1    
   197  100  101 1    
   198  100  102 1    
   199  100  221 1    
   200  101  222 1    
   201  101  223 1    
   202  101  224 1    
   203  102  103 2    
   204  102  104 am   BACKBONE|DICT|INTERRES
   205  104  105 1    
   206  104  225 1    
   207  105  106 1    
   208  105  107 1    
   209  105  226 1    
   210  106  227 1    
   211  106  228 1    
   212  106  229 1    
   213  107  108 2    
   214  107  109 am   BACKBONE|DICT|INTERRES
   215  109  110 1    
   216  109  230 1    
   217  110  111 1    
   218  110  112 1    
   219  110  231 1    
   220  111  232 1    
   221  111  233 1    
   222  111  234 1    
   223  112  113 2    
   224  112  114 am   BACKBONE|DICT|INTERRES
   225  114  115 1    
   226  114  235 1    
   227  115  116 1    
   228  115  117 1    
   229  115  236 1    
   230  116  237 1    
   231  116  238 1    
   232  116  239 1    
   233  117  118 2    
   234  117  119 am   BACKBONE|DICT|INTERRES
   235  119  120 1    
   236  119  240 1    
   237  120  121 1    
   238  120  124 1    
   239  120  241 1    
   240  121  122 am   BACKBONE|DICT|INTERRES
   241  121  123 2    
   242  122  242 1    
   243  122  243 1    
   244  124  125 1    
   245  124  244 1    
   246  124  245 1    
   247  125  126 1    
   248  126  246 1    
   249  126  247 1    
@<TRIPOS>SUBSTRUCTURE
     1 UNK         1 GROUP             0       ****    0 ROOT    
