@<TRIPOS>MOLECULE
3R540
247   249    1
SMALL
USER_CHARGES


@<TRIPOS>ATOM
      1 CA         -6.6586  -13.3328  -44.0000 C.3       0 UNK        -0.1800 
      2 C          -5.3799  -12.5295  -43.8066 C.2       0 UNK         0.5000 
      3 O          -5.3124  -11.6888  -42.9092 O.2       0 UNK        -0.5000 
      4 N          -4.3721  -12.7795  -44.6495 N.am      1 UNK        -0.5000 
      5 CA         -3.0372  -12.1815  -44.5685 C.3       1 UNK         0.1400 
      6 C6         -2.2874  -12.2559  -45.9244 C.3       23 UNK        -0.0398 
      7 S7         -2.1929  -13.9248  -46.6689 S.3       23 UNK        -0.2404 
      8 C8         -3.4494  -13.7840  -47.9784 C.3       23 UNK        -0.0205 
      9 C9         -3.4998  -15.0402  -48.8313 C.ar      23 UNK        -0.0193 
     10 C10        -2.7629  -15.1107  -50.0167 C.ar      23 UNK        -0.1150 
     11 C11        -2.7775  -16.2703  -50.7963 C.ar      23 UNK        -0.0193 
     12 C12        -3.5773  -17.3467  -50.4053 C.ar      23 UNK        -0.1150 
     13 C13        -4.3215  -17.2890  -49.2218 C.ar      23 UNK        -0.0193 
     14 C14        -4.2752  -16.1341  -48.4354 C.ar      23 UNK        -0.1150 
     15 C15        -5.1807  -18.4738  -48.8076 C.3       23 UNK        -0.0205 
     16 S16        -4.1627  -19.9214  -48.3882 S.3       23 UNK        -0.2404 
     17 C17        -4.2675  -19.9950  -46.5699 C.3       23 UNK        -0.0398 
     18 CA         -3.6838  -21.3368  -46.0657 C.3       11 UNK         0.1400 
     19 N          -2.2196  -21.3814  -46.1310 N.am      11 UNK        -0.5000 
     20 C          -1.5070  -22.5126  -46.0456 C.2       10 UNK         0.5000 
     21 O          -2.0203  -23.6279  -45.9573 O.2       10 UNK        -0.5000 
     22 CA          0.0264  -22.3840  -46.0167 C.3       10 UNK         0.1400 
     23 CB          0.5793  -22.0951  -47.4179 C.3       10 UNK        -0.1800 
     24 N           0.4848  -21.3569  -45.0834 N.am      10 UNK        -0.5000 
     25 C           0.2744  -21.3847  -43.7602 C.2       9 UNK         0.5000 
     26 O          -0.2787  -22.3134  -43.1765 O.2       9 UNK        -0.5000 
     27 CA          0.6957  -20.1442  -42.9573 C.3       9 UNK         0.1400 
     28 CB          2.1393  -20.2666  -42.4463 C.3       9 UNK        -0.1800 
     29 N           0.5234  -18.9090  -43.7219 N.am      9 UNK        -0.5000 
     30 C          -0.6725  -18.3955  -44.0416 C.2       8 UNK         0.5000 
     31 O          -1.7470  -18.9276  -43.7572 O.2       8 UNK        -0.5000 
     32 CA         -0.6569  -17.0712  -44.8179 C.3       8 UNK         0.1400 
     33 CB         -0.0258  -15.9514  -43.9761 C.3       8 UNK        -0.1800 
     34 N           0.0487  -17.1493  -46.0931 N.am      8 UNK        -0.5000 
     35 C          -0.2724  -17.9299  -47.1316 C.2       7 UNK         0.5000 
     36 O          -1.1119  -18.8278  -47.0869 O.2       7 UNK        -0.5000 
     37 CA          0.4956  -17.6584  -48.4345 C.3       7 UNK         0.1400 
     38 CB          0.4346  -16.1739  -48.8344 C.3       7 UNK        -0.1800 
     39 N           1.8894  -18.0348  -48.2612 N.am      7 UNK        -0.5000 
     40 C           2.4776  -19.1158  -48.7854 C.2       6 UNK         0.5000 
     41 O           1.9303  -19.8784  -49.5816 O.2       6 UNK        -0.5000 
     42 CA          3.9299  -19.4024  -48.3447 C.3       6 UNK         0.1400 
     43 CB          4.9129  -19.0404  -49.4688 C.3       6 UNK        -0.1800 
     44 N           4.3364  -18.7014  -47.1218 N.am      6 UNK        -0.5000 
     45 C           3.7946  -18.8889  -45.9105 C.2       5 UNK         0.5000 
     46 O           2.8952  -19.6970  -45.6842 O.2       5 UNK        -0.5000 
     47 CA          4.2857  -17.9636  -44.7794 C.3       5 UNK         0.1400 
     48 CB          5.4924  -18.5850  -44.0617 C.3       5 UNK        -0.1800 
     49 N           4.6263  -16.6046  -45.2199 N.am      5 UNK        -0.5000 
     50 C           3.7804  -15.7583  -45.8227 C.2       4 UNK         0.5000 
     51 O           2.6223  -16.0529  -46.1195 O.2       4 UNK        -0.5000 
     52 CA          4.3262  -14.3636  -46.1736 C.3       4 UNK         0.1400 
     53 CB          5.2545  -14.4576  -47.3948 C.3       4 UNK        -0.1800 
     54 N           3.2482  -13.4204  -46.4910 N.am      4 UNK        -0.5000 
     55 C           2.3982  -12.8102  -45.6518 C.2       3 UNK         0.5000 
     56 O           1.4763  -12.1108  -46.0774 O.2       3 UNK        -0.5000 
     57 CA          2.5844  -12.9317  -44.1258 C.3       3 UNK         0.1400 
     58 CB          3.6661  -11.9564  -43.6190 C.3       3 UNK        -0.1800 
     59 N           1.3135  -12.6079  -43.4855 N.am      3 UNK        -0.5000 
     60 C           0.9479  -12.9340  -42.2409 C.2       2 UNK         0.5000 
     61 O           1.6490  -13.6020  -41.4803 O.2       2 UNK        -0.5000 
     62 CA         -0.4192  -12.4199  -41.7486 C.3       2 UNK         0.1400 
     63 CB         -0.2239  -11.2240  -40.8027 C.3       2 UNK        -0.1800 
     64 N          -1.3019  -12.0085  -42.8448 N.am      2 UNK        -0.5000 
     65 C          -2.2202  -12.8003  -43.4129 C.2       1 UNK         0.5000 
     66 O          -2.4312  -13.9637  -43.0620 O.2       1 UNK        -0.5000 
     67 C          -4.2157  -21.7271  -44.6716 C.2       11 UNK         0.5000 
     68 O          -5.2131  -22.4460  -44.6005 O.2       11 UNK        -0.5000 
     69 N          -3.5237  -21.3212  -43.5961 N.am      12 UNK        -0.5000 
     70 CA         -3.8410  -21.7198  -42.2194 C.3       12 UNK         0.1400 
     71 CB         -2.9944  -20.9015  -41.2338 C.3       12 UNK        -0.1800 
     72 C          -3.6621  -23.2324  -41.9682 C.2       12 UNK         0.5000 
     73 O          -4.4756  -23.8331  -41.2659 O.2       12 UNK        -0.5000 
     74 N          -2.6244  -23.8251  -42.5740 N.am      13 UNK        -0.5000 
     75 CA         -2.3174  -25.2579  -42.5373 C.3       13 UNK         0.1400 
     76 CB         -0.8301  -25.4512  -42.8765 C.3       13 UNK        -0.1800 
     77 C          -3.1942  -26.1092  -43.4798 C.2       13 UNK         0.5000 
     78 O          -3.0702  -27.3345  -43.4632 O.2       13 UNK        -0.5000 
     79 N          -4.0426  -25.4582  -44.2892 N.am      14 UNK        -0.5000 
     80 CA         -4.9350  -26.0346  -45.2999 C.3       14 UNK         0.1400 
     81 CB         -5.9640  -26.9951  -44.6671 C.3       14 UNK        -0.1800 
     82 C          -4.1927  -26.6480  -46.5079 C.2       14 UNK         0.5000 
     83 O          -4.7458  -27.5070  -47.1963 O.2       14 UNK        -0.5000 
     84 N          -2.9769  -26.1546  -46.7852 N.am      15 UNK        -0.5000 
     85 CA         -2.2374  -26.4019  -48.0276 C.3       15 UNK         0.1400 
     86 CB         -0.7337  -26.2246  -47.7646 C.3       15 UNK        -0.1800 
     87 C          -2.7085  -25.4715  -49.1663 C.2       15 UNK         0.5000 
     88 O          -2.3675  -25.7059  -50.3268 O.2       15 UNK        -0.5000 
     89 N          -3.4835  -24.4346  -48.8084 N.am      16 UNK        -0.5000 
     90 CA         -4.2051  -23.5041  -49.6815 C.3       16 UNK         0.1400 
     91 CB         -5.3079  -24.2497  -50.4624 C.3       16 UNK        -0.1800 
     92 C          -3.2938  -22.6715  -50.6032 C.2       16 UNK         0.5000 
     93 O          -3.7269  -22.2872  -51.6883 O.2       16 UNK        -0.5000 
     94 N          -2.0483  -22.4225  -50.1687 N.am      17 UNK        -0.5000 
     95 CA         -1.0051  -21.6739  -50.8833 C.3       17 UNK         0.1400 
     96 CB         -1.3574  -20.1752  -50.9276 C.3       17 UNK        -0.1800 
     97 C          -0.7181  -22.2546  -52.2836 C.2       17 UNK         0.5000 
     98 O          -0.6626  -21.5090  -53.2636 O.2       17 UNK        -0.5000 
     99 N          -0.6009  -23.5911  -52.3443 N.am      18 UNK        -0.5000 
    100 CA        -0.4190  -24.4053  -53.5512 C.3       18 UNK         0.1400 
    101 CB         0.9776  -24.1701  -54.1636 C.3       18 UNK        -0.1800 
    102 C         -1.5736  -24.2222  -54.5599 C.2       18 UNK         0.5000 
    103 O         -1.3344  -24.0181  -55.7513 O.2       18 UNK        -0.5000 
    104 N         -2.8072  -24.2879  -54.0360 N.am      19 UNK        -0.5000 
    105 CA        -4.0821  -24.0643  -54.7259 C.3       19 UNK         0.1400 
    106 CB        -4.3327  -25.1453  -55.7988 C.3       19 UNK        -0.1800 
    107 C         -4.2081  -22.6225  -55.2616 C.2       19 UNK         0.5000 
    108 O         -4.5117  -22.4174  -56.4385 O.2       19 UNK        -0.5000 
    109 N         -3.9732  -21.6580  -54.3610 N.am      20 UNK        -0.5000 
    110 CA        -4.0345  -20.2081  -54.5459 C.3       20 UNK         0.1400 
    111 CB        -5.4945  -19.7501  -54.7380 C.3       20 UNK        -0.1800 
    112 C         -3.0919  -19.7118  -55.6577 C.2       20 UNK         0.5000 
    113 O         -3.5357  -19.0581  -56.6050 O.2       20 UNK        -0.5000 
    114 N         -1.7941  -20.0198  -55.5162 N.am      21 UNK        -0.5000 
    115 CA        -0.7359  -19.6628  -56.4694 C.3       21 UNK         0.1400 
    116 CB         0.5842  -20.3077  -56.0235 C.3       21 UNK        -0.1800 
    117 C         -0.5520  -18.1462  -56.6928 C.2       21 UNK         0.5000 
    118 O         -0.0004  -17.7523  -57.7214 O.2       21 UNK        -0.5000 
    119 N         -1.0358  -17.3259  -55.7507 N.am      22 UNK        -0.5000 
    120 CA        -1.1592  -15.8678  -55.8896 C.3       22 UNK         0.1400 
    121 C         -2.2779  -15.3899  -56.8664 C.2       22 UNK         0.5000 
    122 N         -3.1783  -16.2472  -57.3351 N.am      22 UNK        -0.7600 
    123 O         -2.3185  -14.2144  -57.2200 O.2       22 UNK        -0.5000 
    124 C124       -1.2517  -15.1654  -54.5107 C.3       23 UNK        -0.0398 
    125 S125       -2.6972  -15.6541  -53.4959 S.3       23 UNK        -0.2404 
    126 C126       -1.8915  -16.3661  -52.0290 C.3       23 UNK        -0.0205 
    127 H127       -6.8788  -13.9090  -43.1014 H         1 UNK         0.0600 
    128 H128       -6.5790  -14.0264  -44.8376 H         1 UNK         0.0600 
    129 H129       -7.4973  -12.6635  -44.1917 H         1 UNK         0.0600 
    130 H130       -4.4636  -13.5217  -45.3271 H         1 UNK         0.3000 
    131 H131       -3.1683  -11.1225  -44.3348 H         1 UNK         0.0600 
    132 H132       -2.7696  -11.5809  -46.6322 H         1 UNK         0.0800 
    133 H133       -1.2708  -11.8734  -45.8218 H         1 UNK         0.0800 
    134 H134       -3.2252  -12.9197  -48.6057 H         1 UNK         0.0800 
    135 H135       -4.4281  -13.5971  -47.5350 H         1 UNK         0.0800 
    136 H136       -2.1490  -14.2730  -50.3168 H         1 UNK         0.1150 
    137 H137       -3.6093  -18.2411  -51.0097 H         1 UNK         0.1150 
    138 H138       -4.8416  -16.0842  -47.5162 H         1 UNK         0.1150 
    139 H139       -5.8343  -18.2140  -47.9739 H         1 UNK         0.0800 
    140 H140       -5.8366  -18.7387  -49.6380 H         1 UNK         0.0800 
    141 H141       -5.3182  -19.8966  -46.2911 H         1 UNK         0.0800 
    142 H142       -3.7421  -19.1438  -46.1330 H         1 UNK         0.0800 
    143 H143       -4.0524  -22.1189  -46.7327 H         1 UNK         0.0600 
    144 H144       -1.7442  -20.4915  -46.2598 H         1 UNK         0.3000 
    145 H145        0.4336  -23.3401  -45.6815 H         1 UNK         0.0600 
    146 H146        1.6667  -22.0190  -47.4049 H         1 UNK         0.0600 
    147 H147        0.3189  -22.8936  -48.1126 H         1 UNK         0.0600 
    148 H148        0.1849  -21.1620  -47.8218 H         1 UNK         0.0600 
    149 H149        1.0058  -20.5775  -45.4688 H         1 UNK         0.3000 
    150 H150        0.0467  -20.0806  -42.0822 H         1 UNK         0.0600 
    151 H151        2.2297  -21.1059  -41.7557 H         1 UNK         0.0600 
    152 H152        2.4489  -19.3702  -41.9088 H         1 UNK         0.0600 
    153 H153        2.8494  -20.4405  -43.2527 H         1 UNK         0.0600 
    154 H154        1.3572  -18.4514  -44.0559 H         1 UNK         0.3000 
    155 H155       -1.6927  -16.7970  -45.0288 H         1 UNK         0.0600 
    156 H156        1.0367  -16.1188  -43.7975 H         1 UNK         0.0600 
    157 H157       -0.5120  -15.8702  -43.0034 H         1 UNK         0.0600 
    158 H158       -0.1291  -14.9874  -44.4740 H         1 UNK         0.0600 
    159 H159        0.8339  -16.5131  -46.2011 H         1 UNK         0.3000 
    160 H160        0.0248  -18.2414  -49.2265 H         1 UNK         0.0600 
    161 H161        0.7472  -16.0346  -49.8690 H         1 UNK         0.0600 
    162 H162        1.0704  -15.5472  -48.2093 H         1 UNK         0.0600 
    163 H163       -0.5777  -15.7890  -48.7391 H         1 UNK         0.0600 
    164 H164        2.4070  -17.4867  -47.5846 H         1 UNK         0.3000 
    165 H165        4.0029  -20.4753  -48.1551 H         1 UNK         0.0600 
    166 H166        5.9341  -19.3161  -49.2051 H         1 UNK         0.0600 
    167 H167        4.6641  -19.5670  -50.3912 H         1 UNK         0.0600 
    168 H168        4.8974  -17.9717  -49.6866 H         1 UNK         0.0600 
    169 H169        5.0604  -18.0052  -47.2192 H         1 UNK         0.3000 
    170 H170        3.4727  -17.8755  -44.0564 H         1 UNK         0.0600 
    171 H171        5.2623  -19.5905  -43.7068 H         1 UNK         0.0600 
    172 H172        6.3583  -18.6599  -44.7206 H         1 UNK         0.0600 
    173 H173        5.7813  -17.9945  -43.1920 H         1 UNK         0.0600 
    174 H174        5.5674  -16.2963  -45.0202 H         1 UNK         0.3000 
    175 H175        4.9056  -13.9953  -45.3272 H         1 UNK         0.0600 
    176 H176        4.7325  -14.8493  -48.2693 H         1 UNK         0.0600 
    177 H177        5.6589  -13.4798  -47.6576 H         1 UNK         0.0600 
    178 H178        6.1041  -15.1131  -47.1992 H         1 UNK         0.0600 
    179 H179        3.0702  -13.3090  -47.4772 H         1 UNK         0.3000 
    180 H180        2.8518  -13.9565  -43.8675 H         1 UNK         0.0600 
    181 H181        3.3798  -10.9191  -43.7969 H         1 UNK         0.0600 
    182 H182        4.6234  -12.1149  -44.1140 H         1 UNK         0.0600 
    183 H183        3.8358  -12.0746  -42.5487 H         1 UNK         0.0600 
    184 H184        0.6736  -12.1025  -44.0841 H         1 UNK         0.3000 
    185 H185       -0.8850  -13.2259  -41.1774 H         1 UNK         0.0600 
    186 H186        0.4054  -11.4949  -39.9539 H         1 UNK         0.0600 
    187 H187        0.2518  -10.3827  -41.3083 H         1 UNK         0.0600 
    188 H188       -1.1772  -10.8797  -40.4012 H         1 UNK         0.0600 
    189 H189       -1.2003  -11.0564  -43.1669 H         1 UNK         0.3000 
    190 H190       -2.7366  -20.6923  -43.7230 H         1 UNK         0.3000 
    191 H191       -4.8906  -21.4779  -42.0400 H         1 UNK         0.0600 
    192 H192       -3.2769  -21.1212  -40.2035 H         1 UNK         0.0600 
    193 H193       -3.1303  -19.8308  -41.3878 H         1 UNK         0.0600 
    194 H194       -1.9330  -21.1243  -41.3347 H         1 UNK         0.0600 
    195 H195       -1.9531  -23.2412  -43.0658 H         1 UNK         0.3000 
    196 H196       -2.4849  -25.6230  -41.5222 H         1 UNK         0.0600 
    197 H197       -0.5450  -26.5025  -42.8240 H         1 UNK         0.0600 
    198 H198       -0.1930  -24.9096  -42.1772 H         1 UNK         0.0600 
    199 H199       -0.6003  -25.0978  -43.8826 H         1 UNK         0.0600 
    200 H200       -4.0565  -24.4485  -44.2268 H         1 UNK         0.3000 
    201 H201       -5.4952  -25.1899  -45.7032 H         1 UNK         0.0600 
    202 H202       -6.4660  -26.5312  -43.8180 H         1 UNK         0.0600 
    203 H203       -5.5009  -27.9193  -44.3211 H         1 UNK         0.0600 
    204 H204       -6.7356  -27.2697  -45.3872 H         1 UNK         0.0600 
    205 H205       -2.6063  -25.4167  -46.1914 H         1 UNK         0.3000 
    206 H206       -2.4073  -27.4312  -48.3496 H         1 UNK         0.0600 
    207 H207       -0.3930  -26.8877  -46.9692 H         1 UNK         0.0600 
    208 H208       -0.1517  -26.4611  -48.6562 H         1 UNK         0.0600 
    209 H209       -0.4880  -25.2035  -47.4759 H         1 UNK         0.0600 
    210 H210       -3.6410  -24.3140  -47.8184 H         1 UNK         0.3000 
    211 H211       -4.7015  -22.7906  -49.0242 H         1 UNK         0.0600 
    212 H212       -4.8892  -24.9401  -51.1953 H         1 UNK         0.0600 
    213 H213       -5.9498  -23.5512  -51.0007 H         1 UNK         0.0600 
    214 H214       -5.9478  -24.8220  -49.7907 H         1 UNK         0.0600 
    215 H215       -1.7910  -22.7933  -49.2670 H         1 UNK         0.3000 
    216 H216       -0.0838  -21.7809  -50.3103 H         1 UNK         0.0600 
    217 H217       -0.5270  -19.5909  -51.3253 H         1 UNK         0.0600 
    218 H218       -1.5770  -19.7947  -49.9307 H         1 UNK         0.0600 
    219 H219       -2.2254  -19.9875  -51.5583 H         1 UNK         0.0600 
    220 H220       -0.7295  -24.1131  -51.4878 H         1 UNK         0.3000 
    221 H221       -0.4624  -25.4468  -53.2290 H         1 UNK         0.0600 
    222 H222        1.1005  -23.1470  -54.5172 H         1 UNK         0.0600 
    223 H223        1.7636  -24.3671  -53.4348 H         1 UNK         0.0600 
    224 H224        1.1496  -24.8330  -55.0123 H         1 UNK         0.0600 
    225 H225       -2.8771  -24.4201  -53.0366 H         1 UNK         0.3000 
    226 H226       -4.8595  -24.1741  -53.9680 H         1 UNK         0.0600 
    227 H227       -5.3329  -25.0470  -56.2221 H         1 UNK         0.0600 
    228 H228       -3.6230  -25.0761  -56.6234 H         1 UNK         0.0600 
    229 H229       -4.2575  -26.1464  -55.3744 H         1 UNK         0.0600 
    230 H230       -3.7538  -21.9501  -53.4082 H         1 UNK         0.3000 
    231 H231       -3.6738  -19.7656  -53.6162 H         1 UNK         0.0600 
    232 H232       -6.1203  -20.0744  -53.9066 H         1 UNK         0.0600 
    233 H233       -5.9267  -20.1455  -55.6578 H         1 UNK         0.0600 
    234 H234       -5.5581  -18.6623  -54.7867 H         1 UNK         0.0600 
    235 H235       -1.5001  -20.5720  -54.7129 H         1 UNK         0.3000 
    236 H236       -1.0120  -20.0937  -57.4338 H         1 UNK         0.0600 
    237 H237        0.4915  -21.3927  -55.9829 H         1 UNK         0.0600 
    238 H238        1.3914  -20.0775  -56.7199 H         1 UNK         0.0600 
    239 H239        0.8890  -19.9578  -55.0364 H         1 UNK         0.0600 
    240 H240       -1.4847  -17.7338  -54.9451 H         1 UNK         0.3000 
    241 H241       -0.2291  -15.5204  -56.3438 H         1 UNK         0.0600 
    242 H242       -3.8870  -15.9165  -57.9700 H         1 UNK         0.3800 
    243 H243       -3.1816  -17.2232  -57.0520 H         1 UNK         0.3800 
    244 H244       -0.3318  -15.3583  -53.9581 H         1 UNK         0.0800 
    245 H245       -1.2818  -14.0821  -54.6397 H         1 UNK         0.0800 
    246 H246       -0.9553  -15.8447  -51.8248 H         1 UNK         0.0800 
    247 H247       -1.6255  -17.4045  -52.2310 H         1 UNK         0.0800 
@<TRIPOS>BOND
     1    1    2 1    
     2    1  127 1    
     3    1  128 1    
     4    1  129 1    
     5    2    3 2    
     6    2    4 am   BACKBONE|DICT|INTERRES
     7    4    5 1    
     8    4  130 1    
     9    5    6 1    
    10    5   65 1    
    11    5  131 1    
    12    6    7 1    
    13    6  132 1    
    14    6  133 1    
    15    7    8 1    
    16    8    9 1    
    17    8  134 1    
    18    8  135 1    
    19    9   10 ar   
    20    9   14 ar   
    21   10   11 ar   
    22   10  136 1    
    23   11   12 ar   
    24   11  126 1    
    25   12   13 ar   
    26   12  137 1    
    27   13   14 ar   
    28   13   15 1    
    29   14  138 1    
    30   15   16 1    
    31   15  139 1    
    32   15  140 1    
    33   16   17 1    
    34   17   18 1    
    35   17  141 1    
    36   17  142 1    
    37   18   19 1    
    38   18   67 1    
    39   18  143 1    
    40   19   20 am   BACKBONE|DICT|INTERRES
    41   19  144 1    
    42   20   21 2    
    43   20   22 1    
    44   22   23 1    
    45   22   24 1    
    46   22  145 1    
    47   23  146 1    
    48   23  147 1    
    49   23  148 1    
    50   24   25 am   BACKBONE|DICT|INTERRES
    51   24  149 1    
    52   25   26 2    
    53   25   27 1    
    54   27   28 1    
    55   27   29 1    
    56   27  150 1    
    57   28  151 1    
    58   28  152 1    
    59   28  153 1    
    60   29   30 am   BACKBONE|DICT|INTERRES
    61   29  154 1    
    62   30   31 2    
    63   30   32 1    
    64   32   33 1    
    65   32   34 1    
    66   32  155 1    
    67   33  156 1    
    68   33  157 1    
    69   33  158 1    
    70   34   35 am   BACKBONE|DICT|INTERRES
    71   34  159 1    
    72   35   36 2    
    73   35   37 1    
    74   37   38 1    
    75   37   39 1    
    76   37  160 1    
    77   38  161 1    
    78   38  162 1    
    79   38  163 1    
    80   39   40 am   BACKBONE|DICT|INTERRES
    81   39  164 1    
    82   40   41 2    
    83   40   42 1    
    84   42   43 1    
    85   42   44 1    
    86   42  165 1    
    87   43  166 1    
    88   43  167 1    
    89   43  168 1    
    90   44   45 am   BACKBONE|DICT|INTERRES
    91   44  169 1    
    92   45   46 2    
    93   45   47 1    
    94   47   48 1    
    95   47   49 1    
    96   47  170 1    
    97   48  171 1    
    98   48  172 1    
    99   48  173 1    
   100   49   50 am   BACKBONE|DICT|INTERRES
   101   49  174 1    
   102   50   51 2    
   103   50   52 1    
   104   52   53 1    
   105   52   54 1    
   106   52  175 1    
   107   53  176 1    
   108   53  177 1    
   109   53  178 1    
   110   54   55 am   BACKBONE|DICT|INTERRES
   111   54  179 1    
   112   55   56 2    
   113   55   57 1    
   114   57   58 1    
   115   57   59 1    
   116   57  180 1    
   117   58  181 1    
   118   58  182 1    
   119   58  183 1    
   120   59   60 am   BACKBONE|DICT|INTERRES
   121   59  184 1    
   122   60   61 2    
   123   60   62 1    
   124   62   63 1    
   125   62   64 1    
   126   62  185 1    
   127   63  186 1    
   128   63  187 1    
   129   63  188 1    
   130   64   65 am   BACKBONE|DICT|INTERRES
   131   64  189 1    
   132   65   66 2    
   133   67   68 2    
   134   67   69 am   BACKBONE|DICT|INTERRES
   135   69   70 1    
   136   69  190 1    
   137   70   71 1    
   138   70   72 1    
   139   70  191 1    
   140   71  192 1    
   141   71  193 1    
   142   71  194 1    
   143   72   73 2    
   144   72   74 am   BACKBONE|DICT|INTERRES
   145   74   75 1    
   146   74  195 1    
   147   75   76 1    
   148   75   77 1    
   149   75  196 1    
   150   76  197 1    
   151   76  198 1    
   152   76  199 1    
   153   77   78 2    
   154   77   79 am   BACKBONE|DICT|INTERRES
   155   79   80 1    
   156   79  200 1    
   157   80   81 1    
   158   80   82 1    
   159   80  201 1    
   160   81  202 1    
   161   81  203 1    
   162   81  204 1    
   163   82   83 2    
   164   82   84 am   BACKBONE|DICT|INTERRES
   165   84   85 1    
   166   84  205 1    
   167   85   86 1    
   168   85   87 1    
   169   85  206 1    
   170   86  207 1    
   171   86  208 1    
   172   86  209 1    
   173   87   88 2    
   174   87   89 am   BACKBONE|DICT|INTERRES
   175   89   90 1    
   176   89  210 1    
   177   90   91 1    
   178   90   92 1    
   179   90  211 1    
   180   91  212 1    
   181   91  213 1    
   182   91  214 1    
   183   92   93 2    
   184   92   94 am   BACKBONE|DICT|INTERRES
   185   94   95 1    
   186   94  215 1    
   187   95   96 1    
   188   95   97 1    
   189   95  216 1    
   190   96  217 1    
   191   96  218 1    
   192   96  219 1    
   193   97   98 2    
   194   97   99 am   BACKBONE|DICT|INTERRES
   195   99  100 1    
   196   99  220 1    
   197  100  101 1    
   198  100  102 1    
   199  100  221 1    
   200  101  222 1    
   201  101  223 1    
   202  101  224 1    
   203  102  103 2    
   204  102  104 am   BACKBONE|DICT|INTERRES
   205  104  105 1    
   206  104  225 1    
   207  105  106 1    
   208  105  107 1    
   209  105  226 1    
   210  106  227 1    
   211  106  228 1    
   212  106  229 1    
   213  107  108 2    
   214  107  109 am   BACKBONE|DICT|INTERRES
   215  109  110 1    
   216  109  230 1    
   217  110  111 1    
   218  110  112 1    
   219  110  231 1    
   220  111  232 1    
   221  111  233 1    
   222  111  234 1    
   223  112  113 2    
   224  112  114 am   BACKBONE|DICT|INTERRES
   225  114  115 1    
   226  114  235 1    
   227  115  116 1    
   228  115  117 1    
   229  115  236 1    
   230  116  237 1    
   231  116  238 1    
   232  116  239 1    
   233  117  118 2    
   234  117  119 am   BACKBONE|DICT|INTERRES
   235  119  120 1    
   236  119  240 1    
   237  120  121 1    
   238  120  124 1    
   239  120  241 1    
   240  121  122 am   BACKBONE|DICT|INTERRES
   241  121  123 2    
   242  122  242 1    
   243  122  243 1    
   244  124  125 1    
   245  124  244 1    
   246  124  245 1    
   247  125  126 1    
   248  126  246 1    
   249  126  247 1    
@<TRIPOS>SUBSTRUCTURE
     1 UNK         1 GROUP             0       ****    0 ROOT    
