@<TRIPOS>MOLECULE
3R540
247   249    1
SMALL
USER_CHARGES


@<TRIPOS>ATOM
      1 CA         -2.0336  -12.8033  -50.8232 C.3       0 UNK        -0.1800 
      2 C          -0.8516  -13.7528  -50.6946 C.2       0 UNK         0.5000 
      3 O          -1.0424  -14.9328  -50.4089 O.2       0 UNK        -0.5000 
      4 N           0.3717  -13.2397  -50.8834 N.am      1 UNK        -0.5000 
      5 CA          1.6588  -13.9562  -50.8885 C.3       1 UNK         0.1400 
      6 C6          1.6985  -15.1059  -51.9314 C.3       23 UNK        -0.0398 
      7 S7          3.3270  -15.3005  -52.7274 S.3       23 UNK        -0.2404 
      8 C8          3.2453  -17.0407  -53.2846 C.3       23 UNK        -0.0205 
      9 C9          3.2359  -18.0990  -52.1785 C.ar      23 UNK        -0.0193 
     10 C10         2.7942  -19.3906  -52.4874 C.ar      23 UNK        -0.1150 
     11 C11         2.7880  -20.3967  -51.5166 C.ar      23 UNK        -0.0193 
     12 C12         3.2421  -20.1084  -50.2283 C.ar      23 UNK        -0.1150 
     13 C13         3.6485  -18.8151  -49.8880 C.ar      23 UNK        -0.0193 
     14 C14         3.6652  -17.8257  -50.8731 C.ar      23 UNK        -0.1150 
     15 C15         4.0679  -18.4601  -48.4647 C.3       23 UNK        -0.0205 
     16 S16         3.0097  -19.1880  -47.1668 S.3       23 UNK        -0.2404 
     17 C17         1.3253  -18.6758  -47.6608 C.3       23 UNK        -0.0398 
     18 CA          0.4067  -19.8376  -48.1392 C.3       11 UNK         0.1400 
     19 N           0.1676  -20.8462  -47.0935 N.am      11 UNK        -0.5000 
     20 C           0.8697  -21.9858  -46.9759 C.2       10 UNK         0.5000 
     21 O           1.7710  -22.3113  -47.7488 O.2       10 UNK        -0.5000 
     22 CA          0.5273  -22.9364  -45.8096 C.3       10 UNK         0.1400 
     23 CB          1.7748  -23.6349  -45.2385 C.3       10 UNK        -0.1800 
     24 N          -0.1589  -22.2416  -44.7251 N.am      10 UNK        -0.5000 
     25 C          -1.2655  -22.6716  -44.1037 C.2       9 UNK         0.5000 
     26 O          -1.8050  -23.7518  -44.3445 O.2       9 UNK        -0.5000 
     27 CA         -1.9026  -21.7339  -43.0503 C.3       9 UNK         0.1400 
     28 CB         -1.4955  -22.1664  -41.6336 C.3       9 UNK        -0.1800 
     29 N          -1.5825  -20.3119  -43.2133 N.am      9 UNK        -0.5000 
     30 C          -1.7567  -19.5998  -44.3339 C.2       8 UNK         0.5000 
     31 O          -2.2495  -20.0620  -45.3612 O.2       8 UNK        -0.5000 
     32 CA         -1.1779  -18.1748  -44.3638 C.3       8 UNK         0.1400 
     33 CB         -2.2376  -17.1493  -43.9399 C.3       8 UNK        -0.1800 
     34 N           0.0402  -17.9868  -43.5669 N.am      8 UNK        -0.5000 
     35 C           1.1510  -18.7420  -43.6056 C.2       7 UNK         0.5000 
     36 O           1.2689  -19.7577  -44.2884 O.2       7 UNK        -0.5000 
     37 CA          2.3137  -18.3083  -42.6997 C.3       7 UNK         0.1400 
     38 CB          3.1783  -17.2479  -43.4003 C.3       7 UNK        -0.1800 
     39 N           1.8308  -17.7894  -41.4200 N.am      7 UNK        -0.5000 
     40 C           1.4247  -18.5584  -40.3989 C.2       6 UNK         0.5000 
     41 O           1.4720  -19.7886  -40.4080 O.2       6 UNK        -0.5000 
     42 CA          0.8553  -17.8323  -39.1642 C.3       6 UNK         0.1400 
     43 CB          1.9814  -17.4781  -38.1811 C.3       6 UNK        -0.1800 
     44 N           0.1237  -16.6140  -39.5136 N.am      6 UNK        -0.5000 
     45 C          -1.0597  -16.5915  -40.1435 C.2       5 UNK         0.5000 
     46 O          -1.7017  -17.6036  -40.4239 O.2       5 UNK        -0.5000 
     47 CA         -1.5963  -15.2066  -40.5639 C.3       5 UNK         0.1400 
     48 CB         -2.5412  -14.6482  -39.4895 C.3       5 UNK        -0.1800 
     49 N          -0.5421  -14.2219  -40.8379 N.am      5 UNK        -0.5000 
     50 C           0.3894  -14.3470  -41.7918 C.2       4 UNK         0.5000 
     51 O           0.4513  -15.3114  -42.5605 O.2       4 UNK        -0.5000 
     52 CA          1.4666  -13.2550  -41.8536 C.3       4 UNK         0.1400 
     53 CB          2.3735  -13.3233  -40.6073 C.3       4 UNK        -0.1800 
     54 N           2.2564  -13.4672  -43.0613 N.am      4 UNK        -0.5000 
     55 C           3.1505  -12.6284  -43.5951 C.2       3 UNK         0.5000 
     56 O           3.4003  -11.5118  -43.1394 O.2       3 UNK        -0.5000 
     57 CA          3.9053  -13.1235  -44.8445 C.3       3 UNK         0.1400 
     58 CB          5.2565  -13.7342  -44.4409 C.3       3 UNK        -0.1800 
     59 N           3.1571  -14.1128  -45.6247 N.am      3 UNK        -0.5000 
     60 C           2.1217  -13.8173  -46.4196 C.2       2 UNK         0.5000 
     61 O           1.6714  -12.6787  -46.5673 O.2       2 UNK        -0.5000 
     62 CA          1.4673  -14.9985  -47.1601 C.3       2 UNK         0.1400 
     63 CB          0.1385  -15.3757  -46.4866 C.3       2 UNK        -0.1800 
     64 N           1.2120  -14.6850  -48.5646 N.am      2 UNK        -0.5000 
     65 C           2.1424  -14.4161  -49.4899 C.2       1 UNK         0.5000 
     66 O           3.3514  -14.4920  -49.2666 O.2       1 UNK        -0.5000 
     67 C          -0.8952  -19.2738  -48.7543 C.2       11 UNK         0.5000 
     68 O          -0.8258  -18.6652  -49.8227 O.2       11 UNK        -0.5000 
     69 N          -2.0561  -19.4463  -48.1010 N.am      12 UNK        -0.5000 
     70 CA         -3.3296  -18.8359  -48.4961 C.3       12 UNK         0.1400 
     71 CB         -4.3614  -18.9790  -47.3663 C.3       12 UNK        -0.1800 
     72 C          -3.9296  -19.3151  -49.8305 C.2       12 UNK         0.5000 
     73 O          -4.8480  -18.6575  -50.3197 O.2       12 UNK        -0.5000 
     74 N          -3.4296  -20.3997  -50.4419 N.am      13 UNK        -0.5000 
     75 CA         -3.8664  -20.8130  -51.7836 C.3       13 UNK         0.1400 
     76 CB         -3.2699  -22.1721  -52.1573 C.3       13 UNK        -0.1800 
     77 C          -3.5314  -19.7628  -52.8630 C.2       13 UNK         0.5000 
     78 O          -4.2843  -19.6154  -53.8256 O.2       13 UNK        -0.5000 
     79 N          -2.4545  -18.9943  -52.6428 N.am      14 UNK        -0.5000 
     80 CA         -2.0817  -17.8290  -53.4458 C.3       14 UNK         0.1400 
     81 CB         -0.6276  -17.4647  -53.1303 C.3       14 UNK        -0.1800 
     82 C          -3.0136  -16.6152  -53.2296 C.2       14 UNK         0.5000 
     83 O          -3.0417  -15.7208  -54.0750 O.2       14 UNK        -0.5000 
     84 N          -3.7862  -16.6228  -52.1343 N.am      15 UNK        -0.5000 
     85 CA         -4.8568  -15.6734  -51.8235 C.3       15 UNK         0.1400 
     86 CB         -4.7962  -15.3214  -50.3255 C.3       15 UNK        -0.1800 
     87 C          -6.2428  -16.2340  -52.2178 C.2       15 UNK         0.5000 
     88 O          -7.2599  -15.6930  -51.7824 O.2       15 UNK        -0.5000 
     89 N          -6.2577  -17.2967  -53.0376 N.am      16 UNK        -0.5000 
     90 CA         -7.4168  -17.9885  -53.6065 C.3       16 UNK         0.1400 
     91 CB         -8.3136  -17.0287  -54.4186 C.3       16 UNK        -0.1800 
     92 C          -8.2033  -18.8597  -52.6048 C.2       16 UNK         0.5000 
     93 O          -9.3820  -19.1348  -52.8406 O.2       16 UNK        -0.5000 
     94 N          -7.5429  -19.3337  -51.5374 N.am      17 UNK        -0.5000 
     95 CA         -8.0401  -20.4302  -50.6983 C.3       17 UNK         0.1400 
     96 CB         -7.3640  -20.3687  -49.3171 C.3       17 UNK        -0.1800 
     97 C          -7.8130  -21.8014  -51.3774 C.2       17 UNK         0.5000 
     98 O          -7.3474  -21.8672  -52.5189 O.2       17 UNK        -0.5000 
     99 N          -8.1416  -22.8839  -50.6603 N.am      18 UNK        -0.5000 
    100 CA        -7.9112  -24.2657  -51.0884 C.3       18 UNK         0.1400 
    101 CB        -8.5534  -25.2164  -50.0664 C.3       18 UNK        -0.1800 
    102 C         -6.4120  -24.5882  -51.2424 C.2       18 UNK         0.5000 
    103 O         -5.5971  -24.0894  -50.4637 O.2       18 UNK        -0.5000 
    104 N         -6.0859  -25.4587  -52.2089 N.am      19 UNK        -0.5000 
    105 CA        -4.7231  -25.8662  -52.5816 C.3       19 UNK         0.1400 
    106 CB        -4.7989  -26.8000  -53.7988 C.3       19 UNK        -0.1800 
    107 C         -3.9031  -26.5237  -51.4529 C.2       19 UNK         0.5000 
    108 O         -2.6723  -26.5267  -51.5186 O.2       19 UNK        -0.5000 
    109 N         -4.5924  -27.0348  -50.4229 N.am      20 UNK        -0.5000 
    110 CA        -4.0117  -27.5355  -49.1767 C.3       20 UNK         0.1400 
    111 CB        -5.1325  -28.1168  -48.3020 C.3       20 UNK        -0.1800 
    112 C         -3.2205  -26.4637  -48.3991 C.2       20 UNK         0.5000 
    113 O         -2.2587  -26.8070  -47.7121 O.2       20 UNK        -0.5000 
    114 N         -3.5891  -25.1846  -48.5626 N.am      21 UNK        -0.5000 
    115 CA        -2.8743  -24.0291  -48.0232 C.3       21 UNK         0.1400 
    116 CB        -3.8841  -22.9110  -47.7096 C.3       21 UNK        -0.1800 
    117 C         -1.7484  -23.5670  -48.9736 C.2       21 UNK         0.5000 
    118 O         -1.6359  -22.3734  -49.2382 O.2       21 UNK        -0.5000 
    119 N         -0.9468  -24.5250  -49.4494 N.am      22 UNK        -0.5000 
    120 CA         0.2924  -24.4100  -50.2370 C.3       22 UNK         0.1400 
    121 C          0.8849  -25.8279  -50.4452 C.2       22 UNK         0.5000 
    122 N          0.0784  -26.8277  -50.7863 N.am      22 UNK        -0.7600 
    123 O          2.0850  -26.0289  -50.2848 O.2       22 UNK        -0.5000 
    124 C124        0.1640  -23.6791  -51.6073 C.3       23 UNK        -0.0398 
    125 S125        0.4763  -21.8817  -51.5119 S.3       23 UNK        -0.2404 
    126 C126        2.2624  -21.7869  -51.8402 C.3       23 UNK        -0.0205 
    127 H127       -2.7107  -13.1557  -51.6014 H         1 UNK         0.0600 
    128 H128       -1.7168  -11.7924  -51.0801 H         1 UNK         0.0600 
    129 H129       -2.5843  -12.7597  -49.8837 H         1 UNK         0.0600 
    130 H130        0.4481  -12.2493  -51.0708 H         1 UNK         0.3000 
    131 H131        2.3721  -13.1939  -51.2064 H         1 UNK         0.0600 
    132 H132        1.3847  -16.0481  -51.4805 H         1 UNK         0.0800 
    133 H133        0.9902  -14.9063  -52.7358 H         1 UNK         0.0800 
    134 H134        4.1055  -17.2319  -53.9272 H         1 UNK         0.0800 
    135 H135        2.3612  -17.1583  -53.9129 H         1 UNK         0.0800 
    136 H136        2.4452  -19.6139  -53.4859 H         1 UNK         0.1150 
    137 H137        3.2336  -20.8842  -49.4755 H         1 UNK         0.1150 
    138 H138        4.0100  -16.8372  -50.6084 H         1 UNK         0.1150 
    139 H139        5.0937  -18.7960  -48.3093 H         1 UNK         0.0800 
    140 H140        4.0731  -17.3772  -48.3288 H         1 UNK         0.0800 
    141 H141        1.4098  -17.9094  -48.4337 H         1 UNK         0.0800 
    142 H142        0.8801  -18.1854  -46.7978 H         1 UNK         0.0800 
    143 H143        0.8942  -20.3271  -48.9808 H         1 UNK         0.0600 
    144 H144       -0.5692  -20.6585  -46.4272 H         1 UNK         0.3000 
    145 H145       -0.1235  -23.7026  -46.2340 H         1 UNK         0.0600 
    146 H146        1.5098  -24.3160  -44.4296 H         1 UNK         0.0600 
    147 H147        2.2835  -24.2245  -46.0020 H         1 UNK         0.0600 
    148 H148        2.4905  -22.9106  -44.8474 H         1 UNK         0.0600 
    149 H149        0.2411  -21.3415  -44.4667 H         1 UNK         0.3000 
    150 H150       -2.9855  -21.8348  -43.1440 H         1 UNK         0.0600 
    151 H151       -1.7391  -23.2151  -41.4579 H         1 UNK         0.0600 
    152 H152       -2.0173  -21.5811  -40.8762 H         1 UNK         0.0600 
    153 H153       -0.4234  -22.0455  -41.4713 H         1 UNK         0.0600 
    154 H154       -1.1398  -19.8556  -42.4284 H         1 UNK         0.3000 
    155 H155       -0.9152  -17.9655  -45.4000 H         1 UNK         0.0600 
    156 H156       -1.8523  -16.1313  -43.9976 H         1 UNK         0.0600 
    157 H157       -3.1121  -17.2005  -44.5890 H         1 UNK         0.0600 
    158 H158       -2.5800  -17.3252  -42.9208 H         1 UNK         0.0600 
    159 H159        0.0718  -17.1412  -43.0055 H         1 UNK         0.3000 
    160 H160        2.9402  -19.1832  -42.5129 H         1 UNK         0.0600 
    161 H161        2.6009  -16.3640  -43.6666 H         1 UNK         0.0600 
    162 H162        3.6067  -17.6463  -44.3210 H         1 UNK         0.0600 
    163 H163        4.0067  -16.9310  -42.7666 H         1 UNK         0.0600 
    164 H164        1.7040  -16.7898  -41.3568 H         1 UNK         0.3000 
    165 H165        0.1662  -18.5158  -38.6636 H         1 UNK         0.0600 
    166 H166        1.5836  -17.0271  -37.2718 H         1 UNK         0.0600 
    167 H167        2.5351  -18.3700  -37.8846 H         1 UNK         0.0600 
    168 H168        2.6950  -16.7790  -38.6190 H         1 UNK         0.0600 
    169 H169        0.5717  -15.7351  -39.3018 H         1 UNK         0.3000 
    170 H170       -2.1693  -15.3421  -41.4829 H         1 UNK         0.0600 
    171 H171       -3.3525  -15.3472  -39.2813 H         1 UNK         0.0600 
    172 H172       -2.0185  -14.4626  -38.5504 H         1 UNK         0.0600 
    173 H173       -2.9966  -13.7118  -39.8123 H         1 UNK         0.0600 
    174 H174       -0.5259  -13.4067  -40.2418 H         1 UNK         0.3000 
    175 H175        0.9750  -12.2820  -41.9110 H         1 UNK         0.0600 
    176 H176        1.8018  -13.1829  -39.6895 H         1 UNK         0.0600 
    177 H177        2.8827  -14.2853  -40.5347 H         1 UNK         0.0600 
    178 H178        3.1365  -12.5454  -40.6239 H         1 UNK         0.0600 
    179 H179        2.0578  -14.3447  -43.5234 H         1 UNK         0.3000 
    180 H180        4.1003  -12.2558  -45.4786 H         1 UNK         0.0600 
    181 H181        5.1287  -14.6162  -43.8119 H         1 UNK         0.0600 
    182 H182        5.8577  -13.0167  -43.8808 H         1 UNK         0.0600 
    183 H183        5.8354  -14.0265  -45.3172 H         1 UNK         0.0600 
    184 H184        3.4857  -15.0656  -45.5730 H         1 UNK         0.3000 
    185 H185        2.1378  -15.8591  -47.1255 H         1 UNK         0.0600 
    186 H186       -0.5458  -14.5272  -46.4456 H         1 UNK         0.0600 
    187 H187       -0.3684  -16.1783  -47.0219 H         1 UNK         0.0600 
    188 H188        0.3046  -15.7103  -45.4621 H         1 UNK         0.0600 
    189 H189        0.2432  -14.6347  -48.8568 H         1 UNK         0.3000 
    190 H190       -2.0755  -19.9458  -47.2187 H         1 UNK         0.3000 
    191 H191       -3.1401  -17.7679  -48.6237 H         1 UNK         0.0600 
    192 H192       -4.5522  -20.0229  -47.1198 H         1 UNK         0.0600 
    193 H193       -5.3156  -18.5292  -47.6432 H         1 UNK         0.0600 
    194 H194       -4.0284  -18.4716  -46.4623 H         1 UNK         0.0600 
    195 H195       -2.6838  -20.9352  -50.0019 H         1 UNK         0.3000 
    196 H196       -4.9503  -20.9256  -51.7532 H         1 UNK         0.0600 
    197 H197       -3.7422  -22.5620  -53.0592 H         1 UNK         0.0600 
    198 H198       -3.4124  -22.9079  -51.3674 H         1 UNK         0.0600 
    199 H199       -2.2060  -22.0874  -52.3603 H         1 UNK         0.0600 
    200 H200       -1.9024  -19.1595  -51.8084 H         1 UNK         0.3000 
    201 H201       -2.1418  -18.1064  -54.5002 H         1 UNK         0.0600 
    202 H202        0.0405  -18.3078  -53.3065 H         1 UNK         0.0600 
    203 H203       -0.5189  -17.1630  -52.0888 H         1 UNK         0.0600 
    204 H204       -0.2882  -16.6402  -53.7574 H         1 UNK         0.0600 
    205 H205       -3.7335  -17.4194  -51.5115 H         1 UNK         0.3000 
    206 H206       -4.7065  -14.7529  -52.3905 H         1 UNK         0.0600 
    207 H207       -3.7891  -15.0379  -50.0227 H         1 UNK         0.0600 
    208 H208       -5.4523  -14.4808  -50.0977 H         1 UNK         0.0600 
    209 H209       -5.1084  -16.1548  -49.6968 H         1 UNK         0.0600 
    210 H210       -5.3644  -17.6902  -53.3036 H         1 UNK         0.3000 
    211 H211       -6.9948  -18.6981  -54.3196 H         1 UNK         0.0600 
    212 H212       -8.8623  -16.3412  -53.7748 H         1 UNK         0.0600 
    213 H213       -9.0501  -17.5824  -55.0018 H         1 UNK         0.0600 
    214 H214       -7.7261  -16.4375  -55.1210 H         1 UNK         0.0600 
    215 H215       -6.5826  -19.0479  -51.3811 H         1 UNK         0.3000 
    216 H216       -9.1145  -20.3012  -50.5522 H         1 UNK         0.0600 
    217 H217       -6.3439  -20.7505  -49.3501 H         1 UNK         0.0600 
    218 H218       -7.9068  -20.9697  -48.5873 H         1 UNK         0.0600 
    219 H219       -7.3336  -19.3492  -48.9323 H         1 UNK         0.0600 
    220 H220       -8.4899  -22.7604  -49.7215 H         1 UNK         0.3000 
    221 H221       -8.4019  -24.4050  -52.0539 H         1 UNK         0.0600 
    222 H222       -9.6232  -25.0299  -49.9709 H         1 UNK         0.0600 
    223 H223       -8.1036  -25.1080  -49.0784 H         1 UNK         0.0600 
    224 H224       -8.4331  -26.2575  -50.3688 H         1 UNK         0.0600 
    225 H225       -6.8263  -25.8376  -52.7819 H         1 UNK         0.3000 
    226 H226       -4.1836  -24.9657  -52.8787 H         1 UNK         0.0600 
    227 H227       -5.2796  -26.3086  -54.6449 H         1 UNK         0.0600 
    228 H228       -3.8022  -27.1008  -54.1248 H         1 UNK         0.0600 
    229 H229       -5.3587  -27.7086  -53.5736 H         1 UNK         0.0600 
    230 H230       -5.5993  -26.9883  -50.4638 H         1 UNK         0.3000 
    231 H231       -3.3177  -28.3393  -49.4306 H         1 UNK         0.0600 
    232 H232       -5.8720  -27.3589  -48.0400 H         1 UNK         0.0600 
    233 H233       -4.7318  -28.5206  -47.3712 H         1 UNK         0.0600 
    234 H234       -5.6497  -28.9301  -48.8114 H         1 UNK         0.0600 
    235 H235       -4.3526  -24.9679  -49.1972 H         1 UNK         0.3000 
    236 H236       -2.4012  -24.3080  -47.0798 H         1 UNK         0.0600 
    237 H237       -4.6708  -23.2635  -47.0430 H         1 UNK         0.0600 
    238 H238       -3.3890  -22.0771  -47.2115 H         1 UNK         0.0600 
    239 H239       -4.3570  -22.5261  -48.6138 H         1 UNK         0.0600 
    240 H240       -1.1463  -25.4735  -49.1558 H         1 UNK         0.3000 
    241 H241        1.0118  -23.8709  -49.6223 H         1 UNK         0.0600 
    242 H242        0.4689  -27.7477  -50.9147 H         1 UNK         0.3800 
    243 H243       -0.9027  -26.6700  -51.0113 H         1 UNK         0.3800 
    244 H244       -0.8239  -23.8579  -52.0308 H         1 UNK         0.0800 
    245 H245        0.8642  -24.0767  -52.3449 H         1 UNK         0.0800 
    246 H246        2.7838  -22.5315  -51.2364 H         1 UNK         0.0800 
    247 H247        2.4577  -22.0353  -52.8844 H         1 UNK         0.0800 
@<TRIPOS>BOND
     1    1    2 1    
     2    1  127 1    
     3    1  128 1    
     4    1  129 1    
     5    2    3 2    
     6    2    4 am   BACKBONE|DICT|INTERRES
     7    4    5 1    
     8    4  130 1    
     9    5    6 1    
    10    5   65 1    
    11    5  131 1    
    12    6    7 1    
    13    6  132 1    
    14    6  133 1    
    15    7    8 1    
    16    8    9 1    
    17    8  134 1    
    18    8  135 1    
    19    9   10 ar   
    20    9   14 ar   
    21   10   11 ar   
    22   10  136 1    
    23   11   12 ar   
    24   11  126 1    
    25   12   13 ar   
    26   12  137 1    
    27   13   14 ar   
    28   13   15 1    
    29   14  138 1    
    30   15   16 1    
    31   15  139 1    
    32   15  140 1    
    33   16   17 1    
    34   17   18 1    
    35   17  141 1    
    36   17  142 1    
    37   18   19 1    
    38   18   67 1    
    39   18  143 1    
    40   19   20 am   BACKBONE|DICT|INTERRES
    41   19  144 1    
    42   20   21 2    
    43   20   22 1    
    44   22   23 1    
    45   22   24 1    
    46   22  145 1    
    47   23  146 1    
    48   23  147 1    
    49   23  148 1    
    50   24   25 am   BACKBONE|DICT|INTERRES
    51   24  149 1    
    52   25   26 2    
    53   25   27 1    
    54   27   28 1    
    55   27   29 1    
    56   27  150 1    
    57   28  151 1    
    58   28  152 1    
    59   28  153 1    
    60   29   30 am   BACKBONE|DICT|INTERRES
    61   29  154 1    
    62   30   31 2    
    63   30   32 1    
    64   32   33 1    
    65   32   34 1    
    66   32  155 1    
    67   33  156 1    
    68   33  157 1    
    69   33  158 1    
    70   34   35 am   BACKBONE|DICT|INTERRES
    71   34  159 1    
    72   35   36 2    
    73   35   37 1    
    74   37   38 1    
    75   37   39 1    
    76   37  160 1    
    77   38  161 1    
    78   38  162 1    
    79   38  163 1    
    80   39   40 am   BACKBONE|DICT|INTERRES
    81   39  164 1    
    82   40   41 2    
    83   40   42 1    
    84   42   43 1    
    85   42   44 1    
    86   42  165 1    
    87   43  166 1    
    88   43  167 1    
    89   43  168 1    
    90   44   45 am   BACKBONE|DICT|INTERRES
    91   44  169 1    
    92   45   46 2    
    93   45   47 1    
    94   47   48 1    
    95   47   49 1    
    96   47  170 1    
    97   48  171 1    
    98   48  172 1    
    99   48  173 1    
   100   49   50 am   BACKBONE|DICT|INTERRES
   101   49  174 1    
   102   50   51 2    
   103   50   52 1    
   104   52   53 1    
   105   52   54 1    
   106   52  175 1    
   107   53  176 1    
   108   53  177 1    
   109   53  178 1    
   110   54   55 am   BACKBONE|DICT|INTERRES
   111   54  179 1    
   112   55   56 2    
   113   55   57 1    
   114   57   58 1    
   115   57   59 1    
   116   57  180 1    
   117   58  181 1    
   118   58  182 1    
   119   58  183 1    
   120   59   60 am   BACKBONE|DICT|INTERRES
   121   59  184 1    
   122   60   61 2    
   123   60   62 1    
   124   62   63 1    
   125   62   64 1    
   126   62  185 1    
   127   63  186 1    
   128   63  187 1    
   129   63  188 1    
   130   64   65 am   BACKBONE|DICT|INTERRES
   131   64  189 1    
   132   65   66 2    
   133   67   68 2    
   134   67   69 am   BACKBONE|DICT|INTERRES
   135   69   70 1    
   136   69  190 1    
   137   70   71 1    
   138   70   72 1    
   139   70  191 1    
   140   71  192 1    
   141   71  193 1    
   142   71  194 1    
   143   72   73 2    
   144   72   74 am   BACKBONE|DICT|INTERRES
   145   74   75 1    
   146   74  195 1    
   147   75   76 1    
   148   75   77 1    
   149   75  196 1    
   150   76  197 1    
   151   76  198 1    
   152   76  199 1    
   153   77   78 2    
   154   77   79 am   BACKBONE|DICT|INTERRES
   155   79   80 1    
   156   79  200 1    
   157   80   81 1    
   158   80   82 1    
   159   80  201 1    
   160   81  202 1    
   161   81  203 1    
   162   81  204 1    
   163   82   83 2    
   164   82   84 am   BACKBONE|DICT|INTERRES
   165   84   85 1    
   166   84  205 1    
   167   85   86 1    
   168   85   87 1    
   169   85  206 1    
   170   86  207 1    
   171   86  208 1    
   172   86  209 1    
   173   87   88 2    
   174   87   89 am   BACKBONE|DICT|INTERRES
   175   89   90 1    
   176   89  210 1    
   177   90   91 1    
   178   90   92 1    
   179   90  211 1    
   180   91  212 1    
   181   91  213 1    
   182   91  214 1    
   183   92   93 2    
   184   92   94 am   BACKBONE|DICT|INTERRES
   185   94   95 1    
   186   94  215 1    
   187   95   96 1    
   188   95   97 1    
   189   95  216 1    
   190   96  217 1    
   191   96  218 1    
   192   96  219 1    
   193   97   98 2    
   194   97   99 am   BACKBONE|DICT|INTERRES
   195   99  100 1    
   196   99  220 1    
   197  100  101 1    
   198  100  102 1    
   199  100  221 1    
   200  101  222 1    
   201  101  223 1    
   202  101  224 1    
   203  102  103 2    
   204  102  104 am   BACKBONE|DICT|INTERRES
   205  104  105 1    
   206  104  225 1    
   207  105  106 1    
   208  105  107 1    
   209  105  226 1    
   210  106  227 1    
   211  106  228 1    
   212  106  229 1    
   213  107  108 2    
   214  107  109 am   BACKBONE|DICT|INTERRES
   215  109  110 1    
   216  109  230 1    
   217  110  111 1    
   218  110  112 1    
   219  110  231 1    
   220  111  232 1    
   221  111  233 1    
   222  111  234 1    
   223  112  113 2    
   224  112  114 am   BACKBONE|DICT|INTERRES
   225  114  115 1    
   226  114  235 1    
   227  115  116 1    
   228  115  117 1    
   229  115  236 1    
   230  116  237 1    
   231  116  238 1    
   232  116  239 1    
   233  117  118 2    
   234  117  119 am   BACKBONE|DICT|INTERRES
   235  119  120 1    
   236  119  240 1    
   237  120  121 1    
   238  120  124 1    
   239  120  241 1    
   240  121  122 am   BACKBONE|DICT|INTERRES
   241  121  123 2    
   242  122  242 1    
   243  122  243 1    
   244  124  125 1    
   245  124  244 1    
   246  124  245 1    
   247  125  126 1    
   248  126  246 1    
   249  126  247 1    
@<TRIPOS>SUBSTRUCTURE
     1 UNK         1 GROUP             0       ****    0 ROOT    
