@<TRIPOS>MOLECULE
3R540
247   249    1
SMALL
USER_CHARGES


@<TRIPOS>ATOM
      1 CA         -1.6317  -11.6465  -44.9900 C.3       0 UNK        -0.1800 
      2 C          -0.6710  -11.9150  -46.1388 C.2       0 UNK         0.5000 
      3 O           0.3947  -12.4940  -45.9192 O.2       0 UNK        -0.5000 
      4 N          -1.0401  -11.4706  -47.3489 N.am      1 UNK        -0.5000 
      5 CA         -0.3394  -11.6673  -48.6313 C.3       1 UNK         0.1400 
      6 C6         -0.3754  -13.1367  -49.1346 C.3       23 UNK        -0.0398 
      7 S7         -2.0819  -13.7780  -49.2721 S.3       23 UNK        -0.2404 
      8 C8         -1.9735  -15.3458  -48.3531 C.3       23 UNK        -0.0205 
      9 C9         -1.7110  -16.5337  -49.2692 C.ar      23 UNK        -0.0193 
     10 C10        -0.5130  -16.6342  -49.9817 C.ar      23 UNK        -0.1150 
     11 C11        -0.2740  -17.7209  -50.8279 C.ar      23 UNK        -0.0193 
     12 C12        -1.2434  -18.7213  -50.9480 C.ar      23 UNK        -0.1150 
     13 C13        -2.4322  -18.6551  -50.2114 C.ar      23 UNK        -0.0193 
     14 C14        -2.6635  -17.5501  -49.3872 C.ar      23 UNK        -0.1150 
     15 C15        -3.4606  -19.7831  -50.2705 C.3       23 UNK        -0.0205 
     16 S16        -2.7257  -21.4400  -50.0456 S.3       23 UNK        -0.2404 
     17 C17        -1.8470  -21.1788  -48.4722 C.3       23 UNK        -0.0398 
     18 CA         -1.3397  -22.4700  -47.7952 C.3       11 UNK         0.1400 
     19 N          -0.3192  -22.1627  -46.7907 N.am      11 UNK        -0.5000 
     20 C           0.4085  -23.0603  -46.1142 C.2       10 UNK         0.5000 
     21 O           0.3273  -24.2752  -46.2846 O.2       10 UNK        -0.5000 
     22 CA          1.3468  -22.5110  -45.0246 C.3       10 UNK         0.1400 
     23 CB          2.6356  -21.9480  -45.6412 C.3       10 UNK        -0.1800 
     24 N           0.7037  -21.4883  -44.1981 N.am      10 UNK        -0.5000 
     25 C          -0.3625  -21.7111  -43.4154 C.2       9 UNK         0.5000 
     26 O          -0.8825  -22.8174  -43.2675 O.2       9 UNK        -0.5000 
     27 CA         -0.9841  -20.4848  -42.7227 C.3       9 UNK         0.1400 
     28 CB         -0.1795  -20.0895  -41.4757 C.3       9 UNK        -0.1800 
     29 N          -1.1002  -19.3325  -43.6167 N.am      9 UNK        -0.5000 
     30 C          -1.8472  -19.3026  -44.7296 C.2       8 UNK         0.5000 
     31 O          -2.5573  -20.2340  -45.1057 O.2       8 UNK        -0.5000 
     32 CA         -1.7410  -18.0371  -45.5970 C.3       8 UNK         0.1400 
     33 CB         -2.5861  -16.8976  -45.0042 C.3       8 UNK        -0.1800 
     34 N          -0.3530  -17.6020  -45.7636 N.am      8 UNK        -0.5000 
     35 C           0.5895  -18.3093  -46.4059 C.2       7 UNK         0.5000 
     36 O           0.3828  -19.3937  -46.9447 O.2       7 UNK        -0.5000 
     37 CA          2.0166  -17.7364  -46.3975 C.3       7 UNK         0.1400 
     38 CB          2.1891  -16.7014  -47.5178 C.3       7 UNK        -0.1800 
     39 N           2.3613  -17.1351  -45.1100 N.am      7 UNK        -0.5000 
     40 C           2.4837  -17.8200  -43.9627 C.2       6 UNK         0.5000 
     41 O           2.3871  -19.0446  -43.8801 O.2       6 UNK        -0.5000 
     42 CA          2.6727  -16.9791  -42.6875 C.3       6 UNK         0.1400 
     43 CB          4.1538  -16.6343  -42.4766 C.3       6 UNK        -0.1800 
     44 N           1.8695  -15.7523  -42.7268 N.am      6 UNK        -0.5000 
     45 C           0.5273  -15.7472  -42.6844 C.2       5 UNK         0.5000 
     46 O          -0.1350  -16.7771  -42.5533 O.2       5 UNK        -0.5000 
     47 CA         -0.2143  -14.4113  -42.9012 C.3       5 UNK         0.1400 
     48 CB         -1.4099  -14.2373  -41.9421 C.3       5 UNK        -0.1800 
     49 N           0.6498  -13.2278  -42.9097 N.am      5 UNK        -0.5000 
     50 C           1.3200  -12.6885  -41.8798 C.2       4 UNK         0.5000 
     51 O           1.2608  -13.1108  -40.7243 O.2       4 UNK        -0.5000 
     52 CA          2.2312  -11.4868  -42.2202 C.3       4 UNK         0.1400 
     53 CB          3.3619  -11.2882  -41.1894 C.3       4 UNK        -0.1800 
     54 N           2.7857  -11.5397  -43.5810 N.am      4 UNK        -0.5000 
     55 C           3.5298  -12.5230  -44.1135 C.2       3 UNK         0.5000 
     56 O           3.8322  -13.5480  -43.5024 O.2       3 UNK        -0.5000 
     57 CA          3.9648  -12.3614  -45.5816 C.3       3 UNK         0.1400 
     58 CB          3.8291  -13.6857  -46.3524 C.3       3 UNK        -0.1800 
     59 N           3.1580  -11.3514  -46.2654 N.am      3 UNK        -0.5000 
     60 C           3.6195  -10.2430  -46.8593 C.2       2 UNK         0.5000 
     61 O           4.8059   -9.9110  -46.8485 O.2       2 UNK        -0.5000 
     62 CA          2.5787   -9.3421  -47.5663 C.3       2 UNK         0.1400 
     63 CB          3.1417   -8.6735  -48.8380 C.3       2 UNK        -0.1800 
     64 N           1.3014  -10.0143  -47.8456 N.am      2 UNK        -0.5000 
     65 C           1.0907  -11.0757  -48.6420 C.2       1 UNK         0.5000 
     66 O           1.9672  -11.5939  -49.3352 O.2       1 UNK        -0.5000 
     67 C          -2.4973  -23.2997  -47.2061 C.2       11 UNK         0.5000 
     68 O          -2.8951  -24.2978  -47.8071 O.2       11 UNK        -0.5000 
     69 N          -2.9931  -22.9038  -46.0260 N.am      12 UNK        -0.5000 
     70 CA         -4.0303  -23.6171  -45.2803 C.3       12 UNK         0.1400 
     71 CB         -4.4588  -22.7808  -44.0661 C.3       12 UNK        -0.1800 
     72 C          -3.6016  -25.0315  -44.8505 C.2       12 UNK         0.5000 
     73 O          -4.4200  -25.9494  -44.8966 O.2       12 UNK        -0.5000 
     74 N          -2.3308  -25.1851  -44.4597 N.am      13 UNK        -0.5000 
     75 CA         -1.7429  -26.4599  -44.0613 C.3       13 UNK         0.1400 
     76 CB         -0.4622  -26.1997  -43.2517 C.3       13 UNK        -0.1800 
     77 C          -1.4596  -27.3860  -45.2583 C.2       13 UNK         0.5000 
     78 O          -1.8983  -28.5368  -45.2514 O.2       13 UNK        -0.5000 
     79 N          -0.7028  -26.8861  -46.2436 N.am      14 UNK        -0.5000 
     80 CA         -0.1243  -27.6972  -47.3155 C.3       14 UNK         0.1400 
     81 CB          1.2084  -27.0702  -47.7545 C.3       14 UNK        -0.1800 
     82 C          -1.0466  -27.8715  -48.5318 C.2       14 UNK         0.5000 
     83 O          -1.0098  -28.9312  -49.1589 O.2       14 UNK        -0.5000 
     84 N          -1.8288  -26.8373  -48.8646 N.am      15 UNK        -0.5000 
     85 CA         -2.6418  -26.7729  -50.0829 C.3       15 UNK         0.1400 
     86 CB         -2.1921  -25.5548  -50.9116 C.3       15 UNK        -0.1800 
     87 C          -4.1486  -26.7058  -49.7830 C.2       15 UNK         0.5000 
     88 O          -4.9306  -26.4945  -50.7096 O.2       15 UNK        -0.5000 
     89 N          -4.5390  -26.8351  -48.5048 N.am      16 UNK        -0.5000 
     90 CA         -5.9110  -26.7189  -47.9876 C.3       16 UNK         0.1400 
     91 CB         -6.7669  -27.9115  -48.4627 C.3       16 UNK        -0.1800 
     92 C          -6.5713  -25.3546  -48.2994 C.2       16 UNK         0.5000 
     93 O          -7.7950  -25.2752  -48.4144 O.2       16 UNK        -0.5000 
     94 N          -5.7365  -24.3163  -48.4639 N.am      17 UNK        -0.5000 
     95 CA         -6.0576  -22.9538  -48.9007 C.3       17 UNK         0.1400 
     96 CB         -6.9892  -22.2481  -47.8935 C.3       17 UNK        -0.1800 
     97 C          -6.5744  -22.8554  -50.3557 C.2       17 UNK         0.5000 
     98 O          -7.0883  -21.8034  -50.7388 O.2       17 UNK        -0.5000 
     99 N          -6.4339  -23.9278  -51.1513 N.am      18 UNK        -0.5000 
    100 CA        -6.9469  -24.0070  -52.5215 C.3       18 UNK         0.1400 
    101 CB        -7.1101  -25.4812  -52.9209 C.3       18 UNK        -0.1800 
    102 C         -6.0673  -23.2690  -53.5461 C.2       18 UNK         0.5000 
    103 O         -6.5754  -22.8608  -54.5918 O.2       18 UNK        -0.5000 
    104 N         -4.7752  -23.0901  -53.2380 N.am      19 UNK        -0.5000 
    105 CA        -3.7935  -22.3889  -54.0705 C.3       19 UNK         0.1400 
    106 CB        -2.3852  -22.9080  -53.7277 C.3       19 UNK        -0.1800 
    107 C         -3.9174  -20.8572  -53.9293 C.2       19 UNK         0.5000 
    108 O         -2.9528  -20.1884  -53.5561 O.2       19 UNK        -0.5000 
    109 N         -5.1219  -20.3351  -54.1981 N.am      20 UNK        -0.5000 
    110 CA        -5.5043  -18.9269  -54.0885 C.3       20 UNK         0.1400 
    111 CB        -6.9708  -18.7725  -54.5173 C.3       20 UNK        -0.1800 
    112 C         -4.5950  -17.9990  -54.9140 C.2       20 UNK         0.5000 
    113 O         -4.2478  -18.3342  -56.0500 O.2       20 UNK        -0.5000 
    114 N         -4.1983  -16.8717  -54.3049 N.am      21 UNK        -0.5000 
    115 CA        -3.2351  -15.8862  -54.8195 C.3       21 UNK         0.1400 
    116 CB        -3.8351  -15.1162  -56.0145 C.3       21 UNK        -0.1800 
    117 C         -1.8473  -16.4933  -55.1347 C.2       21 UNK         0.5000 
    118 O         -1.1393  -15.9946  -56.0113 O.2       21 UNK        -0.5000 
    119 N         -1.5039  -17.5732  -54.4204 N.am      22 UNK        -0.5000 
    120 CA        -0.3189  -18.4223  -54.6095 C.3       22 UNK         0.1400 
    121 C         -0.3498  -19.2893  -55.9065 C.2       22 UNK         0.5000 
    122 N         -1.4781  -19.4295  -56.5944 N.am      22 UNK        -0.7600 
    123 O          0.6626  -19.8705  -56.2884 O.2       22 UNK        -0.5000 
    124 C124        1.0340  -17.6758  -54.4233 C.3       23 UNK        -0.0398 
    125 S125        1.1390  -16.6137  -52.9386 S.3       23 UNK        -0.2404 
    126 C126        1.0478  -17.8196  -51.5773 C.3       23 UNK        -0.0205 
    127 H127       -2.4412  -10.9796  -45.2872 H         1 UNK         0.0600 
    128 H128       -1.1043  -11.1853  -44.1552 H         1 UNK         0.0600 
    129 H129       -2.0728  -12.5811  -44.6452 H         1 UNK         0.0600 
    130 H130       -1.9278  -10.9948  -47.4307 H         1 UNK         0.3000 
    131 H131       -0.8918  -11.0695  -49.3579 H         1 UNK         0.0600 
    132 H132        0.2208  -13.7716  -48.4780 H         1 UNK         0.0800 
    133 H133        0.0767  -13.2160  -50.1248 H         1 UNK         0.0800 
    134 H134       -2.9190  -15.4823  -47.8270 H         1 UNK         0.0800 
    135 H135       -1.2038  -15.2939  -47.5828 H         1 UNK         0.0800 
    136 H136        0.2351  -15.8608  -49.8867 H         1 UNK         0.1150 
    137 H137       -1.0635  -19.5737  -51.5873 H         1 UNK         0.1150 
    138 H138       -3.5832  -17.4883  -48.8227 H         1 UNK         0.1150 
    139 H139       -4.2239  -19.6453  -49.5032 H         1 UNK         0.0800 
    140 H140       -3.9846  -19.7427  -51.2231 H         1 UNK         0.0800 
    141 H141       -2.4724  -20.5965  -47.7938 H         1 UNK         0.0800 
    142 H142       -0.9934  -20.5463  -48.7135 H         1 UNK         0.0800 
    143 H143       -0.8531  -23.0840  -48.5562 H         1 UNK         0.0600 
    144 H144       -0.1486  -21.1747  -46.6202 H         1 UNK         0.3000 
    145 H145        1.6193  -23.3430  -44.3721 H         1 UNK         0.0600 
    146 H146        3.3316  -21.6217  -44.8682 H         1 UNK         0.0600 
    147 H147        2.4349  -21.0956  -46.2902 H         1 UNK         0.0600 
    148 H148        3.1443  -22.7046  -46.2398 H         1 UNK         0.0600 
    149 H149        1.1027  -20.5554  -44.2314 H         1 UNK         0.3000 
    150 H150       -1.9916  -20.7595  -42.4038 H         1 UNK         0.0600 
    151 H151       -0.1045  -20.9250  -40.7785 H         1 UNK         0.0600 
    152 H152       -0.6552  -19.2640  -40.9459 H         1 UNK         0.0600 
    153 H153        0.8348  -19.7811  -41.7300 H         1 UNK         0.0600 
    154 H154       -0.5838  -18.4984  -43.3529 H         1 UNK         0.3000 
    155 H155       -2.1340  -18.2735  -46.5877 H         1 UNK         0.0600 
    156 H156       -2.3412  -16.7075  -43.9601 H         1 UNK         0.0600 
    157 H157       -3.6469  -17.1474  -45.0442 H         1 UNK         0.0600 
    158 H158       -2.4511  -15.9647  -45.5485 H         1 UNK         0.0600 
    159 H159       -0.0847  -16.7454  -45.3073 H         1 UNK         0.3000 
    160 H160        2.7098  -18.5594  -46.5833 H         1 UNK         0.0600 
    161 H161        1.5156  -15.8524  -47.3957 H         1 UNK         0.0600 
    162 H162        1.9796  -17.1495  -48.4888 H         1 UNK         0.0600 
    163 H163        3.2109  -16.3240  -47.5535 H         1 UNK         0.0600 
    164 H164        2.4639  -16.1321  -45.0820 H         1 UNK         0.3000 
    165 H165        2.3393  -17.5771  -41.8366 H         1 UNK         0.0600 
    166 H166        4.2943  -16.0198  -41.5871 H         1 UNK         0.0600 
    167 H167        4.7472  -17.5399  -42.3453 H         1 UNK         0.0600 
    168 H168        4.5694  -16.0935  -43.3273 H         1 UNK         0.0600 
    169 H169        2.3737  -14.8802  -42.8474 H         1 UNK         0.3000 
    170 H170       -0.6223  -14.4743  -43.9106 H         1 UNK         0.0600 
    171 H171       -2.1422  -15.0332  -42.0806 H         1 UNK         0.0600 
    172 H172       -1.1011  -14.2633  -40.8970 H         1 UNK         0.0600 
    173 H173       -1.9238  -13.2924  -42.1178 H         1 UNK         0.0600 
    174 H174        0.7937  -12.8176  -43.8257 H         1 UNK         0.3000 
    175 H175        1.5911  -10.6044  -42.1831 H         1 UNK         0.0600 
    176 H176        4.0104  -12.1628  -41.1272 H         1 UNK         0.0600 
    177 H177        3.9818  -10.4290  -41.4450 H         1 UNK         0.0600 
    178 H178        2.9580  -11.1088  -40.1924 H         1 UNK         0.0600 
    179 H179        2.5790  -10.7467  -44.1710 H         1 UNK         0.3000 
    180 H180        5.0178  -12.0746  -45.5684 H         1 UNK         0.0600 
    181 H181        4.1380  -13.5695  -47.3914 H         1 UNK         0.0600 
    182 H182        2.7973  -14.0375  -46.3496 H         1 UNK         0.0600 
    183 H183        4.4507  -14.4682  -45.9155 H         1 UNK         0.0600 
    184 H184        2.1661  -11.5593  -46.3225 H         1 UNK         0.3000 
    185 H185        2.3476   -8.5466  -46.8567 H         1 UNK         0.0600 
    186 H186        3.4799   -9.4087  -49.5685 H         1 UNK         0.0600 
    187 H187        2.3923   -8.0436  -49.3173 H         1 UNK         0.0600 
    188 H188        3.9941   -8.0361  -48.6008 H         1 UNK         0.0600 
    189 H189        0.5091   -9.6728  -47.3192 H         1 UNK         0.3000 
    190 H190       -2.6503  -22.0403  -45.6112 H         1 UNK         0.3000 
    191 H191       -4.8968  -23.7245  -45.9323 H         1 UNK         0.0600 
    192 H192       -4.8472  -21.8101  -44.3749 H         1 UNK         0.0600 
    193 H193       -3.6269  -22.6060  -43.3835 H         1 UNK         0.0600 
    194 H194       -5.2469  -23.2829  -43.5036 H         1 UNK         0.0600 
    195 H195       -1.7343  -24.3669  -44.4030 H         1 UNK         0.3000 
    196 H196       -2.4491  -26.9732  -43.4049 H         1 UNK         0.0600 
    197 H197       -0.6782  -25.6258  -42.3503 H         1 UNK         0.0600 
    198 H198        0.2775  -25.6437  -43.8286 H         1 UNK         0.0600 
    199 H199        0.0003  -27.1364  -42.9384 H         1 UNK         0.0600 
    200 H200       -0.3861  -25.9187  -46.1886 H         1 UNK         0.3000 
    201 H201        0.0967  -28.6931  -46.9249 H         1 UNK         0.0600 
    202 H202        1.8941  -26.9701  -46.9129 H         1 UNK         0.0600 
    203 H203        1.0644  -26.0800  -48.1886 H         1 UNK         0.0600 
    204 H204        1.7024  -27.6880  -48.5055 H         1 UNK         0.0600 
    205 H205       -1.8408  -26.0063  -48.2828 H         1 UNK         0.3000 
    206 H206       -2.4926  -27.6635  -50.6961 H         1 UNK         0.0600 
    207 H207       -2.3827  -24.6158  -50.3920 H         1 UNK         0.0600 
    208 H208       -1.1263  -25.6019  -51.1350 H         1 UNK         0.0600 
    209 H209       -2.7187  -25.5125  -51.8656 H         1 UNK         0.0600 
    210 H210       -3.8179  -26.9721  -47.8108 H         1 UNK         0.3000 
    211 H211       -5.8408  -26.7813  -46.9023 H         1 UNK         0.0600 
    212 H212       -6.9474  -27.8783  -49.5377 H         1 UNK         0.0600 
    213 H213       -7.7391  -27.9181  -47.9686 H         1 UNK         0.0600 
    214 H214       -6.2824  -28.8605  -48.2329 H         1 UNK         0.0600 
    215 H215       -4.7438  -24.4975  -48.3376 H         1 UNK         0.3000 
    216 H216       -5.1127  -22.4148  -48.8834 H         1 UNK         0.0600 
    217 H217       -7.0916  -21.1891  -48.1326 H         1 UNK         0.0600 
    218 H218       -6.5975  -22.3094  -46.8787 H         1 UNK         0.0600 
    219 H219       -7.9906  -22.6786  -47.8948 H         1 UNK         0.0600 
    220 H220       -5.9881  -24.7651  -50.7895 H         1 UNK         0.3000 
    221 H221       -7.9364  -23.5453  -52.5448 H         1 UNK         0.0600 
    222 H222       -6.1472  -25.9868  -52.9992 H         1 UNK         0.0600 
    223 H223       -7.7172  -26.0240  -52.1960 H         1 UNK         0.0600 
    224 H224       -7.6028  -25.5688  -53.8899 H         1 UNK         0.0600 
    225 H225       -4.4524  -23.4180  -52.3400 H         1 UNK         0.3000 
    226 H226       -3.9829  -22.6278  -55.1190 H         1 UNK         0.0600 
    227 H227       -2.3069  -23.9805  -53.9050 H         1 UNK         0.0600 
    228 H228       -1.6287  -22.4223  -54.3456 H         1 UNK         0.0600 
    229 H229       -2.1268  -22.7207  -52.6856 H         1 UNK         0.0600 
    230 H230       -5.8450  -20.9787  -54.4998 H         1 UNK         0.3000 
    231 H231       -5.4228  -18.6529  -53.0349 H         1 UNK         0.0600 
    232 H232       -7.2993  -17.7366  -54.4234 H         1 UNK         0.0600 
    233 H233       -7.6295  -19.3800  -53.8961 H         1 UNK         0.0600 
    234 H234       -7.1181  -19.0717  -55.5559 H         1 UNK         0.0600 
    235 H235       -4.5332  -16.6918  -53.3685 H         1 UNK         0.3000 
    236 H236       -3.0713  -15.1693  -54.0137 H         1 UNK         0.0600 
    237 H237       -3.9632  -15.7580  -56.8865 H         1 UNK         0.0600 
    238 H238       -4.8078  -14.6936  -55.7631 H         1 UNK         0.0600 
    239 H239       -3.1903  -14.2879  -56.3106 H         1 UNK         0.0600 
    240 H240       -2.1724  -17.9366  -53.7549 H         1 UNK         0.3000 
    241 H241       -0.3813  -19.1593  -53.8104 H         1 UNK         0.0600 
    242 H242       -1.4804  -19.9962  -57.4270 H         1 UNK         0.3800 
    243 H243       -2.3352  -18.9777  -56.2940 H         1 UNK         0.3800 
    244 H244        1.2345  -17.0461  -55.2912 H         1 UNK         0.0800 
    245 H245        1.8567  -18.3913  -54.3812 H         1 UNK         0.0800 
    246 H246        1.8662  -17.6222  -50.8844 H         1 UNK         0.0800 
    247 H247        1.2097  -18.8319  -51.9499 H         1 UNK         0.0800 
@<TRIPOS>BOND
     1    1    2 1    
     2    1  127 1    
     3    1  128 1    
     4    1  129 1    
     5    2    3 2    
     6    2    4 am   BACKBONE|DICT|INTERRES
     7    4    5 1    
     8    4  130 1    
     9    5    6 1    
    10    5   65 1    
    11    5  131 1    
    12    6    7 1    
    13    6  132 1    
    14    6  133 1    
    15    7    8 1    
    16    8    9 1    
    17    8  134 1    
    18    8  135 1    
    19    9   10 ar   
    20    9   14 ar   
    21   10   11 ar   
    22   10  136 1    
    23   11   12 ar   
    24   11  126 1    
    25   12   13 ar   
    26   12  137 1    
    27   13   14 ar   
    28   13   15 1    
    29   14  138 1    
    30   15   16 1    
    31   15  139 1    
    32   15  140 1    
    33   16   17 1    
    34   17   18 1    
    35   17  141 1    
    36   17  142 1    
    37   18   19 1    
    38   18   67 1    
    39   18  143 1    
    40   19   20 am   BACKBONE|DICT|INTERRES
    41   19  144 1    
    42   20   21 2    
    43   20   22 1    
    44   22   23 1    
    45   22   24 1    
    46   22  145 1    
    47   23  146 1    
    48   23  147 1    
    49   23  148 1    
    50   24   25 am   BACKBONE|DICT|INTERRES
    51   24  149 1    
    52   25   26 2    
    53   25   27 1    
    54   27   28 1    
    55   27   29 1    
    56   27  150 1    
    57   28  151 1    
    58   28  152 1    
    59   28  153 1    
    60   29   30 am   BACKBONE|DICT|INTERRES
    61   29  154 1    
    62   30   31 2    
    63   30   32 1    
    64   32   33 1    
    65   32   34 1    
    66   32  155 1    
    67   33  156 1    
    68   33  157 1    
    69   33  158 1    
    70   34   35 am   BACKBONE|DICT|INTERRES
    71   34  159 1    
    72   35   36 2    
    73   35   37 1    
    74   37   38 1    
    75   37   39 1    
    76   37  160 1    
    77   38  161 1    
    78   38  162 1    
    79   38  163 1    
    80   39   40 am   BACKBONE|DICT|INTERRES
    81   39  164 1    
    82   40   41 2    
    83   40   42 1    
    84   42   43 1    
    85   42   44 1    
    86   42  165 1    
    87   43  166 1    
    88   43  167 1    
    89   43  168 1    
    90   44   45 am   BACKBONE|DICT|INTERRES
    91   44  169 1    
    92   45   46 2    
    93   45   47 1    
    94   47   48 1    
    95   47   49 1    
    96   47  170 1    
    97   48  171 1    
    98   48  172 1    
    99   48  173 1    
   100   49   50 am   BACKBONE|DICT|INTERRES
   101   49  174 1    
   102   50   51 2    
   103   50   52 1    
   104   52   53 1    
   105   52   54 1    
   106   52  175 1    
   107   53  176 1    
   108   53  177 1    
   109   53  178 1    
   110   54   55 am   BACKBONE|DICT|INTERRES
   111   54  179 1    
   112   55   56 2    
   113   55   57 1    
   114   57   58 1    
   115   57   59 1    
   116   57  180 1    
   117   58  181 1    
   118   58  182 1    
   119   58  183 1    
   120   59   60 am   BACKBONE|DICT|INTERRES
   121   59  184 1    
   122   60   61 2    
   123   60   62 1    
   124   62   63 1    
   125   62   64 1    
   126   62  185 1    
   127   63  186 1    
   128   63  187 1    
   129   63  188 1    
   130   64   65 am   BACKBONE|DICT|INTERRES
   131   64  189 1    
   132   65   66 2    
   133   67   68 2    
   134   67   69 am   BACKBONE|DICT|INTERRES
   135   69   70 1    
   136   69  190 1    
   137   70   71 1    
   138   70   72 1    
   139   70  191 1    
   140   71  192 1    
   141   71  193 1    
   142   71  194 1    
   143   72   73 2    
   144   72   74 am   BACKBONE|DICT|INTERRES
   145   74   75 1    
   146   74  195 1    
   147   75   76 1    
   148   75   77 1    
   149   75  196 1    
   150   76  197 1    
   151   76  198 1    
   152   76  199 1    
   153   77   78 2    
   154   77   79 am   BACKBONE|DICT|INTERRES
   155   79   80 1    
   156   79  200 1    
   157   80   81 1    
   158   80   82 1    
   159   80  201 1    
   160   81  202 1    
   161   81  203 1    
   162   81  204 1    
   163   82   83 2    
   164   82   84 am   BACKBONE|DICT|INTERRES
   165   84   85 1    
   166   84  205 1    
   167   85   86 1    
   168   85   87 1    
   169   85  206 1    
   170   86  207 1    
   171   86  208 1    
   172   86  209 1    
   173   87   88 2    
   174   87   89 am   BACKBONE|DICT|INTERRES
   175   89   90 1    
   176   89  210 1    
   177   90   91 1    
   178   90   92 1    
   179   90  211 1    
   180   91  212 1    
   181   91  213 1    
   182   91  214 1    
   183   92   93 2    
   184   92   94 am   BACKBONE|DICT|INTERRES
   185   94   95 1    
   186   94  215 1    
   187   95   96 1    
   188   95   97 1    
   189   95  216 1    
   190   96  217 1    
   191   96  218 1    
   192   96  219 1    
   193   97   98 2    
   194   97   99 am   BACKBONE|DICT|INTERRES
   195   99  100 1    
   196   99  220 1    
   197  100  101 1    
   198  100  102 1    
   199  100  221 1    
   200  101  222 1    
   201  101  223 1    
   202  101  224 1    
   203  102  103 2    
   204  102  104 am   BACKBONE|DICT|INTERRES
   205  104  105 1    
   206  104  225 1    
   207  105  106 1    
   208  105  107 1    
   209  105  226 1    
   210  106  227 1    
   211  106  228 1    
   212  106  229 1    
   213  107  108 2    
   214  107  109 am   BACKBONE|DICT|INTERRES
   215  109  110 1    
   216  109  230 1    
   217  110  111 1    
   218  110  112 1    
   219  110  231 1    
   220  111  232 1    
   221  111  233 1    
   222  111  234 1    
   223  112  113 2    
   224  112  114 am   BACKBONE|DICT|INTERRES
   225  114  115 1    
   226  114  235 1    
   227  115  116 1    
   228  115  117 1    
   229  115  236 1    
   230  116  237 1    
   231  116  238 1    
   232  116  239 1    
   233  117  118 2    
   234  117  119 am   BACKBONE|DICT|INTERRES
   235  119  120 1    
   236  119  240 1    
   237  120  121 1    
   238  120  124 1    
   239  120  241 1    
   240  121  122 am   BACKBONE|DICT|INTERRES
   241  121  123 2    
   242  122  242 1    
   243  122  243 1    
   244  124  125 1    
   245  124  244 1    
   246  124  245 1    
   247  125  126 1    
   248  126  246 1    
   249  126  247 1    
@<TRIPOS>SUBSTRUCTURE
     1 UNK         1 GROUP             0       ****    0 ROOT    
