@<TRIPOS>MOLECULE
3R540
247   249    1
SMALL
USER_CHARGES


@<TRIPOS>ATOM
      1 CA         -2.6643  -11.3915  -43.4339 C.3       0 UNK        -0.1800 
      2 C          -1.5834  -11.7011  -44.4600 C.2       0 UNK         0.5000 
      3 O          -0.4036  -11.7036  -44.1137 O.2       0 UNK        -0.5000 
      4 N          -1.9887  -11.9718  -45.7092 N.am      1 UNK        -0.5000 
      5 CA         -1.1398  -12.2920  -46.8655 C.3       1 UNK         0.1400 
      6 C6         -0.2212  -13.5237  -46.6113 C.3       23 UNK        -0.0398 
      7 S7          0.1277  -14.4828  -48.1249 S.3       23 UNK        -0.2404 
      8 C8         -1.2191  -15.6972  -48.0341 C.3       23 UNK        -0.0205 
      9 C9         -1.3089  -16.5531  -49.2855 C.ar      23 UNK        -0.0193 
     10 C10        -1.9261  -16.0481  -50.4330 C.ar      23 UNK        -0.1150 
     11 C11        -2.0507  -16.8384  -51.5788 C.ar      23 UNK        -0.0193 
     12 C12        -1.5709  -18.1515  -51.5598 C.ar      23 UNK        -0.1150 
     13 C13        -0.9469  -18.6682  -50.4205 C.ar      23 UNK        -0.0193 
     14 C14        -0.8073  -17.8579  -49.2892 C.ar      23 UNK        -0.1150 
     15 C15        -0.4203  -20.0966  -50.4239 C.3       23 UNK        -0.0205 
     16 S16        -1.6844  -21.2846  -49.8635 S.3       23 UNK        -0.2404 
     17 C17        -1.5554  -21.1404  -48.0493 C.3       23 UNK        -0.0398 
     18 CA         -1.1362  -22.4695  -47.3641 C.3       11 UNK         0.1400 
     19 N          -0.1949  -22.2455  -46.2602 N.am      11 UNK        -0.5000 
     20 C           0.4262  -23.2114  -45.5676 C.2       10 UNK         0.5000 
     21 O           0.2974  -24.4110  -45.8030 O.2       10 UNK        -0.5000 
     22 CA          1.2944  -22.7712  -44.3757 C.3       10 UNK         0.1400 
     23 CB          2.6660  -22.2689  -44.8493 C.3       10 UNK        -0.1800 
     24 N           0.6417  -21.7507  -43.5547 N.am      10 UNK        -0.5000 
     25 C          -0.4978  -21.9465  -42.8747 C.2       9 UNK         0.5000 
     26 O          -1.0852  -23.0270  -42.8242 O.2       9 UNK        -0.5000 
     27 CA         -1.1160  -20.7200  -42.1794 C.3       9 UNK         0.1400 
     28 CB         -0.4175  -20.4377  -40.8414 C.3       9 UNK        -0.1800 
     29 N          -1.0807  -19.5201  -43.0155 N.am      9 UNK        -0.5000 
     30 C          -1.6913  -19.3966  -44.2027 C.2       8 UNK         0.5000 
     31 O          -2.3930  -20.2706  -44.7115 O.2       8 UNK        -0.5000 
     32 CA         -1.4159  -18.1017  -44.9845 C.3       8 UNK         0.1400 
     33 CB         -2.2681  -16.9384  -44.4518 C.3       8 UNK        -0.1800 
     34 N           0.0031  -17.7392  -44.9621 N.am      8 UNK        -0.5000 
     35 C           0.9766  -18.4723  -45.5234 C.2       7 UNK         0.5000 
     36 O           0.7735  -19.5011  -46.1647 O.2       7 UNK        -0.5000 
     37 CA          2.4217  -18.0109  -45.2850 C.3       7 UNK         0.1400 
     38 CB          2.8199  -16.9269  -46.2981 C.3       7 UNK        -0.1800 
     39 N           2.6091  -17.5240  -43.9183 N.am      7 UNK        -0.5000 
     40 C           2.6292  -18.3215  -42.8386 C.2       6 UNK         0.5000 
     41 O           2.5359  -19.5472  -42.8986 O.2       6 UNK        -0.5000 
     42 CA          2.7249  -17.6422  -41.4578 C.3       6 UNK         0.1400 
     43 CB          4.1941  -17.4416  -41.0583 C.3       6 UNK        -0.1800 
     44 N           2.0327  -16.3549  -41.4025 N.am      6 UNK        -0.5000 
     45 C           0.7165  -16.1835  -41.5880 C.2       5 UNK         0.5000 
     46 O          -0.0752  -17.1148  -41.7311 O.2       5 UNK        -0.5000 
     47 CA          0.2076  -14.7312  -41.6935 C.3       5 UNK         0.1400 
     48 CB         -0.3867  -14.2685  -40.3558 C.3       5 UNK        -0.1800 
     49 N           1.2250  -13.7666  -42.1295 N.am      5 UNK        -0.5000 
     50 C           1.8765  -13.8149  -43.2990 C.2       4 UNK         0.5000 
     51 O           1.7293  -14.7216  -44.1240 O.2       4 UNK        -0.5000 
     52 CA          2.8922  -12.6969  -43.5705 C.3       4 UNK         0.1400 
     53 CB          4.1406  -12.8641  -42.6834 C.3       4 UNK        -0.1800 
     54 N           3.2725  -12.7533  -44.9774 N.am      4 UNK        -0.5000 
     55 C           3.8187  -11.7629  -45.6899 C.2       3 UNK         0.5000 
     56 O           4.0941  -10.6567  -45.2240 O.2       3 UNK        -0.5000 
     57 CA          4.0920  -12.0526  -47.1779 C.3       3 UNK         0.1400 
     58 CB          4.4563  -13.5249  -47.4537 C.3       3 UNK        -0.1800 
     59 N           2.9174  -11.7028  -47.9691 N.am      3 UNK        -0.5000 
     60 C           2.6259  -10.4803  -48.4361 C.2       2 UNK         0.5000 
     61 O           3.3732   -9.5068  -48.3369 O.2       2 UNK        -0.5000 
     62 CA          1.2573  -10.3222  -49.1293 C.3       2 UNK         0.1400 
     63 CB          1.3840  -10.5719  -50.6400 C.3       2 UNK        -0.1800 
     64 N           0.2623  -11.2414  -48.5730 N.am      2 UNK        -0.5000 
     65 C          -0.3396  -11.0739  -47.3885 C.2       1 UNK         0.5000 
     66 O          -0.2647  -10.0288  -46.7378 O.2       1 UNK        -0.5000 
     67 C          -2.3699  -23.2782  -46.9096 C.2       11 UNK         0.5000 
     68 O          -2.7716  -24.2279  -47.5875 O.2       11 UNK        -0.5000 
     69 N          -2.9333  -22.8993  -45.7533 N.am      12 UNK        -0.5000 
     70 CA         -4.0528  -23.5755  -45.1006 C.3       12 UNK         0.1400 
     71 CB         -4.5259  -22.7526  -43.8938 C.3       12 UNK        -0.1800 
     72 C          -3.7171  -25.0197  -44.6908 C.2       12 UNK         0.5000 
     73 O          -4.5195  -25.9187  -44.9392 O.2       12 UNK        -0.5000 
     74 N          -2.5301  -25.2237  -44.1066 N.am      13 UNK        -0.5000 
     75 CA         -2.0274  -26.5378  -43.7092 C.3       13 UNK         0.1400 
     76 CB         -0.7753  -26.3630  -42.8361 C.3       13 UNK        -0.1800 
     77 C          -1.7305  -27.4581  -44.9080 C.2       13 UNK         0.5000 
     78 O          -2.0656  -28.6424  -44.8591 O.2       13 UNK        -0.5000 
     79 N          -1.0967  -26.9055  -45.9504 N.am      14 UNK        -0.5000 
     80 CA         -0.6401  -27.6518  -47.1200 C.3       14 UNK         0.1400 
     81 CB          0.4531  -26.8505  -47.8451 C.3       14 UNK        -0.1800 
     82 C          -1.7665  -28.0149  -48.1003 C.2       14 UNK         0.5000 
     83 O          -1.8066  -29.1549  -48.5661 O.2       14 UNK        -0.5000 
     84 N          -2.6207  -27.0391  -48.4367 N.am      15 UNK        -0.5000 
     85 CA         -3.5154  -27.1192  -49.5959 C.3       15 UNK         0.1400 
     86 CB         -2.9277  -26.2278  -50.7033 C.3       15 UNK        -0.1800 
     87 C          -4.9649  -26.7029  -49.3005 C.2       15 UNK         0.5000 
     88 O          -5.7798  -26.7303  -50.2232 O.2       15 UNK        -0.5000 
     89 N          -5.2645  -26.2998  -48.0560 N.am      16 UNK        -0.5000 
     90 CA         -6.5072  -25.6291  -47.6441 C.3       16 UNK         0.1400 
     91 CB         -7.7411  -26.5406  -47.8198 C.3       16 UNK        -0.1800 
     92 C          -6.6607  -24.2413  -48.3080 C.2       16 UNK         0.5000 
     93 O          -7.7750  -23.8308  -48.6372 O.2       16 UNK        -0.5000 
     94 N          -5.5190  -23.5521  -48.4610 N.am      17 UNK        -0.5000 
     95 CA         -5.3047  -22.2432  -49.0820 C.3       17 UNK         0.1400 
     96 CB         -6.1820  -21.1544  -48.4298 C.3       17 UNK        -0.1800 
     97 C          -5.4241  -22.2618  -50.6194 C.2       17 UNK         0.5000 
     98 O          -5.8178  -23.2685  -51.2110 O.2       17 UNK        -0.5000 
     99 N          -5.0516  -21.1301  -51.2354 N.am      18 UNK        -0.5000 
    100 CA        -5.0995  -20.8501  -52.6753 C.3       18 UNK         0.1400 
    101 CB        -6.5602  -20.8109  -53.1726 C.3       18 UNK        -0.1800 
    102 C         -4.1876  -21.7617  -53.5259 C.2       18 UNK         0.5000 
    103 O         -4.5503  -22.1241  -54.6463 O.2       18 UNK        -0.5000 
    104 N         -3.0099  -22.1094  -52.9853 N.am      19 UNK        -0.5000 
    105 CA        -2.0026  -22.9272  -53.6706 C.3       19 UNK         0.1400 
    106 CB        -1.0269  -23.5071  -52.6348 C.3       19 UNK        -0.1800 
    107 C         -1.2161  -22.1473  -54.7423 C.2       19 UNK         0.5000 
    108 O         -0.7057  -22.7594  -55.6818 O.2       19 UNK        -0.5000 
    109 N         -1.1104  -20.8238  -54.5652 N.am      20 UNK        -0.5000 
    110 CA        -0.4072  -19.9056  -55.4604 C.3       20 UNK         0.1400 
    111 CB         0.3470  -18.8613  -54.6127 C.3       20 UNK        -0.1800 
    112 C         -1.3825  -19.2670  -56.4712 C.2       20 UNK         0.5000 
    113 O         -2.4430  -19.8299  -56.7532 O.2       20 UNK        -0.5000 
    114 N         -1.0097  -18.0930  -57.0004 N.am      21 UNK        -0.5000 
    115 CA        -1.7171  -17.3475  -58.0485 C.3       21 UNK         0.1400 
    116 CB        -0.9012  -16.0926  -58.3962 C.3       21 UNK        -0.1800 
    117 C         -3.1754  -16.9638  -57.7217 C.2       21 UNK         0.5000 
    118 O         -3.9609  -16.7599  -58.6486 O.2       21 UNK        -0.5000 
    119 N         -3.5176  -16.8853  -56.4288 N.am      22 UNK        -0.5000 
    120 CA        -4.8958  -16.7029  -55.9480 C.3       22 UNK         0.1400 
    121 C         -5.7916  -17.9771  -56.0368 C.2       22 UNK         0.5000 
    122 N         -5.2594  -19.1532  -56.3515 N.am      22 UNK        -0.7600 
    123 O         -6.9993  -17.8913  -55.8321 O.2       22 UNK        -0.5000 
    124 C124       -4.9382  -16.0370  -54.5477 C.3       23 UNK        -0.0398 
    125 S125       -4.2878  -17.0677  -53.1854 S.3       23 UNK        -0.2404 
    126 C126       -2.6933  -16.2695  -52.8359 C.3       23 UNK        -0.0205 
    127 H127       -3.6639  -11.4516  -43.8650 H         1 UNK         0.0600 
    128 H128       -2.5249  -10.3868  -43.0350 H         1 UNK         0.0600 
    129 H129       -2.6074  -12.0990  -42.6064 H         1 UNK         0.0600 
    130 H130       -2.9765  -11.9166  -45.9143 H         1 UNK         0.3000 
    131 H131       -1.8494  -12.5506  -47.6532 H         1 UNK         0.0600 
    132 H132        0.7240  -13.2193  -46.1618 H         1 UNK         0.0800 
    133 H133       -0.6751  -14.1964  -45.8826 H         1 UNK         0.0800 
    134 H134       -1.0569  -16.3264  -47.1622 H         1 UNK         0.0800 
    135 H135       -2.1693  -15.1846  -47.8762 H         1 UNK         0.0800 
    136 H136       -2.3071  -15.0365  -50.4311 H         1 UNK         0.1150 
    137 H137       -1.6883  -18.7726  -52.4340 H         1 UNK         0.1150 
    138 H138       -0.3183  -18.2430  -48.4065 H         1 UNK         0.1150 
    139 H139       -0.1083  -20.3671  -51.4335 H         1 UNK         0.0800 
    140 H140        0.4744  -20.1779  -49.8045 H         1 UNK         0.0800 
    141 H141       -2.4901  -20.7416  -47.6503 H         1 UNK         0.0800 
    142 H142       -0.8194  -20.3712  -47.8386 H         1 UNK         0.0800 
    143 H143       -0.6002  -23.0852  -48.0898 H         1 UNK         0.0600 
    144 H144        0.0059  -21.2775  -46.0255 H         1 UNK         0.3000 
    145 H145        1.4577  -23.6477  -43.7453 H         1 UNK         0.0600 
    146 H146        3.3115  -22.0312  -44.0037 H         1 UNK         0.0600 
    147 H147        3.1753  -23.0288  -45.4434 H         1 UNK         0.0600 
    148 H148        2.5798  -21.3744  -45.4656 H         1 UNK         0.0600 
    149 H149        1.0979  -20.8459  -43.5041 H         1 UNK         0.3000 
    150 H150       -2.1639  -20.9477  -41.9742 H         1 UNK         0.0600 
    151 H151       -0.4712  -21.3056  -40.1830 H         1 UNK         0.0600 
    152 H152       -0.8865  -19.6030  -40.3200 H         1 UNK         0.0600 
    153 H153        0.6361  -20.1954  -40.9798 H         1 UNK         0.0600 
    154 H154       -0.5629  -18.7251  -42.6506 H         1 UNK         0.3000 
    155 H155       -1.7006  -18.2836  -46.0228 H         1 UNK         0.0600 
    156 H156       -2.0612  -16.7268  -43.4033 H         1 UNK         0.0600 
    157 H157       -3.3306  -17.1716  -44.5313 H         1 UNK         0.0600 
    158 H158       -2.0957  -16.0226  -45.0156 H         1 UNK         0.0600 
    159 H159        0.2640  -16.9204  -44.4313 H         1 UNK         0.3000 
    160 H160        3.0804  -18.8689  -45.4352 H         1 UNK         0.0600 
    161 H161        2.1399  -16.0758  -46.2735 H         1 UNK         0.0600 
    162 H162        2.7994  -17.3227  -47.3142 H         1 UNK         0.0600 
    163 H163        3.8291  -16.5600  -46.1112 H         1 UNK         0.0600 
    164 H164        2.6062  -16.5177  -43.7953 H         1 UNK         0.3000 
    165 H165        2.2579  -18.3058  -40.7274 H         1 UNK         0.0600 
    166 H166        4.2771  -17.0347  -40.0504 H         1 UNK         0.0600 
    167 H167        4.7344  -18.3892  -41.0705 H         1 UNK         0.0600 
    168 H168        4.7077  -16.7617  -41.7393 H         1 UNK         0.0600 
    169 H169        2.6076  -15.5336  -41.2896 H         1 UNK         0.3000 
    170 H170       -0.5889  -14.7238  -42.4406 H         1 UNK         0.0600 
    171 H171       -1.1660  -14.9525  -40.0167 H         1 UNK         0.0600 
    172 H172        0.3719  -14.2206  -39.5737 H         1 UNK         0.0600 
    173 H173       -0.8406  -13.2814  -40.4467 H         1 UNK         0.0600 
    174 H174        1.3997  -12.9906  -41.5076 H         1 UNK         0.3000 
    175 H175        2.4104  -11.7387  -43.3647 H         1 UNK         0.0600 
    176 H176        4.6381  -13.8172  -42.8678 H         1 UNK         0.0600 
    177 H177        4.8653  -12.0701  -42.8639 H         1 UNK         0.0600 
    178 H178        3.8829  -12.8259  -41.6245 H         1 UNK         0.0600 
    179 H179        3.0304  -13.6281  -45.4248 H         1 UNK         0.3000 
    180 H180        4.9398  -11.4358  -47.4838 H         1 UNK         0.0600 
    181 H181        3.6121  -14.1965  -47.2952 H         1 UNK         0.0600 
    182 H182        5.2729  -13.8559  -46.8107 H         1 UNK         0.0600 
    183 H183        4.7860  -13.6545  -48.4847 H         1 UNK         0.0600 
    184 H184        2.2351  -12.4338  -48.1010 H         1 UNK         0.3000 
    185 H185        0.9185   -9.2948  -48.9793 H         1 UNK         0.0600 
    186 H186        2.1064   -9.8888  -51.0885 H         1 UNK         0.0600 
    187 H187        1.7156  -11.5885  -50.8553 H         1 UNK         0.0600 
    188 H188        0.4315  -10.4149  -51.1465 H         1 UNK         0.0600 
    189 H189        0.1324  -12.1159  -49.0638 H         1 UNK         0.3000 
    190 H190       -2.5703  -22.0744  -45.2814 H         1 UNK         0.3000 
    191 H191       -4.8773  -23.6152  -45.8116 H         1 UNK         0.0600 
    192 H192       -4.8367  -21.7528  -44.1977 H         1 UNK         0.0600 
    193 H193       -5.3804  -23.2260  -43.4090 H         1 UNK         0.0600 
    194 H194       -3.7418  -22.6443  -43.1448 H         1 UNK         0.0600 
    195 H195       -1.9415  -24.4240  -43.8908 H         1 UNK         0.3000 
    196 H196       -2.7958  -27.0216  -43.1025 H         1 UNK         0.0600 
    197 H197       -0.3852  -27.3287  -42.5125 H         1 UNK         0.0600 
    198 H198       -0.9987  -25.7849  -41.9393 H         1 UNK         0.0600 
    199 H199        0.0221  -25.8488  -43.3738 H         1 UNK         0.0600 
    200 H200       -0.8047  -25.9328  -45.8913 H         1 UNK         0.3000 
    201 H201       -0.1891  -28.5847  -46.7744 H         1 UNK         0.0600 
    202 H202        1.3056  -26.6670  -47.1909 H         1 UNK         0.0600 
    203 H203        0.0828  -25.8841  -48.1905 H         1 UNK         0.0600 
    204 H204        0.8233  -27.3915  -48.7168 H         1 UNK         0.0600 
    205 H205       -2.5208  -26.1215  -48.0111 H         1 UNK         0.3000 
    206 H206       -3.5699  -28.1415  -49.9750 H         1 UNK         0.0600 
    207 H207       -1.9076  -26.5209  -50.9519 H         1 UNK         0.0600 
    208 H208       -3.5153  -26.2897  -51.6202 H         1 UNK         0.0600 
    209 H209       -2.9137  -25.1823  -50.3928 H         1 UNK         0.0600 
    210 H210       -4.5437  -26.3545  -47.3487 H         1 UNK         0.3000 
    211 H211       -6.4162  -25.4344  -46.5767 H         1 UNK         0.0600 
    212 H212       -7.9910  -26.6985  -48.8689 H         1 UNK         0.0600 
    213 H213       -8.6176  -26.1001  -47.3434 H         1 UNK         0.0600 
    214 H214       -7.5793  -27.5158  -47.3608 H         1 UNK         0.0600 
    215 H215       -4.6613  -24.0219  -48.1907 H         1 UNK         0.3000 
    216 H216       -4.2697  -21.9966  -48.8584 H         1 UNK         0.0600 
    217 H217       -5.8674  -20.1569  -48.7375 H         1 UNK         0.0600 
    218 H218       -6.1110  -21.1905  -47.3424 H         1 UNK         0.0600 
    219 H219       -7.2322  -21.2594  -48.7027 H         1 UNK         0.0600 
    220 H220       -4.7151  -20.3669  -50.6651 H         1 UNK         0.3000 
    221 H221       -4.6924  -19.8482  -52.7954 H         1 UNK         0.0600 
    222 H222       -7.0293  -21.7942  -53.1335 H         1 UNK         0.0600 
    223 H223       -7.1612  -20.1269  -52.5737 H         1 UNK         0.0600 
    224 H224       -6.6156  -20.4653  -54.2045 H         1 UNK         0.0600 
    225 H225       -2.7907  -21.8038  -52.0469 H         1 UNK         0.3000 
    226 H226       -2.5098  -23.7599  -54.1626 H         1 UNK         0.0600 
    227 H227       -1.5544  -24.0089  -51.8268 H         1 UNK         0.0600 
    228 H228       -0.3633  -24.2400  -53.0951 H         1 UNK         0.0600 
    229 H229       -0.3986  -22.7341  -52.1923 H         1 UNK         0.0600 
    230 H230       -1.6177  -20.4121  -53.7989 H         1 UNK         0.3000 
    231 H231        0.3353  -20.4589  -56.0388 H         1 UNK         0.0600 
    232 H232       -0.3259  -18.1236  -54.1777 H         1 UNK         0.0600 
    233 H233        1.0798  -18.3212  -55.2130 H         1 UNK         0.0600 
    234 H234        0.8964  -19.3341  -53.7981 H         1 UNK         0.0600 
    235 H235       -0.1301  -17.6974  -56.7015 H         1 UNK         0.3000 
    236 H236       -1.7489  -17.9878  -58.9323 H         1 UNK         0.0600 
    237 H237        0.1001  -16.3538  -58.7392 H         1 UNK         0.0600 
    238 H238       -1.3774  -15.5241  -59.1962 H         1 UNK         0.0600 
    239 H239       -0.8008  -15.4285  -57.5367 H         1 UNK         0.0600 
    240 H240       -2.8209  -17.0900  -55.7300 H         1 UNK         0.3000 
    241 H241       -5.3699  -15.9894  -56.6249 H         1 UNK         0.0600 
    242 H242       -5.8532  -19.9642  -56.4088 H         1 UNK         0.3800 
    243 H243       -4.2629  -19.2602  -56.5184 H         1 UNK         0.3800 
    244 H244       -4.3995  -15.0891  -54.5779 H         1 UNK         0.0800 
    245 H245       -5.9667  -15.7720  -54.2973 H         1 UNK         0.0800 
    246 H246       -2.8452  -15.1942  -52.7289 H         1 UNK         0.0800 
    247 H247       -2.0207  -16.4039  -53.6833 H         1 UNK         0.0800 
@<TRIPOS>BOND
     1    1    2 1    
     2    1  127 1    
     3    1  128 1    
     4    1  129 1    
     5    2    3 2    
     6    2    4 am   BACKBONE|DICT|INTERRES
     7    4    5 1    
     8    4  130 1    
     9    5    6 1    
    10    5   65 1    
    11    5  131 1    
    12    6    7 1    
    13    6  132 1    
    14    6  133 1    
    15    7    8 1    
    16    8    9 1    
    17    8  134 1    
    18    8  135 1    
    19    9   10 ar   
    20    9   14 ar   
    21   10   11 ar   
    22   10  136 1    
    23   11   12 ar   
    24   11  126 1    
    25   12   13 ar   
    26   12  137 1    
    27   13   14 ar   
    28   13   15 1    
    29   14  138 1    
    30   15   16 1    
    31   15  139 1    
    32   15  140 1    
    33   16   17 1    
    34   17   18 1    
    35   17  141 1    
    36   17  142 1    
    37   18   19 1    
    38   18   67 1    
    39   18  143 1    
    40   19   20 am   BACKBONE|DICT|INTERRES
    41   19  144 1    
    42   20   21 2    
    43   20   22 1    
    44   22   23 1    
    45   22   24 1    
    46   22  145 1    
    47   23  146 1    
    48   23  147 1    
    49   23  148 1    
    50   24   25 am   BACKBONE|DICT|INTERRES
    51   24  149 1    
    52   25   26 2    
    53   25   27 1    
    54   27   28 1    
    55   27   29 1    
    56   27  150 1    
    57   28  151 1    
    58   28  152 1    
    59   28  153 1    
    60   29   30 am   BACKBONE|DICT|INTERRES
    61   29  154 1    
    62   30   31 2    
    63   30   32 1    
    64   32   33 1    
    65   32   34 1    
    66   32  155 1    
    67   33  156 1    
    68   33  157 1    
    69   33  158 1    
    70   34   35 am   BACKBONE|DICT|INTERRES
    71   34  159 1    
    72   35   36 2    
    73   35   37 1    
    74   37   38 1    
    75   37   39 1    
    76   37  160 1    
    77   38  161 1    
    78   38  162 1    
    79   38  163 1    
    80   39   40 am   BACKBONE|DICT|INTERRES
    81   39  164 1    
    82   40   41 2    
    83   40   42 1    
    84   42   43 1    
    85   42   44 1    
    86   42  165 1    
    87   43  166 1    
    88   43  167 1    
    89   43  168 1    
    90   44   45 am   BACKBONE|DICT|INTERRES
    91   44  169 1    
    92   45   46 2    
    93   45   47 1    
    94   47   48 1    
    95   47   49 1    
    96   47  170 1    
    97   48  171 1    
    98   48  172 1    
    99   48  173 1    
   100   49   50 am   BACKBONE|DICT|INTERRES
   101   49  174 1    
   102   50   51 2    
   103   50   52 1    
   104   52   53 1    
   105   52   54 1    
   106   52  175 1    
   107   53  176 1    
   108   53  177 1    
   109   53  178 1    
   110   54   55 am   BACKBONE|DICT|INTERRES
   111   54  179 1    
   112   55   56 2    
   113   55   57 1    
   114   57   58 1    
   115   57   59 1    
   116   57  180 1    
   117   58  181 1    
   118   58  182 1    
   119   58  183 1    
   120   59   60 am   BACKBONE|DICT|INTERRES
   121   59  184 1    
   122   60   61 2    
   123   60   62 1    
   124   62   63 1    
   125   62   64 1    
   126   62  185 1    
   127   63  186 1    
   128   63  187 1    
   129   63  188 1    
   130   64   65 am   BACKBONE|DICT|INTERRES
   131   64  189 1    
   132   65   66 2    
   133   67   68 2    
   134   67   69 am   BACKBONE|DICT|INTERRES
   135   69   70 1    
   136   69  190 1    
   137   70   71 1    
   138   70   72 1    
   139   70  191 1    
   140   71  192 1    
   141   71  193 1    
   142   71  194 1    
   143   72   73 2    
   144   72   74 am   BACKBONE|DICT|INTERRES
   145   74   75 1    
   146   74  195 1    
   147   75   76 1    
   148   75   77 1    
   149   75  196 1    
   150   76  197 1    
   151   76  198 1    
   152   76  199 1    
   153   77   78 2    
   154   77   79 am   BACKBONE|DICT|INTERRES
   155   79   80 1    
   156   79  200 1    
   157   80   81 1    
   158   80   82 1    
   159   80  201 1    
   160   81  202 1    
   161   81  203 1    
   162   81  204 1    
   163   82   83 2    
   164   82   84 am   BACKBONE|DICT|INTERRES
   165   84   85 1    
   166   84  205 1    
   167   85   86 1    
   168   85   87 1    
   169   85  206 1    
   170   86  207 1    
   171   86  208 1    
   172   86  209 1    
   173   87   88 2    
   174   87   89 am   BACKBONE|DICT|INTERRES
   175   89   90 1    
   176   89  210 1    
   177   90   91 1    
   178   90   92 1    
   179   90  211 1    
   180   91  212 1    
   181   91  213 1    
   182   91  214 1    
   183   92   93 2    
   184   92   94 am   BACKBONE|DICT|INTERRES
   185   94   95 1    
   186   94  215 1    
   187   95   96 1    
   188   95   97 1    
   189   95  216 1    
   190   96  217 1    
   191   96  218 1    
   192   96  219 1    
   193   97   98 2    
   194   97   99 am   BACKBONE|DICT|INTERRES
   195   99  100 1    
   196   99  220 1    
   197  100  101 1    
   198  100  102 1    
   199  100  221 1    
   200  101  222 1    
   201  101  223 1    
   202  101  224 1    
   203  102  103 2    
   204  102  104 am   BACKBONE|DICT|INTERRES
   205  104  105 1    
   206  104  225 1    
   207  105  106 1    
   208  105  107 1    
   209  105  226 1    
   210  106  227 1    
   211  106  228 1    
   212  106  229 1    
   213  107  108 2    
   214  107  109 am   BACKBONE|DICT|INTERRES
   215  109  110 1    
   216  109  230 1    
   217  110  111 1    
   218  110  112 1    
   219  110  231 1    
   220  111  232 1    
   221  111  233 1    
   222  111  234 1    
   223  112  113 2    
   224  112  114 am   BACKBONE|DICT|INTERRES
   225  114  115 1    
   226  114  235 1    
   227  115  116 1    
   228  115  117 1    
   229  115  236 1    
   230  116  237 1    
   231  116  238 1    
   232  116  239 1    
   233  117  118 2    
   234  117  119 am   BACKBONE|DICT|INTERRES
   235  119  120 1    
   236  119  240 1    
   237  120  121 1    
   238  120  124 1    
   239  120  241 1    
   240  121  122 am   BACKBONE|DICT|INTERRES
   241  121  123 2    
   242  122  242 1    
   243  122  243 1    
   244  124  125 1    
   245  124  244 1    
   246  124  245 1    
   247  125  126 1    
   248  126  246 1    
   249  126  247 1    
@<TRIPOS>SUBSTRUCTURE
     1 UNK         1 GROUP             0       ****    0 ROOT    
