@<TRIPOS>MOLECULE
3R540
247   249    1
SMALL
USER_CHARGES


@<TRIPOS>ATOM
      1 CA          0.8649  -10.7987  -43.4010 C.3       0 UNK        -0.1800 
      2 C           1.5413  -11.8585  -44.2580 C.2       0 UNK         0.5000 
      3 O           2.7199  -11.7274  -44.5865 O.2       0 UNK        -0.5000 
      4 N           0.8077  -12.9228  -44.6021 N.am      1 UNK        -0.5000 
      5 CA          1.2517  -14.0335  -45.4594 C.3       1 UNK         0.1400 
      6 C6          0.0638  -14.7368  -46.1670 C.3       23 UNK        -0.0398 
      7 S7         -1.0473  -13.5499  -47.0021 S.3       23 UNK        -0.2404 
      8 C8         -0.4022  -13.5403  -48.7003 C.3       23 UNK        -0.0205 
      9 C9         -0.9191  -14.7239  -49.4993 C.ar      23 UNK        -0.0193 
     10 C10        -2.2447  -14.7447  -49.9388 C.ar      23 UNK        -0.1150 
     11 C11        -2.7331  -15.8255  -50.6775 C.ar      23 UNK        -0.0193 
     12 C12        -1.8825  -16.8946  -50.9791 C.ar      23 UNK        -0.1150 
     13 C13        -0.5482  -16.8718  -50.5604 C.ar      23 UNK        -0.0193 
     14 C14        -0.0742  -15.7879  -49.8168 C.ar      23 UNK        -0.1150 
     15 C15         0.4031  -17.9966  -50.9271 C.3       23 UNK        -0.0205 
     16 S16         0.8192  -19.0103  -49.4788 S.3       23 UNK        -0.2404 
     17 C17        -0.6048  -20.1402  -49.3930 C.3       23 UNK        -0.0398 
     18 CA         -1.3858  -20.0249  -48.0626 C.3       11 UNK         0.1400 
     19 N          -2.1019  -18.7492  -47.9368 N.am      11 UNK        -0.5000 
     20 C          -2.5217  -18.2081  -46.7860 C.2       10 UNK         0.5000 
     21 O          -2.3766  -18.7450  -45.6847 O.2       10 UNK        -0.5000 
     22 CA         -3.2895  -16.8829  -46.8990 C.3       10 UNK         0.1400 
     23 CB         -4.6382  -17.1217  -47.6165 C.3       10 UNK        -0.1800 
     24 N          -3.4987  -16.3438  -45.5557 N.am      10 UNK        -0.5000 
     25 C          -4.0919  -15.1842  -45.2448 C.2       9 UNK         0.5000 
     26 O          -4.4981  -14.3708  -46.0750 O.2       9 UNK        -0.5000 
     27 CA         -4.2894  -14.8875  -43.7474 C.3       9 UNK         0.1400 
     28 CB         -5.4970  -15.6642  -43.1989 C.3       9 UNK        -0.1800 
     29 N          -3.1140  -15.1920  -42.9321 N.am      9 UNK        -0.5000 
     30 C          -2.0050  -14.4412  -42.8904 C.2       8 UNK         0.5000 
     31 O          -1.8347  -13.4317  -43.5733 O.2       8 UNK        -0.5000 
     32 CA         -0.8995  -14.8591  -41.9027 C.3       8 UNK         0.1400 
     33 CB         -0.8645  -13.9047  -40.6995 C.3       8 UNK        -0.1800 
     34 N          -1.0362  -16.2322  -41.4184 N.am      8 UNK        -0.5000 
     35 C          -0.6605  -17.3158  -42.1073 C.2       7 UNK         0.5000 
     36 O          -0.1609  -17.2786  -43.2331 O.2       7 UNK        -0.5000 
     37 CA         -0.9348  -18.6637  -41.4303 C.3       7 UNK         0.1400 
     38 CB         -2.3071  -19.2014  -41.8634 C.3       7 UNK        -0.1800 
     39 N           0.1007  -19.6247  -41.8010 N.am      7 UNK        -0.5000 
     40 C           0.9887  -20.1618  -40.9546 C.2       6 UNK         0.5000 
     41 O           0.9923  -19.9444  -39.7420 O.2       6 UNK        -0.5000 
     42 CA          2.0538  -21.1127  -41.5415 C.3       6 UNK         0.1400 
     43 CB          1.7190  -22.5728  -41.1968 C.3       6 UNK        -0.1800 
     44 N           2.2311  -21.0065  -42.9917 N.am      6 UNK        -0.5000 
     45 C           2.7956  -19.9686  -43.6217 C.2       5 UNK         0.5000 
     46 O           3.2206  -18.9696  -43.0439 O.2       5 UNK        -0.5000 
     47 CA          2.8908  -20.0812  -45.1485 C.3       5 UNK         0.1400 
     48 CB          1.4967  -20.1754  -45.7867 C.3       5 UNK        -0.1800 
     49 N           3.5929  -18.9336  -45.7178 N.am      5 UNK        -0.5000 
     50 C           4.3151  -18.9640  -46.8443 C.2       4 UNK         0.5000 
     51 O           4.5348  -19.9940  -47.4833 O.2       4 UNK        -0.5000 
     52 CA          4.8861  -17.6326  -47.3614 C.3       4 UNK         0.1400 
     53 CB          3.9030  -16.9877  -48.3534 C.3       4 UNK        -0.1800 
     54 N           5.1589  -16.6822  -46.2829 N.am      4 UNK        -0.5000 
     55 C           6.3745  -16.4225  -45.7798 C.2       3 UNK         0.5000 
     56 O           7.3995  -17.0013  -46.1423 O.2       3 UNK        -0.5000 
     57 CA          6.4815  -15.3152  -44.7100 C.3       3 UNK         0.1400 
     58 CB          6.9362  -13.9953  -45.3520 C.3       3 UNK        -0.1800 
     59 N           5.2210  -15.0836  -44.0071 N.am      3 UNK        -0.5000 
     60 C           4.7435  -15.8632  -43.0285 C.2       2 UNK         0.5000 
     61 O           5.3954  -16.7699  -42.5106 O.2       2 UNK        -0.5000 
     62 CA          3.3017  -15.5865  -42.5484 C.3       2 UNK         0.1400 
     63 CB          3.3077  -14.9283  -41.1603 C.3       2 UNK        -0.1800 
     64 N           2.5054  -14.7540  -43.4545 N.am      2 UNK        -0.5000 
     65 C           2.1448  -15.0529  -44.7116 C.2       1 UNK         0.5000 
     66 O           2.5170  -16.0735  -45.2904 O.2       1 UNK        -0.5000 
     67 C          -2.2494  -21.2848  -47.8252 C.2       11 UNK         0.5000 
     68 O          -1.7190  -22.3882  -47.9473 O.2       11 UNK        -0.5000 
     69 N          -3.5281  -21.1363  -47.4498 N.am      12 UNK        -0.5000 
     70 CA         -4.4610  -22.2337  -47.1584 C.3       12 UNK         0.1400 
     71 CB         -5.8213  -21.6381  -46.7631 C.3       12 UNK        -0.1800 
     72 C          -3.9755  -23.2193  -46.0754 C.2       12 UNK         0.5000 
     73 O          -4.3177  -24.4005  -46.1338 O.2       12 UNK        -0.5000 
     74 N          -3.1673  -22.7239  -45.1279 N.am      13 UNK        -0.5000 
     75 CA         -2.5180  -23.5263  -44.0911 C.3       13 UNK         0.1400 
     76 CB         -2.0630  -22.5977  -42.9575 C.3       13 UNK        -0.1800 
     77 C          -1.3313  -24.3613  -44.6130 C.2       13 UNK         0.5000 
     78 O          -0.9847  -25.3603  -43.9817 O.2       13 UNK        -0.5000 
     79 N          -0.7268  -23.9475  -45.7361 N.am      14 UNK        -0.5000 
     80 CA          0.3455  -24.6779  -46.4088 C.3       14 UNK         0.1400 
     81 CB          1.3052  -23.6963  -47.1023 C.3       14 UNK        -0.1800 
     82 C          -0.2319  -25.6928  -47.4070 C.2       14 UNK         0.5000 
     83 O           0.1639  -26.8590  -47.3725 O.2       14 UNK        -0.5000 
     84 N          -1.1686  -25.2497  -48.2566 N.am      15 UNK        -0.5000 
     85 CA         -1.8493  -26.0858  -49.2400 C.3       15 UNK         0.1400 
     86 CB         -0.9141  -26.3917  -50.4267 C.3       15 UNK        -0.1800 
     87 C          -3.1160  -25.3874  -49.7443 C.2       15 UNK         0.5000 
     88 O          -3.0946  -24.1826  -50.0031 O.2       15 UNK        -0.5000 
     89 N          -4.1758  -26.1733  -49.9725 N.am      16 UNK        -0.5000 
     90 CA         -5.4130  -25.7176  -50.6129 C.3       16 UNK         0.1400 
     91 CB         -6.4785  -26.8180  -50.5076 C.3       16 UNK        -0.1800 
     92 C          -5.2006  -25.3061  -52.0829 C.2       16 UNK         0.5000 
     93 O          -5.8695  -24.3918  -52.5608 O.2       16 UNK        -0.5000 
     94 N          -4.2363  -25.9488  -52.7580 N.am      17 UNK        -0.5000 
     95 CA         -3.8042  -25.6154  -54.1161 C.3       17 UNK         0.1400 
     96 CB         -2.8307  -26.6924  -54.6167 C.3       17 UNK        -0.1800 
     97 C          -3.1604  -24.2194  -54.2124 C.2       17 UNK         0.5000 
     98 O          -3.3726  -23.5213  -55.2028 O.2       17 UNK        -0.5000 
     99 N          -2.4199  -23.8185  -53.1695 N.am      18 UNK        -0.5000 
    100 CA        -1.8024  -22.4961  -53.0660 C.3       18 UNK         0.1400 
    101 CB        -0.7073  -22.5263  -51.9922 C.3       18 UNK        -0.1800 
    102 C         -2.8385  -21.3932  -52.7812 C.2       18 UNK         0.5000 
    103 O         -2.6853  -20.2750  -53.2723 O.2       18 UNK        -0.5000 
    104 N         -3.8965  -21.7341  -52.0316 N.am      19 UNK        -0.5000 
    105 CA        -5.0618  -20.8736  -51.8278 C.3       19 UNK         0.1400 
    106 CB        -5.8914  -21.3892  -50.6471 C.3       19 UNK        -0.1800 
    107 C         -5.9231  -20.7433  -53.0974 C.2       19 UNK         0.5000 
    108 O         -6.4175  -19.6530  -53.3751 O.2       19 UNK        -0.5000 
    109 N         -6.0593  -21.8306  -53.8698 N.am      20 UNK        -0.5000 
    110 CA        -6.7334  -21.8379  -55.1709 C.3       20 UNK         0.1400 
    111 CB        -6.9197  -23.2830  -55.6566 C.3       20 UNK        -0.1800 
    112 C         -5.9861  -20.9913  -56.2189 C.2       20 UNK         0.5000 
    113 O         -6.6168  -20.2105  -56.9333 O.2       20 UNK        -0.5000 
    114 N         -4.6495  -21.1081  -56.2451 N.am      21 UNK        -0.5000 
    115 CA        -3.7432  -20.3184  -57.0878 C.3       21 UNK         0.1400 
    116 CB        -2.3159  -20.8684  -56.9460 C.3       21 UNK        -0.1800 
    117 C         -3.7691  -18.8032  -56.7932 C.2       21 UNK         0.5000 
    118 O         -3.4034  -18.0114  -57.6628 O.2       21 UNK        -0.5000 
    119 N         -4.2236  -18.4286  -55.5913 N.am      22 UNK        -0.5000 
    120 CA        -4.5259  -17.0499  -55.1811 C.3       22 UNK         0.1400 
    121 C         -5.7517  -16.4204  -55.9156 C.2       22 UNK         0.5000 
    122 N         -6.6166  -17.1942  -56.5641 N.am      22 UNK        -0.7600 
    123 O         -5.9143  -15.2036  -55.9155 O.2       22 UNK        -0.5000 
    124 C124       -4.6848  -16.9765  -53.6403 C.3       23 UNK        -0.0398 
    125 S125       -4.2920  -15.3558  -52.9097 S.3       23 UNK        -0.2404 
    126 C126       -4.1765  -15.8200  -51.1528 C.3       23 UNK        -0.0205 
    127 H127        0.8806   -9.8365  -43.9127 H         1 UNK         0.0600 
    128 H128        1.3899  -10.6912  -42.4519 H         1 UNK         0.0600 
    129 H129       -0.1739  -11.0538  -43.1884 H         1 UNK         0.0600 
    130 H130       -0.1678  -12.9689  -44.3141 H         1 UNK         0.3000 
    131 H131        1.8811  -13.6099  -46.2449 H         1 UNK         0.0600 
    132 H132        0.4215  -15.4683  -46.8934 H         1 UNK         0.0800 
    133 H133       -0.5306  -15.2993  -45.4451 H         1 UNK         0.0800 
    134 H134       -0.7164  -12.6170  -49.1889 H         1 UNK         0.0800 
    135 H135        0.6885  -13.5200  -48.6828 H         1 UNK         0.0800 
    136 H136       -2.8967  -13.9158  -49.7002 H         1 UNK         0.1150 
    137 H137       -2.2502  -17.7287  -51.5604 H         1 UNK         0.1150 
    138 H138        0.9567  -15.7744  -49.4911 H         1 UNK         0.1150 
    139 H139       -0.0067  -18.6214  -51.7225 H         1 UNK         0.0800 
    140 H140        1.3229  -17.5657  -51.3251 H         1 UNK         0.0800 
    141 H141       -0.1776  -21.1370  -49.5086 H         1 UNK         0.0800 
    142 H142       -1.2720  -19.9923  -50.2433 H         1 UNK         0.0800 
    143 H143       -0.6587  -20.0500  -47.2561 H         1 UNK         0.0600 
    144 H144       -2.2418  -18.2372  -48.7960 H         1 UNK         0.3000 
    145 H145       -2.6805  -16.1798  -47.4686 H         1 UNK         0.0600 
    146 H146       -5.1571  -16.1863  -47.8230 H         1 UNK         0.0600 
    147 H147       -4.5014  -17.6155  -48.5788 H         1 UNK         0.0600 
    148 H148       -5.3030  -17.7476  -47.0199 H         1 UNK         0.0600 
    149 H149       -3.1646  -16.9541  -44.8198 H         1 UNK         0.3000 
    150 H150       -4.5058  -13.8213  -43.6486 H         1 UNK         0.0600 
    151 H151       -5.3355  -16.7423  -43.2348 H         1 UNK         0.0600 
    152 H152       -6.3957  -15.4478  -43.7782 H         1 UNK         0.0600 
    153 H153       -5.7053  -15.3901  -42.1645 H         1 UNK         0.0600 
    154 H154       -3.1699  -16.0002  -42.3318 H         1 UNK         0.3000 
    155 H155        0.0509  -14.7698  -42.4263 H         1 UNK         0.0600 
    156 H156       -1.7957  -13.9370  -40.1326 H         1 UNK         0.0600 
    157 H157       -0.7119  -12.8736  -41.0218 H         1 UNK         0.0600 
    158 H158       -0.0491  -14.1539  -40.0203 H         1 UNK         0.0600 
    159 H159       -1.4428  -16.3460  -40.5005 H         1 UNK         0.3000 
    160 H160       -0.9528  -18.5095  -40.3494 H         1 UNK         0.0600 
    161 H161       -2.5547  -20.1099  -41.3158 H         1 UNK         0.0600 
    162 H162       -2.3360  -19.4268  -42.9304 H         1 UNK         0.0600 
    163 H163       -3.0984  -18.4795  -41.6583 H         1 UNK         0.0600 
    164 H164        0.2229  -19.7747  -42.7918 H         1 UNK         0.3000 
    165 H165        3.0042  -20.8617  -41.0657 H         1 UNK         0.0600 
    166 H166        1.5958  -22.7045  -40.1209 H         1 UNK         0.0600 
    167 H167        0.7948  -22.8978  -41.6750 H         1 UNK         0.0600 
    168 H168        2.5156  -23.2459  -41.5144 H         1 UNK         0.0600 
    169 H169        1.9172  -21.7969  -43.5350 H         1 UNK         0.3000 
    170 H170        3.4476  -20.9957  -45.3635 H         1 UNK         0.0600 
    171 H171        0.9062  -20.9932  -45.3731 H         1 UNK         0.0600 
    172 H172        0.9316  -19.2529  -45.6411 H         1 UNK         0.0600 
    173 H173        1.5840  -20.3543  -46.8580 H         1 UNK         0.0600 
    174 H174        3.4566  -18.0564  -45.2281 H         1 UNK         0.3000 
    175 H175        5.8059  -17.8574  -47.9053 H         1 UNK         0.0600 
    176 H176        4.2986  -16.0534  -48.7518 H         1 UNK         0.0600 
    177 H177        3.7154  -17.6486  -49.2005 H         1 UNK         0.0600 
    178 H178        2.9395  -16.7740  -47.8890 H         1 UNK         0.0600 
    179 H179        4.3470  -16.2160  -45.8915 H         1 UNK         0.3000 
    180 H180        7.2413  -15.6218  -43.9879 H         1 UNK         0.0600 
    181 H181        6.2130  -13.6330  -46.0838 H         1 UNK         0.0600 
    182 H182        7.8901  -14.1191  -45.8665 H         1 UNK         0.0600 
    183 H183        7.0723  -13.2175  -44.6004 H         1 UNK         0.0600 
    184 H184        4.6357  -14.3364  -44.3511 H         1 UNK         0.3000 
    185 H185        2.7912  -16.5457  -42.4622 H         1 UNK         0.0600 
    186 H186        3.8637  -15.5333  -40.4428 H         1 UNK         0.0600 
    187 H187        3.7696  -13.9406  -41.1858 H         1 UNK         0.0600 
    188 H188        2.2954  -14.8182  -40.7715 H         1 UNK         0.0600 
    189 H189        2.1967  -13.8665  -43.0871 H         1 UNK         0.3000 
    190 H190       -3.8821  -20.1995  -47.3323 H         1 UNK         0.3000 
    191 H191       -4.5866  -22.8121  -48.0754 H         1 UNK         0.0600 
    192 H192       -6.2231  -20.9987  -47.5489 H         1 UNK         0.0600 
    193 H193       -6.5542  -22.4254  -46.5815 H         1 UNK         0.0600 
    194 H194       -5.7479  -21.0416  -45.8529 H         1 UNK         0.0600 
    195 H195       -2.9479  -21.7383  -45.1501 H         1 UNK         0.3000 
    196 H196       -3.2530  -24.2229  -43.6822 H         1 UNK         0.0600 
    197 H197       -1.5982  -23.1635  -42.1493 H         1 UNK         0.0600 
    198 H198       -2.9140  -22.0688  -42.5303 H         1 UNK         0.0600 
    199 H199       -1.3397  -21.8588  -43.3040 H         1 UNK         0.0600 
    200 H200       -1.1289  -23.1754  -46.2550 H         1 UNK         0.3000 
    201 H201        0.9285  -25.2323  -45.6701 H         1 UNK         0.0600 
    202 H202        2.0914  -24.2336  -47.6338 H         1 UNK         0.0600 
    203 H203        0.7973  -23.0629  -47.8291 H         1 UNK         0.0600 
    204 H204        1.7951  -23.0495  -46.3758 H         1 UNK         0.0600 
    205 H205       -1.4584  -24.2732  -48.2359 H         1 UNK         0.3000 
    206 H206       -2.1399  -27.0226  -48.7596 H         1 UNK         0.0600 
    207 H207       -0.0452  -26.9700  -50.1132 H         1 UNK         0.0600 
    208 H208       -1.4257  -26.9754  -51.1928 H         1 UNK         0.0600 
    209 H209       -0.5517  -25.4765  -50.8961 H         1 UNK         0.0600 
    210 H210       -4.1231  -27.1550  -49.7410 H         1 UNK         0.3000 
    211 H211       -5.7719  -24.8396  -50.0715 H         1 UNK         0.0600 
    212 H212       -6.1673  -27.7318  -51.0154 H         1 UNK         0.0600 
    213 H213       -7.4179  -26.4953  -50.9586 H         1 UNK         0.0600 
    214 H214       -6.6877  -27.0658  -49.4668 H         1 UNK         0.0600 
    215 H215       -3.7453  -26.6987  -52.2954 H         1 UNK         0.3000 
    216 H216       -4.6844  -25.6225  -54.7620 H         1 UNK         0.0600 
    217 H217       -2.5062  -26.4807  -55.6365 H         1 UNK         0.0600 
    218 H218       -3.3006  -27.6760  -54.6244 H         1 UNK         0.0600 
    219 H219       -1.9374  -26.7511  -53.9934 H         1 UNK         0.0600 
    220 H220       -2.3316  -24.4249  -52.3678 H         1 UNK         0.3000 
    221 H221       -1.3262  -22.2645  -54.0209 H         1 UNK         0.0600 
    222 H222       -1.1156  -22.7366  -51.0035 H         1 UNK         0.0600 
    223 H223        0.0408  -23.2875  -52.2135 H         1 UNK         0.0600 
    224 H224       -0.1871  -21.5692  -51.9449 H         1 UNK         0.0600 
    225 H225       -3.9303  -22.6627  -51.6319 H         1 UNK         0.3000 
    226 H226       -4.7049  -19.8740  -51.5695 H         1 UNK         0.0600 
    227 H227       -6.7614  -20.7550  -50.4721 H         1 UNK         0.0600 
    228 H228       -6.2507  -22.4049  -50.8097 H         1 UNK         0.0600 
    229 H229       -5.2967  -21.3815  -49.7376 H         1 UNK         0.0600 
    230 H230       -5.7089  -22.7204  -53.5287 H         1 UNK         0.3000 
    231 H231       -7.7244  -21.3995  -55.0351 H         1 UNK         0.0600 
    232 H232       -5.9656  -23.7793  -55.8299 H         1 UNK         0.0600 
    233 H233       -7.4761  -23.3087  -56.5942 H         1 UNK         0.0600 
    234 H234       -7.4776  -23.8744  -54.9304 H         1 UNK         0.0600 
    235 H235       -4.2154  -21.8217  -55.6668 H         1 UNK         0.3000 
    236 H236       -4.0586  -20.4517  -58.1245 H         1 UNK         0.0600 
    237 H237       -2.2678  -21.9208  -57.2259 H         1 UNK         0.0600 
    238 H238       -1.6223  -20.3291  -57.5922 H         1 UNK         0.0600 
    239 H239       -1.9512  -20.7750  -55.9231 H         1 UNK         0.0600 
    240 H240       -4.4912  -19.1537  -54.9410 H         1 UNK         0.3000 
    241 H241       -3.6573  -16.4501  -55.4590 H         1 UNK         0.0600 
    242 H242       -7.3963  -16.7680  -57.0391 H         1 UNK         0.3800 
    243 H243       -6.5062  -18.2017  -56.5949 H         1 UNK         0.3800 
    244 H244       -4.0272  -17.7087  -53.1697 H         1 UNK         0.0800 
    245 H245       -5.6979  -17.2438  -53.3392 H         1 UNK         0.0800 
    246 H246       -4.6300  -16.7967  -50.9785 H         1 UNK         0.0800 
    247 H247       -4.7638  -15.1109  -50.5672 H         1 UNK         0.0800 
@<TRIPOS>BOND
     1    1    2 1    
     2    1  127 1    
     3    1  128 1    
     4    1  129 1    
     5    2    3 2    
     6    2    4 am   BACKBONE|DICT|INTERRES
     7    4    5 1    
     8    4  130 1    
     9    5    6 1    
    10    5   65 1    
    11    5  131 1    
    12    6    7 1    
    13    6  132 1    
    14    6  133 1    
    15    7    8 1    
    16    8    9 1    
    17    8  134 1    
    18    8  135 1    
    19    9   10 ar   
    20    9   14 ar   
    21   10   11 ar   
    22   10  136 1    
    23   11   12 ar   
    24   11  126 1    
    25   12   13 ar   
    26   12  137 1    
    27   13   14 ar   
    28   13   15 1    
    29   14  138 1    
    30   15   16 1    
    31   15  139 1    
    32   15  140 1    
    33   16   17 1    
    34   17   18 1    
    35   17  141 1    
    36   17  142 1    
    37   18   19 1    
    38   18   67 1    
    39   18  143 1    
    40   19   20 am   BACKBONE|DICT|INTERRES
    41   19  144 1    
    42   20   21 2    
    43   20   22 1    
    44   22   23 1    
    45   22   24 1    
    46   22  145 1    
    47   23  146 1    
    48   23  147 1    
    49   23  148 1    
    50   24   25 am   BACKBONE|DICT|INTERRES
    51   24  149 1    
    52   25   26 2    
    53   25   27 1    
    54   27   28 1    
    55   27   29 1    
    56   27  150 1    
    57   28  151 1    
    58   28  152 1    
    59   28  153 1    
    60   29   30 am   BACKBONE|DICT|INTERRES
    61   29  154 1    
    62   30   31 2    
    63   30   32 1    
    64   32   33 1    
    65   32   34 1    
    66   32  155 1    
    67   33  156 1    
    68   33  157 1    
    69   33  158 1    
    70   34   35 am   BACKBONE|DICT|INTERRES
    71   34  159 1    
    72   35   36 2    
    73   35   37 1    
    74   37   38 1    
    75   37   39 1    
    76   37  160 1    
    77   38  161 1    
    78   38  162 1    
    79   38  163 1    
    80   39   40 am   BACKBONE|DICT|INTERRES
    81   39  164 1    
    82   40   41 2    
    83   40   42 1    
    84   42   43 1    
    85   42   44 1    
    86   42  165 1    
    87   43  166 1    
    88   43  167 1    
    89   43  168 1    
    90   44   45 am   BACKBONE|DICT|INTERRES
    91   44  169 1    
    92   45   46 2    
    93   45   47 1    
    94   47   48 1    
    95   47   49 1    
    96   47  170 1    
    97   48  171 1    
    98   48  172 1    
    99   48  173 1    
   100   49   50 am   BACKBONE|DICT|INTERRES
   101   49  174 1    
   102   50   51 2    
   103   50   52 1    
   104   52   53 1    
   105   52   54 1    
   106   52  175 1    
   107   53  176 1    
   108   53  177 1    
   109   53  178 1    
   110   54   55 am   BACKBONE|DICT|INTERRES
   111   54  179 1    
   112   55   56 2    
   113   55   57 1    
   114   57   58 1    
   115   57   59 1    
   116   57  180 1    
   117   58  181 1    
   118   58  182 1    
   119   58  183 1    
   120   59   60 am   BACKBONE|DICT|INTERRES
   121   59  184 1    
   122   60   61 2    
   123   60   62 1    
   124   62   63 1    
   125   62   64 1    
   126   62  185 1    
   127   63  186 1    
   128   63  187 1    
   129   63  188 1    
   130   64   65 am   BACKBONE|DICT|INTERRES
   131   64  189 1    
   132   65   66 2    
   133   67   68 2    
   134   67   69 am   BACKBONE|DICT|INTERRES
   135   69   70 1    
   136   69  190 1    
   137   70   71 1    
   138   70   72 1    
   139   70  191 1    
   140   71  192 1    
   141   71  193 1    
   142   71  194 1    
   143   72   73 2    
   144   72   74 am   BACKBONE|DICT|INTERRES
   145   74   75 1    
   146   74  195 1    
   147   75   76 1    
   148   75   77 1    
   149   75  196 1    
   150   76  197 1    
   151   76  198 1    
   152   76  199 1    
   153   77   78 2    
   154   77   79 am   BACKBONE|DICT|INTERRES
   155   79   80 1    
   156   79  200 1    
   157   80   81 1    
   158   80   82 1    
   159   80  201 1    
   160   81  202 1    
   161   81  203 1    
   162   81  204 1    
   163   82   83 2    
   164   82   84 am   BACKBONE|DICT|INTERRES
   165   84   85 1    
   166   84  205 1    
   167   85   86 1    
   168   85   87 1    
   169   85  206 1    
   170   86  207 1    
   171   86  208 1    
   172   86  209 1    
   173   87   88 2    
   174   87   89 am   BACKBONE|DICT|INTERRES
   175   89   90 1    
   176   89  210 1    
   177   90   91 1    
   178   90   92 1    
   179   90  211 1    
   180   91  212 1    
   181   91  213 1    
   182   91  214 1    
   183   92   93 2    
   184   92   94 am   BACKBONE|DICT|INTERRES
   185   94   95 1    
   186   94  215 1    
   187   95   96 1    
   188   95   97 1    
   189   95  216 1    
   190   96  217 1    
   191   96  218 1    
   192   96  219 1    
   193   97   98 2    
   194   97   99 am   BACKBONE|DICT|INTERRES
   195   99  100 1    
   196   99  220 1    
   197  100  101 1    
   198  100  102 1    
   199  100  221 1    
   200  101  222 1    
   201  101  223 1    
   202  101  224 1    
   203  102  103 2    
   204  102  104 am   BACKBONE|DICT|INTERRES
   205  104  105 1    
   206  104  225 1    
   207  105  106 1    
   208  105  107 1    
   209  105  226 1    
   210  106  227 1    
   211  106  228 1    
   212  106  229 1    
   213  107  108 2    
   214  107  109 am   BACKBONE|DICT|INTERRES
   215  109  110 1    
   216  109  230 1    
   217  110  111 1    
   218  110  112 1    
   219  110  231 1    
   220  111  232 1    
   221  111  233 1    
   222  111  234 1    
   223  112  113 2    
   224  112  114 am   BACKBONE|DICT|INTERRES
   225  114  115 1    
   226  114  235 1    
   227  115  116 1    
   228  115  117 1    
   229  115  236 1    
   230  116  237 1    
   231  116  238 1    
   232  116  239 1    
   233  117  118 2    
   234  117  119 am   BACKBONE|DICT|INTERRES
   235  119  120 1    
   236  119  240 1    
   237  120  121 1    
   238  120  124 1    
   239  120  241 1    
   240  121  122 am   BACKBONE|DICT|INTERRES
   241  121  123 2    
   242  122  242 1    
   243  122  243 1    
   244  124  125 1    
   245  124  244 1    
   246  124  245 1    
   247  125  126 1    
   248  126  246 1    
   249  126  247 1    
@<TRIPOS>SUBSTRUCTURE
     1 UNK         1 GROUP             0       ****    0 ROOT    
