@<TRIPOS>MOLECULE
3R540
247   249    1
SMALL
USER_CHARGES


@<TRIPOS>ATOM
      1 CA         -3.0085  -12.3348  -48.0225 C.3       0 UNK        -0.1800 
      2 C          -1.8996  -12.9059  -47.1522 C.2       0 UNK         0.5000 
      3 O          -1.7818  -12.5323  -45.9864 O.2       0 UNK        -0.5000 
      4 N          -1.1005  -13.8289  -47.7021 N.am      1 UNK        -0.5000 
      5 CA          0.0618  -14.4638  -47.0592 C.3       1 UNK         0.1400 
      6 C6          0.8152  -15.3822  -48.0464 C.3       23 UNK        -0.0398 
      7 S7          1.4731  -14.4499  -49.4687 S.3       23 UNK        -0.2404 
      8 C8          2.8549  -15.5160  -49.9833 C.3       23 UNK        -0.0205 
      9 C9          2.3700  -16.8666  -50.4869 C.ar      23 UNK        -0.0193 
     10 C10         1.7036  -16.9479  -51.7124 C.ar      23 UNK        -0.1150 
     11 C11         1.2620  -18.1788  -52.2001 C.ar      23 UNK        -0.0193 
     12 C12         1.5052  -19.3344  -51.4512 C.ar      23 UNK        -0.1150 
     13 C13         2.1595  -19.2739  -50.2174 C.ar      23 UNK        -0.0193 
     14 C14         2.5939  -18.0302  -49.7417 C.ar      23 UNK        -0.1150 
     15 C15         2.4396  -20.5759  -49.4661 C.3       23 UNK        -0.0205 
     16 S16         2.3224  -20.4733  -47.6475 S.3       23 UNK        -0.2404 
     17 C17         0.5262  -20.3161  -47.3652 C.3       23 UNK        -0.0398 
     18 CA         -0.2417  -21.6641  -47.2567 C.3       11 UNK         0.1400 
     19 N           0.4052  -22.6612  -46.3988 N.am      11 UNK        -0.5000 
     20 C           0.0904  -23.9665  -46.4097 C.2       10 UNK         0.5000 
     21 O          -0.7112  -24.4650  -47.2001 O.2       10 UNK        -0.5000 
     22 CA          0.7478  -24.8696  -45.3476 C.3       10 UNK         0.1400 
     23 CB          2.0349  -25.4981  -45.9018 C.3       10 UNK        -0.1800 
     24 N           1.0540  -24.1838  -44.0916 N.am      10 UNK        -0.5000 
     25 C           0.1572  -23.6043  -43.2823 C.2       9 UNK         0.5000 
     26 O          -1.0549  -23.6008  -43.4992 O.2       9 UNK        -0.5000 
     27 CA          0.7025  -22.8477  -42.0524 C.3       9 UNK         0.1400 
     28 CB          2.1507  -23.2322  -41.6747 C.3       9 UNK        -0.1800 
     29 N           0.5971  -21.3917  -42.2089 N.am      9 UNK        -0.5000 
     30 C           1.0709  -20.6548  -43.2245 C.2       8 UNK         0.5000 
     31 O           1.6148  -21.1334  -44.2212 O.2       8 UNK        -0.5000 
     32 CA          0.8968  -19.1240  -43.1566 C.3       8 UNK         0.1400 
     33 CB          0.3003  -18.5939  -41.8325 C.3       8 UNK        -0.1800 
     34 N           2.1533  -18.4533  -43.5054 N.am      8 UNK        -0.5000 
     35 C           3.3244  -18.5568  -42.8555 C.2       7 UNK         0.5000 
     36 O           3.4468  -19.0706  -41.7434 O.2       7 UNK        -0.5000 
     37 CA          4.5807  -18.0261  -43.5770 C.3       7 UNK         0.1400 
     38 CB          5.6751  -19.1067  -43.6148 C.3       7 UNK        -0.1800 
     39 N           4.2973  -17.6273  -44.9598 N.am      7 UNK        -0.5000 
     40 C           4.1998  -16.3956  -45.4787 C.2       6 UNK         0.5000 
     41 O           3.9813  -16.2488  -46.6777 O.2       6 UNK        -0.5000 
     42 CA          4.3279  -15.1494  -44.5785 C.3       6 UNK         0.1400 
     43 CB          4.3920  -13.8392  -45.3874 C.3       6 UNK        -0.1800 
     44 N           3.1783  -15.0709  -43.6836 N.am      6 UNK        -0.5000 
     45 C           3.2392  -14.9221  -42.3558 C.2       5 UNK         0.5000 
     46 O           4.2903  -14.8818  -41.7140 O.2       5 UNK        -0.5000 
     47 CA          1.8796  -14.7865  -41.6472 C.3       5 UNK         0.1400 
     48 CB          1.9907  -14.6101  -40.1190 C.3       5 UNK        -0.1800 
     49 N           1.0650  -13.7284  -42.2479 N.am      5 UNK        -0.5000 
     50 C           1.3455  -12.4176  -42.3151 C.2       4 UNK         0.5000 
     51 O           2.3396  -11.8949  -41.8103 O.2       4 UNK        -0.5000 
     52 CA          0.3507  -11.5330  -43.0927 C.3       4 UNK         0.1400 
     53 CB          0.9328  -11.1655  -44.4664 C.3       4 UNK        -0.1800 
     54 N          -0.9571  -12.1609  -43.2897 N.am      4 UNK        -0.5000 
     55 C          -1.8688  -12.3662  -42.3290 C.2       3 UNK         0.5000 
     56 O          -1.7276  -12.0064  -41.1600 O.2       3 UNK        -0.5000 
     57 CA         -3.1372  -13.1293  -42.7443 C.3       3 UNK         0.1400 
     58 CB         -4.1697  -12.1740  -43.3629 C.3       3 UNK        -0.1800 
     59 N          -2.8349  -14.1989  -43.6969 N.am      3 UNK        -0.5000 
     60 C          -2.3789  -15.4125  -43.3574 C.2       2 UNK         0.5000 
     61 O          -2.1722  -15.7669  -42.1977 O.2       2 UNK        -0.5000 
     62 CA         -2.0913  -16.3927  -44.5099 C.3       2 UNK         0.1400 
     63 CB         -3.3726  -17.1284  -44.9269 C.3       2 UNK        -0.1800 
     64 N          -1.5299  -15.7312  -45.6849 N.am      2 UNK        -0.5000 
     65 C          -0.2867  -15.2397  -45.7703 C.2       1 UNK         0.5000 
     66 O           0.5602  -15.3595  -44.8824 O.2       1 UNK        -0.5000 
     67 C          -1.6816  -21.4153  -46.7656 C.2       11 UNK         0.5000 
     68 O          -2.6175  -21.4295  -47.5646 O.2       11 UNK        -0.5000 
     69 N          -1.8355  -21.2083  -45.4489 N.am      12 UNK        -0.5000 
     70 CA         -3.1056  -20.9069  -44.7824 C.3       12 UNK         0.1400 
     71 CB         -2.8439  -20.4938  -43.3281 C.3       12 UNK        -0.1800 
     72 C          -4.1230  -22.0549  -44.8586 C.2       12 UNK         0.5000 
     73 O          -5.3127  -21.7940  -45.0376 O.2       12 UNK        -0.5000 
     74 N          -3.6288  -23.2986  -44.8076 N.am      13 UNK        -0.5000 
     75 CA         -4.3985  -24.5326  -44.9892 C.3       13 UNK         0.1400 
     76 CB         -3.4611  -25.7315  -44.7777 C.3       13 UNK        -0.1800 
     77 C          -5.1123  -24.6434  -46.3547 C.2       13 UNK         0.5000 
     78 O          -6.0826  -25.3936  -46.4654 O.2       13 UNK        -0.5000 
     79 N          -4.6360  -23.8895  -47.3539 N.am      14 UNK        -0.5000 
     80 CA         -5.2014  -23.7934  -48.6974 C.3       14 UNK         0.1400 
     81 CB         -4.1817  -24.3758  -49.6917 C.3       14 UNK        -0.1800 
     82 C          -5.6280  -22.3477  -49.0354 C.2       14 UNK         0.5000 
     83 O          -5.7405  -22.0135  -50.2160 O.2       14 UNK        -0.5000 
     84 N          -5.8691  -21.5219  -48.0018 N.am      15 UNK        -0.5000 
     85 CA         -6.3494  -20.1343  -48.0551 C.3       15 UNK         0.1400 
     86 CB         -7.7847  -20.0815  -48.6203 C.3       15 UNK        -0.1800 
     87 C          -5.3786  -19.1945  -48.7988 C.2       15 UNK         0.5000 
     88 O          -5.7382  -18.6112  -49.8203 O.2       15 UNK        -0.5000 
     89 N          -4.1372  -19.1162  -48.2972 N.am      16 UNK        -0.5000 
     90 CA         -2.9747  -18.4546  -48.9148 C.3       16 UNK         0.1400 
     91 CB         -3.1774  -16.9281  -49.0171 C.3       16 UNK        -0.1800 
     92 C          -2.5933  -19.1152  -50.2588 C.2       16 UNK         0.5000 
     93 O          -2.1753  -18.4387  -51.1975 O.2       16 UNK        -0.5000 
     94 N          -2.8041  -20.4380  -50.3132 N.am      17 UNK        -0.5000 
     95 CA         -2.7195  -21.3379  -51.4632 C.3       17 UNK         0.1400 
     96 CB         -1.2617  -21.5579  -51.8895 C.3       17 UNK        -0.1800 
     97 C          -3.6343  -20.9712  -52.6486 C.2       17 UNK         0.5000 
     98 O          -3.4126  -21.4806  -53.7475 O.2       17 UNK        -0.5000 
     99 N          -4.6732  -20.1524  -52.4229 N.am      18 UNK        -0.5000 
    100 CA        -5.6664  -19.7774  -53.4316 C.3       18 UNK         0.1400 
    101 CB        -6.5847  -18.6789  -52.8802 C.3       18 UNK        -0.1800 
    102 C         -6.4976  -20.9750  -53.9230 C.2       18 UNK         0.5000 
    103 O         -6.8615  -21.0116  -55.0983 O.2       18 UNK        -0.5000 
    104 N         -6.7222  -21.9645  -53.0447 N.am      19 UNK        -0.5000 
    105 CA        -7.3801  -23.2323  -53.3746 C.3       19 UNK         0.1400 
    106 CB        -7.6973  -23.9864  -52.0743 C.3       19 UNK        -0.1800 
    107 C         -6.5523  -24.1209  -54.3282 C.2       19 UNK         0.5000 
    108 O         -7.1240  -24.9749  -55.0063 O.2       19 UNK        -0.5000 
    109 N         -5.2327  -23.8947  -54.3723 N.am      20 UNK        -0.5000 
    110 CA        -4.2783  -24.5656  -55.2549 C.3       20 UNK         0.1400 
    111 CB        -3.0821  -25.0222  -54.4013 C.3       20 UNK        -0.1800 
    112 C         -3.8042  -23.6470  -56.4005 C.2       20 UNK         0.5000 
    113 O         -2.9267  -24.0513  -57.1648 O.2       20 UNK        -0.5000 
    114 N         -4.3393  -22.4165  -56.4755 N.am      21 UNK        -0.5000 
    115 CA        -3.9522  -21.3242  -57.3800 C.3       21 UNK         0.1400 
    116 CB        -4.4048  -21.6394  -58.8202 C.3       21 UNK        -0.1800 
    117 C         -2.4523  -20.9506  -57.2917 C.2       21 UNK         0.5000 
    118 O         -1.8532  -20.5537  -58.2927 O.2       21 UNK        -0.5000 
    119 N         -1.8690  -21.1127  -56.0962 N.am      22 UNK        -0.5000 
    120 CA        -0.4296  -21.0191  -55.8034 C.3       22 UNK         0.1400 
    121 C          0.4485  -22.1235  -56.4787 C.2       22 UNK         0.5000 
    122 N         -0.1177  -23.2124  -56.9875 N.am      22 UNK        -0.7600 
    123 O          1.6705  -22.0154  -56.5245 O.2       22 UNK        -0.5000 
    124 C124        0.1248  -19.5750  -55.9863 C.3       23 UNK        -0.0398 
    125 S125        1.4438  -19.1703  -54.7867 S.3       23 UNK        -0.2404 
    126 C126        0.5074  -18.2572  -53.5213 C.3       23 UNK        -0.0205 
    127 H127       -3.9780  -12.5116  -47.5571 H         1 UNK         0.0600 
    128 H128       -2.8756  -11.2593  -48.1379 H         1 UNK         0.0600 
    129 H129       -3.0188  -12.7864  -49.0147 H         1 UNK         0.0600 
    130 H130       -1.2355  -14.0714  -48.6733 H         1 UNK         0.3000 
    131 H131        0.7405  -13.6627  -46.7616 H         1 UNK         0.0600 
    132 H132        1.6449  -15.8804  -47.5463 H         1 UNK         0.0800 
    133 H133        0.1648  -16.1754  -48.4194 H         1 UNK         0.0800 
    134 H134        3.5569  -15.6334  -49.1579 H         1 UNK         0.0800 
    135 H135        3.4069  -15.0154  -50.7799 H         1 UNK         0.0800 
    136 H136        1.5250  -16.0467  -52.2821 H         1 UNK         0.1150 
    137 H137        1.2030  -20.2925  -51.8439 H         1 UNK         0.1150 
    138 H138        3.1197  -17.9664  -48.7991 H         1 UNK         0.1150 
    139 H139        1.7703  -21.3669  -49.8078 H         1 UNK         0.0800 
    140 H140        3.4487  -20.8998  -49.7231 H         1 UNK         0.0800 
    141 H141        0.4136  -19.7342  -46.4490 H         1 UNK         0.0800 
    142 H142        0.1019  -19.7031  -48.1619 H         1 UNK         0.0800 
    143 H143       -0.3066  -22.0820  -48.2638 H         1 UNK         0.0600 
    144 H144        1.0657  -22.3087  -45.7116 H         1 UNK         0.3000 
    145 H145        0.0436  -25.6729  -45.1212 H         1 UNK         0.0600 
    146 H146        2.4648  -26.2075  -45.1945 H         1 UNK         0.0600 
    147 H147        1.8374  -26.0423  -46.8264 H         1 UNK         0.0600 
    148 H148        2.7893  -24.7413  -46.1210 H         1 UNK         0.0600 
    149 H149        2.0314  -24.0951  -43.8557 H         1 UNK         0.3000 
    150 H150        0.0579  -23.1228  -41.2163 H         1 UNK         0.0600 
    151 H151        2.2498  -24.3091  -41.5323 H         1 UNK         0.0600 
    152 H152        2.4432  -22.7583  -40.7376 H         1 UNK         0.0600 
    153 H153        2.8728  -22.9253  -42.4322 H         1 UNK         0.0600 
    154 H154        0.1490  -20.9078  -41.4439 H         1 UNK         0.3000 
    155 H155        0.1932  -18.8792  -43.9522 H         1 UNK         0.0600 
    156 H156        0.0781  -17.5316  -41.9081 H         1 UNK         0.0600 
    157 H157        0.9701  -18.7370  -40.9847 H         1 UNK         0.0600 
    158 H158       -0.6435  -19.0820  -41.5899 H         1 UNK         0.0600 
    159 H159        2.1788  -18.0305  -44.4220 H         1 UNK         0.3000 
    160 H160        4.9686  -17.1951  -42.9909 H         1 UNK         0.0600 
    161 H161        5.3374  -20.0032  -44.1367 H         1 UNK         0.0600 
    162 H162        5.9716  -19.4046  -42.6082 H         1 UNK         0.0600 
    163 H163        6.5710  -18.7430  -44.1185 H         1 UNK         0.0600 
    164 H164        4.1869  -18.4011  -45.5992 H         1 UNK         0.3000 
    165 H165        5.2640  -15.2351  -44.0246 H         1 UNK         0.0600 
    166 H166        5.2316  -13.8483  -46.0834 H         1 UNK         0.0600 
    167 H167        3.4824  -13.6775  -45.9679 H         1 UNK         0.0600 
    168 H168        4.5233  -12.9791  -44.7304 H         1 UNK         0.0600 
    169 H169        2.2629  -15.1276  -44.1261 H         1 UNK         0.3000 
    170 H170        1.3498  -15.7190  -41.8305 H         1 UNK         0.0600 
    171 H171        2.5009  -15.4614  -39.6669 H         1 UNK         0.0600 
    172 H172        2.5503  -13.7141  -39.8496 H         1 UNK         0.0600 
    173 H173        1.0047  -14.5408  -39.6594 H         1 UNK         0.0600 
    174 H174        0.2392  -14.0440  -42.7367 H         1 UNK         0.3000 
    175 H175        0.2071  -10.6137  -42.5214 H         1 UNK         0.0600 
    176 H176        1.1224  -12.0530  -45.0698 H         1 UNK         0.0600 
    177 H177        0.2551  -10.5187  -45.0240 H         1 UNK         0.0600 
    178 H178        1.8789  -10.6330  -44.3612 H         1 UNK         0.0600 
    179 H179       -1.1938  -12.4238  -44.2441 H         1 UNK         0.3000 
    180 H180       -3.5776  -13.5660  -41.8452 H         1 UNK         0.0600 
    181 H181       -4.4311  -11.3780  -42.6645 H         1 UNK         0.0600 
    182 H182       -3.7932  -11.7025  -44.2715 H         1 UNK         0.0600 
    183 H183       -5.0905  -12.6999  -43.6155 H         1 UNK         0.0600 
    184 H184       -2.9034  -13.9571  -44.6759 H         1 UNK         0.3000 
    185 H185       -1.3717  -17.1298  -44.1513 H         1 UNK         0.0600 
    186 H186       -4.1409  -16.4368  -45.2751 H         1 UNK         0.0600 
    187 H187       -3.1721  -17.8325  -45.7331 H         1 UNK         0.0600 
    188 H188       -3.7925  -17.6898  -44.0915 H         1 UNK         0.0600 
    189 H189       -2.1567  -15.5665  -46.4578 H         1 UNK         0.3000 
    190 H190       -1.0308  -21.3272  -44.8527 H         1 UNK         0.3000 
    191 H191       -3.5560  -20.0581  -45.2968 H         1 UNK         0.0600 
    192 H192       -3.7778  -20.2638  -42.8134 H         1 UNK         0.0600 
    193 H193       -2.2247  -19.5995  -43.2829 H         1 UNK         0.0600 
    194 H194       -2.3460  -21.2834  -42.7650 H         1 UNK         0.0600 
    195 H195       -2.6429  -23.4117  -44.5875 H         1 UNK         0.3000 
    196 H196       -5.1693  -24.5569  -44.2165 H         1 UNK         0.0600 
    197 H197       -4.0019  -26.6743  -44.8694 H         1 UNK         0.0600 
    198 H198       -3.0110  -25.7108  -43.7850 H         1 UNK         0.0600 
    199 H199       -2.6541  -25.7420  -45.5113 H         1 UNK         0.0600 
    200 H200       -3.8347  -23.2971  -47.1728 H         1 UNK         0.3000 
    201 H201       -6.1138  -24.3879  -48.7728 H         1 UNK         0.0600 
    202 H202       -4.0579  -25.4466  -49.5300 H         1 UNK         0.0600 
    203 H203       -3.2006  -23.9163  -49.5703 H         1 UNK         0.0600 
    204 H204       -4.4960  -24.2451  -50.7275 H         1 UNK         0.0600 
    205 H205       -5.7372  -21.8890  -47.0656 H         1 UNK         0.3000 
    206 H206       -6.3913  -19.7818  -47.0234 H         1 UNK         0.0600 
    207 H207       -8.4575  -20.7177  -48.0455 H         1 UNK         0.0600 
    208 H208       -8.1822  -19.0668  -48.5785 H         1 UNK         0.0600 
    209 H209       -7.8269  -20.4043  -49.6612 H         1 UNK         0.0600 
    210 H210       -3.9149  -19.7321  -47.5267 H         1 UNK         0.3000 
    211 H211       -2.1335  -18.6237  -48.2423 H         1 UNK         0.0600 
    212 H212       -3.4766  -16.5031  -48.0597 H         1 UNK         0.0600 
    213 H213       -3.9408  -16.6681  -49.7507 H         1 UNK         0.0600 
    214 H214       -2.2549  -16.4335  -49.3224 H         1 UNK         0.0600 
    215 H215       -3.1129  -20.8761  -49.4523 H         1 UNK         0.3000 
    216 H216       -3.0912  -22.2957  -51.1122 H         1 UNK         0.0600 
    217 H217       -0.8803  -20.6840  -52.4083 H         1 UNK         0.0600 
    218 H218       -1.1747  -22.4052  -52.5704 H         1 UNK         0.0600 
    219 H219       -0.6205  -21.7612  -51.0319 H         1 UNK         0.0600 
    220 H220       -4.8265  -19.7996  -51.4858 H         1 UNK         0.3000 
    221 H221       -5.1280  -19.3717  -54.2906 H         1 UNK         0.0600 
    222 H222       -7.1776  -19.0374  -52.0378 H         1 UNK         0.0600 
    223 H223       -6.0107  -17.8149  -52.5446 H         1 UNK         0.0600 
    224 H224       -7.2800  -18.3314  -53.6453 H         1 UNK         0.0600 
    225 H225       -6.3771  -21.8642  -52.0932 H         1 UNK         0.3000 
    226 H226       -8.3231  -23.0022  -53.8746 H         1 UNK         0.0600 
    227 H227       -8.2993  -23.3770  -51.3998 H         1 UNK         0.0600 
    228 H228       -8.2595  -24.8983  -52.2791 H         1 UNK         0.0600 
    229 H229       -6.7891  -24.2742  -51.5451 H         1 UNK         0.0600 
    230 H230       -4.8512  -23.1490  -53.8047 H         1 UNK         0.3000 
    231 H231       -4.7316  -25.4473  -55.7119 H         1 UNK         0.0600 
    232 H232       -2.5562  -24.1750  -53.9593 H         1 UNK         0.0600 
    233 H233       -3.4036  -25.6762  -53.5905 H         1 UNK         0.0600 
    234 H234       -2.3607  -25.5804  -54.9993 H         1 UNK         0.0600 
    235 H235       -5.0579  -22.1794  -55.8045 H         1 UNK         0.3000 
    236 H236       -4.5021  -20.4437  -57.0448 H         1 UNK         0.0600 
    237 H237       -5.4672  -21.8804  -58.8548 H         1 UNK         0.0600 
    238 H238       -4.2464  -20.7841  -59.4781 H         1 UNK         0.0600 
    239 H239       -3.8555  -22.4825  -59.2405 H         1 UNK         0.0600 
    240 H240       -2.4545  -21.4015  -55.3149 H         1 UNK         0.3000 
    241 H241       -0.3753  -21.2552  -54.7412 H         1 UNK         0.0600 
    242 H242       -1.1245  -23.3442  -56.9853 H         1 UNK         0.3800 
    243 H243        0.4683  -23.9144  -57.4099 H         1 UNK         0.3800 
    244 H244       -0.6748  -18.8423  -55.8687 H         1 UNK         0.0800 
    245 H245        0.5044  -19.4301  -56.9990 H         1 UNK         0.0800 
    246 H246        0.2885  -17.2581  -53.9010 H         1 UNK         0.0800 
    247 H247       -0.4593  -18.7308  -53.3546 H         1 UNK         0.0800 
@<TRIPOS>BOND
     1    1    2 1    
     2    1  127 1    
     3    1  128 1    
     4    1  129 1    
     5    2    3 2    
     6    2    4 am   BACKBONE|DICT|INTERRES
     7    4    5 1    
     8    4  130 1    
     9    5    6 1    
    10    5   65 1    
    11    5  131 1    
    12    6    7 1    
    13    6  132 1    
    14    6  133 1    
    15    7    8 1    
    16    8    9 1    
    17    8  134 1    
    18    8  135 1    
    19    9   10 ar   
    20    9   14 ar   
    21   10   11 ar   
    22   10  136 1    
    23   11   12 ar   
    24   11  126 1    
    25   12   13 ar   
    26   12  137 1    
    27   13   14 ar   
    28   13   15 1    
    29   14  138 1    
    30   15   16 1    
    31   15  139 1    
    32   15  140 1    
    33   16   17 1    
    34   17   18 1    
    35   17  141 1    
    36   17  142 1    
    37   18   19 1    
    38   18   67 1    
    39   18  143 1    
    40   19   20 am   BACKBONE|DICT|INTERRES
    41   19  144 1    
    42   20   21 2    
    43   20   22 1    
    44   22   23 1    
    45   22   24 1    
    46   22  145 1    
    47   23  146 1    
    48   23  147 1    
    49   23  148 1    
    50   24   25 am   BACKBONE|DICT|INTERRES
    51   24  149 1    
    52   25   26 2    
    53   25   27 1    
    54   27   28 1    
    55   27   29 1    
    56   27  150 1    
    57   28  151 1    
    58   28  152 1    
    59   28  153 1    
    60   29   30 am   BACKBONE|DICT|INTERRES
    61   29  154 1    
    62   30   31 2    
    63   30   32 1    
    64   32   33 1    
    65   32   34 1    
    66   32  155 1    
    67   33  156 1    
    68   33  157 1    
    69   33  158 1    
    70   34   35 am   BACKBONE|DICT|INTERRES
    71   34  159 1    
    72   35   36 2    
    73   35   37 1    
    74   37   38 1    
    75   37   39 1    
    76   37  160 1    
    77   38  161 1    
    78   38  162 1    
    79   38  163 1    
    80   39   40 am   BACKBONE|DICT|INTERRES
    81   39  164 1    
    82   40   41 2    
    83   40   42 1    
    84   42   43 1    
    85   42   44 1    
    86   42  165 1    
    87   43  166 1    
    88   43  167 1    
    89   43  168 1    
    90   44   45 am   BACKBONE|DICT|INTERRES
    91   44  169 1    
    92   45   46 2    
    93   45   47 1    
    94   47   48 1    
    95   47   49 1    
    96   47  170 1    
    97   48  171 1    
    98   48  172 1    
    99   48  173 1    
   100   49   50 am   BACKBONE|DICT|INTERRES
   101   49  174 1    
   102   50   51 2    
   103   50   52 1    
   104   52   53 1    
   105   52   54 1    
   106   52  175 1    
   107   53  176 1    
   108   53  177 1    
   109   53  178 1    
   110   54   55 am   BACKBONE|DICT|INTERRES
   111   54  179 1    
   112   55   56 2    
   113   55   57 1    
   114   57   58 1    
   115   57   59 1    
   116   57  180 1    
   117   58  181 1    
   118   58  182 1    
   119   58  183 1    
   120   59   60 am   BACKBONE|DICT|INTERRES
   121   59  184 1    
   122   60   61 2    
   123   60   62 1    
   124   62   63 1    
   125   62   64 1    
   126   62  185 1    
   127   63  186 1    
   128   63  187 1    
   129   63  188 1    
   130   64   65 am   BACKBONE|DICT|INTERRES
   131   64  189 1    
   132   65   66 2    
   133   67   68 2    
   134   67   69 am   BACKBONE|DICT|INTERRES
   135   69   70 1    
   136   69  190 1    
   137   70   71 1    
   138   70   72 1    
   139   70  191 1    
   140   71  192 1    
   141   71  193 1    
   142   71  194 1    
   143   72   73 2    
   144   72   74 am   BACKBONE|DICT|INTERRES
   145   74   75 1    
   146   74  195 1    
   147   75   76 1    
   148   75   77 1    
   149   75  196 1    
   150   76  197 1    
   151   76  198 1    
   152   76  199 1    
   153   77   78 2    
   154   77   79 am   BACKBONE|DICT|INTERRES
   155   79   80 1    
   156   79  200 1    
   157   80   81 1    
   158   80   82 1    
   159   80  201 1    
   160   81  202 1    
   161   81  203 1    
   162   81  204 1    
   163   82   83 2    
   164   82   84 am   BACKBONE|DICT|INTERRES
   165   84   85 1    
   166   84  205 1    
   167   85   86 1    
   168   85   87 1    
   169   85  206 1    
   170   86  207 1    
   171   86  208 1    
   172   86  209 1    
   173   87   88 2    
   174   87   89 am   BACKBONE|DICT|INTERRES
   175   89   90 1    
   176   89  210 1    
   177   90   91 1    
   178   90   92 1    
   179   90  211 1    
   180   91  212 1    
   181   91  213 1    
   182   91  214 1    
   183   92   93 2    
   184   92   94 am   BACKBONE|DICT|INTERRES
   185   94   95 1    
   186   94  215 1    
   187   95   96 1    
   188   95   97 1    
   189   95  216 1    
   190   96  217 1    
   191   96  218 1    
   192   96  219 1    
   193   97   98 2    
   194   97   99 am   BACKBONE|DICT|INTERRES
   195   99  100 1    
   196   99  220 1    
   197  100  101 1    
   198  100  102 1    
   199  100  221 1    
   200  101  222 1    
   201  101  223 1    
   202  101  224 1    
   203  102  103 2    
   204  102  104 am   BACKBONE|DICT|INTERRES
   205  104  105 1    
   206  104  225 1    
   207  105  106 1    
   208  105  107 1    
   209  105  226 1    
   210  106  227 1    
   211  106  228 1    
   212  106  229 1    
   213  107  108 2    
   214  107  109 am   BACKBONE|DICT|INTERRES
   215  109  110 1    
   216  109  230 1    
   217  110  111 1    
   218  110  112 1    
   219  110  231 1    
   220  111  232 1    
   221  111  233 1    
   222  111  234 1    
   223  112  113 2    
   224  112  114 am   BACKBONE|DICT|INTERRES
   225  114  115 1    
   226  114  235 1    
   227  115  116 1    
   228  115  117 1    
   229  115  236 1    
   230  116  237 1    
   231  116  238 1    
   232  116  239 1    
   233  117  118 2    
   234  117  119 am   BACKBONE|DICT|INTERRES
   235  119  120 1    
   236  119  240 1    
   237  120  121 1    
   238  120  124 1    
   239  120  241 1    
   240  121  122 am   BACKBONE|DICT|INTERRES
   241  121  123 2    
   242  122  242 1    
   243  122  243 1    
   244  124  125 1    
   245  124  244 1    
   246  124  245 1    
   247  125  126 1    
   248  126  246 1    
   249  126  247 1    
@<TRIPOS>SUBSTRUCTURE
     1 UNK         1 GROUP             0       ****    0 ROOT    
