@<TRIPOS>MOLECULE
3R540
247   249    1
SMALL
USER_CHARGES


@<TRIPOS>ATOM
      1 CA          1.2972  -11.5269  -49.5986 C.3       0 UNK        -0.1800 
      2 C           0.1645  -12.4773  -49.2157 C.2       0 UNK         0.5000 
      3 O          -0.9860  -12.1909  -49.5350 O.2       0 UNK        -0.5000 
      4 N           0.4210  -13.6072  -48.5396 N.am      1 UNK        -0.5000 
      5 CA          1.7031  -14.0576  -47.9877 C.3       1 UNK         0.1400 
      6 C6          1.6667  -15.5420  -47.5412 C.3       23 UNK        -0.0398 
      7 S7          1.0101  -16.6855  -48.8016 S.3       23 UNK        -0.2404 
      8 C8          2.4783  -16.9659  -49.8307 C.3       23 UNK        -0.0205 
      9 C9          2.2494  -18.1130  -50.8009 C.ar      23 UNK        -0.0193 
     10 C10         1.6126  -17.8922  -52.0262 C.ar      23 UNK        -0.1150 
     11 C11         1.4232  -18.9441  -52.9297 C.ar      23 UNK        -0.0193 
     12 C12         1.8799  -20.2236  -52.5945 C.ar      23 UNK        -0.1150 
     13 C13         2.5025  -20.4585  -51.3658 C.ar      23 UNK        -0.0193 
     14 C14         2.6870  -19.3987  -50.4745 C.ar      23 UNK        -0.1150 
     15 C15         2.9823  -21.8554  -51.0042 C.3       23 UNK        -0.0205 
     16 S16         1.6248  -22.8953  -50.3846 S.3       23 UNK        -0.2404 
     17 C17         1.1812  -22.0371  -48.8369 C.3       23 UNK        -0.0398 
     18 CA          0.4359  -22.9653  -47.8476 C.3       11 UNK         0.1400 
     19 N           0.7251  -22.6171  -46.4554 N.am      11 UNK        -0.5000 
     20 C           0.4253  -23.3811  -45.3994 C.2       10 UNK         0.5000 
     21 O          -0.2349  -24.4151  -45.4860 O.2       10 UNK        -0.5000 
     22 CA          0.8990  -22.9248  -44.0088 C.3       10 UNK         0.1400 
     23 CB          1.9276  -23.9074  -43.4155 C.3       10 UNK        -0.1800 
     24 N           1.3736  -21.5399  -43.9327 N.am      10 UNK        -0.5000 
     25 C           2.5016  -20.9849  -44.4019 C.2       9 UNK         0.5000 
     26 O           3.3276  -21.5842  -45.0897 O.2       9 UNK        -0.5000 
     27 CA          2.7338  -19.4941  -44.0657 C.3       9 UNK         0.1400 
     28 CB          2.6261  -18.6368  -45.3374 C.3       9 UNK        -0.1800 
     29 N           1.7939  -18.9764  -43.0660 N.am      9 UNK        -0.5000 
     30 C           1.7770  -19.3124  -41.7671 C.2       8 UNK         0.5000 
     31 O           2.6436  -19.9977  -41.2240 O.2       8 UNK        -0.5000 
     32 CA          0.5424  -18.8658  -40.9640 C.3       8 UNK         0.1400 
     33 CB          0.7532  -17.4617  -40.3798 C.3       8 UNK        -0.1800 
     34 N          -0.6708  -18.8867  -41.7890 N.am      8 UNK        -0.5000 
     35 C          -1.3431  -20.0004  -42.1203 C.2       7 UNK         0.5000 
     36 O          -1.0344  -21.1222  -41.7224 O.2       7 UNK        -0.5000 
     37 CA         -2.5320  -19.8504  -43.0885 C.3       7 UNK         0.1400 
     38 CB         -3.8318  -19.5841  -42.3159 C.3       7 UNK        -0.1800 
     39 N          -2.3186  -18.7822  -44.0629 N.am      7 UNK        -0.5000 
     40 C          -1.5379  -18.8902  -45.1462 C.2       6 UNK         0.5000 
     41 O          -1.0089  -19.9443  -45.5068 O.2       6 UNK        -0.5000 
     42 CA         -1.3008  -17.6033  -45.9610 C.3       6 UNK         0.1400 
     43 CB         -2.1878  -17.5782  -47.2106 C.3       6 UNK        -0.1800 
     44 N          -1.4977  -16.3573  -45.2103 N.am      6 UNK        -0.5000 
     45 C          -0.7472  -15.9607  -44.1734 C.2       5 UNK         0.5000 
     46 O           0.1518  -16.6547  -43.6969 O.2       5 UNK        -0.5000 
     47 CA         -1.0589  -14.5722  -43.5839 C.3       5 UNK         0.1400 
     48 CB          0.0364  -14.0774  -42.6229 C.3       5 UNK        -0.1800 
     49 N          -1.2046  -13.5862  -44.6506 N.am      5 UNK        -0.5000 
     50 C          -2.3554  -13.0588  -45.0836 C.2       4 UNK         0.5000 
     51 O          -3.4616  -13.4203  -44.6794 O.2       4 UNK        -0.5000 
     52 CA         -2.2356  -11.9525  -46.1547 C.3       4 UNK         0.1400 
     53 CB         -3.5331  -11.1366  -46.3334 C.3       4 UNK        -0.1800 
     54 N          -1.0812  -11.0668  -45.9410 N.am      4 UNK        -0.5000 
     55 C          -0.8535  -10.2654  -44.8877 C.2       3 UNK         0.5000 
     56 O          -1.6300  -10.1364  -43.9400 O.2       3 UNK        -0.5000 
     57 CA          0.4942   -9.5197  -44.8916 C.3       3 UNK         0.1400 
     58 CB          0.7920   -8.7868  -43.5683 C.3       3 UNK        -0.1800 
     59 N           1.5615  -10.4704  -45.1878 N.am      3 UNK        -0.5000 
     60 C           2.7494  -10.2014  -45.7351 C.2       2 UNK         0.5000 
     61 O           3.1091   -9.0734  -46.0730 O.2       2 UNK        -0.5000 
     62 CA          3.6909  -11.4047  -45.9593 C.3       2 UNK         0.1400 
     63 CB          4.1041  -12.0596  -44.6254 C.3       2 UNK        -0.1800 
     64 N           3.1710  -12.4012  -46.9090 N.am      2 UNK        -0.5000 
     65 C           2.0747  -13.1634  -46.7912 C.2       1 UNK         0.5000 
     66 O           1.3302  -13.1575  -45.8085 O.2       1 UNK        -0.5000 
     67 C          -1.0772  -23.0396  -48.1431 C.2       11 UNK         0.5000 
     68 O          -1.5074  -23.9395  -48.8678 O.2       11 UNK        -0.5000 
     69 N          -1.8681  -22.1313  -47.5510 N.am      12 UNK        -0.5000 
     70 CA         -3.3296  -22.1628  -47.6602 C.3       12 UNK         0.1400 
     71 CB         -3.9042  -20.7518  -47.4842 C.3       12 UNK        -0.1800 
     72 C          -3.9705  -23.1443  -46.6631 C.2       12 UNK         0.5000 
     73 O          -5.0255  -23.6995  -46.9680 O.2       12 UNK        -0.5000 
     74 N          -3.3209  -23.3671  -45.5100 N.am      13 UNK        -0.5000 
     75 CA         -3.7744  -24.3018  -44.4742 C.3       13 UNK         0.1400 
     76 CB         -3.0048  -24.0497  -43.1685 C.3       13 UNK        -0.1800 
     77 C          -3.6377  -25.7708  -44.9151 C.2       13 UNK         0.5000 
     78 O          -4.5497  -26.5659  -44.6870 O.2       13 UNK        -0.5000 
     79 N          -2.5179  -26.0895  -45.5781 N.am      14 UNK        -0.5000 
     80 CA         -2.2489  -27.3848  -46.2066 C.3       14 UNK         0.1400 
     81 CB         -0.7340  -27.5093  -46.4376 C.3       14 UNK        -0.1800 
     82 C          -3.0048  -27.5786  -47.5373 C.2       14 UNK         0.5000 
     83 O          -3.0270  -28.6941  -48.0587 O.2       14 UNK        -0.5000 
     84 N          -3.5793  -26.4886  -48.0699 N.am      15 UNK        -0.5000 
     85 CA         -4.2763  -26.3714  -49.3547 C.3       15 UNK         0.1400 
     86 CB         -5.5490  -27.2425  -49.3841 C.3       15 UNK        -0.1800 
     87 C          -3.3553  -26.6057  -50.5710 C.2       15 UNK         0.5000 
     88 O          -3.8359  -26.9628  -51.6471 O.2       15 UNK        -0.5000 
     89 N          -2.0514  -26.3551  -50.3921 N.am      16 UNK        -0.5000 
     90 CA         -1.0319  -26.3996  -51.4389 C.3       16 UNK         0.1400 
     91 CB          0.3542  -26.4944  -50.7842 C.3       16 UNK        -0.1800 
     92 C          -1.1252  -25.1799  -52.3737 C.2       16 UNK         0.5000 
     93 O          -0.9069  -25.3171  -53.5777 O.2       16 UNK        -0.5000 
     94 N          -1.4970  -24.0222  -51.8082 N.am      17 UNK        -0.5000 
     95 CA         -1.8083  -22.7968  -52.5476 C.3       17 UNK         0.1400 
     96 CB         -1.7726  -21.6064  -51.5755 C.3       17 UNK        -0.1800 
     97 C          -3.1778  -22.8650  -53.2553 C.2       17 UNK         0.5000 
     98 O          -3.4088  -22.1190  -54.2055 O.2       17 UNK        -0.5000 
     99 N          -4.0672  -23.7390  -52.7551 N.am      18 UNK        -0.5000 
    100 CA        -5.4506  -24.0017  -53.1847 C.3       18 UNK         0.1400 
    101 CB        -5.4949  -24.4747  -54.6521 C.3       18 UNK        -0.1800 
    102 C         -6.4452  -22.8469  -52.9239 C.2       18 UNK         0.5000 
    103 O         -7.6378  -23.0062  -53.1876 O.2       18 UNK        -0.5000 
    104 N         -5.9568  -21.7277  -52.3839 N.am      19 UNK        -0.5000 
    105 CA        -6.6760  -20.5131  -52.0268 C.3       19 UNK         0.1400 
    106 CB        -7.1257  -19.7634  -53.2952 C.3       19 UNK        -0.1800 
    107 C         -5.7221  -19.6491  -51.1898 C.2       19 UNK         0.5000 
    108 O         -4.5111  -19.8948  -51.1979 O.2       19 UNK        -0.5000 
    109 N         -6.2716  -18.6447  -50.4954 N.am      20 UNK        -0.5000 
    110 CA        -5.5270  -17.6715  -49.6933 C.3       20 UNK         0.1400 
    111 CB        -6.5150  -16.7204  -49.0002 C.3       20 UNK        -0.1800 
    112 C         -4.5104  -16.8969  -50.5531 C.2       20 UNK         0.5000 
    113 O         -4.9128  -16.0954  -51.3992 O.2       20 UNK        -0.5000 
    114 N         -3.2222  -17.2197  -50.3677 N.am      21 UNK        -0.5000 
    115 CA        -2.0639  -16.7148  -51.1161 C.3       21 UNK         0.1400 
    116 CB        -1.8153  -15.2326  -50.7794 C.3       21 UNK        -0.1800 
    117 C         -2.1625  -16.9728  -52.6352 C.2       21 UNK         0.5000 
    118 O         -1.6879  -16.1614  -53.4317 O.2       21 UNK        -0.5000 
    119 N         -2.8041  -18.0914  -52.9985 N.am      22 UNK        -0.5000 
    120 CA        -3.1412  -18.5002  -54.3719 C.3       22 UNK         0.1400 
    121 C         -4.2550  -17.6377  -55.0436 C.2       22 UNK         0.5000 
    122 N         -4.9760  -16.7860  -54.3216 N.am      22 UNK        -0.7600 
    123 O         -4.4989  -17.7634  -56.2406 O.2       22 UNK        -0.5000 
    124 C124       -1.9041  -18.6927  -55.2987 C.3       23 UNK        -0.0398 
    125 S125       -0.6415  -19.8111  -54.5952 S.3       23 UNK        -0.2404 
    126 C126        0.7593  -18.6856  -54.2774 C.3       23 UNK        -0.0205 
    127 H127        1.5606  -10.8854  -48.7580 H         1 UNK         0.0600 
    128 H128        2.1856  -12.0611  -49.9325 H         1 UNK         0.0600 
    129 H129        0.9826  -10.8825  -50.4197 H         1 UNK         0.0600 
    130 H130       -0.3519  -14.2218  -48.3368 H         1 UNK         0.3000 
    131 H131        2.4681  -13.9691  -48.7602 H         1 UNK         0.0600 
    132 H132        1.0401  -15.6590  -46.6561 H         1 UNK         0.0800 
    133 H133        2.6620  -15.8761  -47.2432 H         1 UNK         0.0800 
    134 H134        3.3388  -17.1811  -49.1949 H         1 UNK         0.0800 
    135 H135        2.7172  -16.0537  -50.3800 H         1 UNK         0.0800 
    136 H136        1.2714  -16.8973  -52.2766 H         1 UNK         0.1150 
    137 H137        1.7410  -21.0416  -53.2874 H         1 UNK         0.1150 
    138 H138        3.1731  -19.5739  -49.5250 H         1 UNK         0.1150 
    139 H139        3.4157  -22.3308  -51.8853 H         1 UNK         0.0800 
    140 H140        3.7791  -21.8110  -50.2601 H         1 UNK         0.0800 
    141 H141        2.1131  -21.6914  -48.3867 H         1 UNK         0.0800 
    142 H142        0.6074  -21.1361  -49.0628 H         1 UNK         0.0800 
    143 H143        0.8251  -23.9779  -47.9791 H         1 UNK         0.0600 
    144 H144        1.2599  -21.7776  -46.2902 H         1 UNK         0.3000 
    145 H145        0.0170  -22.9594  -43.3693 H         1 UNK         0.0600 
    146 H146        2.2239  -23.6083  -42.4098 H         1 UNK         0.0600 
    147 H147        1.5091  -24.9124  -43.3443 H         1 UNK         0.0600 
    148 H148        2.8282  -23.9748  -44.0272 H         1 UNK         0.0600 
    149 H149        0.7606  -20.9244  -43.4172 H         1 UNK         0.3000 
    150 H150        3.7453  -19.3970  -43.6666 H         1 UNK         0.0600 
    151 H151        3.4032  -18.9033  -46.0551 H         1 UNK         0.0600 
    152 H152        2.7393  -17.5756  -45.1137 H         1 UNK         0.0600 
    153 H153        1.6663  -18.7767  -45.8334 H         1 UNK         0.0600 
    154 H154        1.0896  -18.3238  -43.3986 H         1 UNK         0.3000 
    155 H155        0.4089  -19.5609  -40.1321 H         1 UNK         0.0600 
    156 H156       -0.1367  -17.1081  -39.8588 H         1 UNK         0.0600 
    157 H157        1.0045  -16.7382  -41.1542 H         1 UNK         0.0600 
    158 H158        1.5734  -17.4625  -39.6609 H         1 UNK         0.0600 
    159 H159       -0.9401  -18.0083  -42.2078 H         1 UNK         0.3000 
    160 H160       -2.6466  -20.7936  -43.6266 H         1 UNK         0.0600 
    161 H161       -3.7884  -18.6454  -41.7620 H         1 UNK         0.0600 
    162 H162       -4.0283  -20.3812  -41.5974 H         1 UNK         0.0600 
    163 H163       -4.6874  -19.5379  -42.9900 H         1 UNK         0.0600 
    164 H164       -2.7418  -17.8879  -43.8638 H         1 UNK         0.3000 
    165 H165       -0.2623  -17.6265  -46.2886 H         1 UNK         0.0600 
    166 H166       -3.2474  -17.6386  -46.9586 H         1 UNK         0.0600 
    167 H167       -2.0285  -16.6657  -47.7848 H         1 UNK         0.0600 
    168 H168       -1.9442  -18.4156  -47.8645 H         1 UNK         0.0600 
    169 H169       -2.2310  -15.7419  -45.5316 H         1 UNK         0.3000 
    170 H170       -1.9875  -14.6609  -43.0171 H         1 UNK         0.0600 
    171 H171        0.0967  -14.7102  -41.7385 H         1 UNK         0.0600 
    172 H172        1.0186  -14.0718  -43.0979 H         1 UNK         0.0600 
    173 H173       -0.1719  -13.0644  -42.2775 H         1 UNK         0.0600 
    174 H174       -0.3330  -13.2914  -45.0856 H         1 UNK         0.3000 
    175 H175       -2.0535  -12.4752  -47.0931 H         1 UNK         0.0600 
    176 H176       -3.4174  -10.3794  -47.1088 H         1 UNK         0.0600 
    177 H177       -4.3612  -11.7804  -46.6323 H         1 UNK         0.0600 
    178 H178       -3.8279  -10.6329  -45.4125 H         1 UNK         0.0600 
    179 H179       -0.3694  -11.1073  -46.6551 H         1 UNK         0.3000 
    180 H180        0.4425   -8.7805  -45.6936 H         1 UNK         0.0600 
    181 H181        1.7321   -8.2379  -43.6214 H         1 UNK         0.0600 
    182 H182        0.0096   -8.0634  -43.3355 H         1 UNK         0.0600 
    183 H183        0.8583   -9.4840  -42.7322 H         1 UNK         0.0600 
    184 H184        1.3461  -11.4493  -45.0180 H         1 UNK         0.3000 
    185 H185        4.5991  -11.0066  -46.4151 H         1 UNK         0.0600 
    186 H186        4.8434  -12.8441  -44.7870 H         1 UNK         0.0600 
    187 H187        4.5523  -11.3248  -43.9555 H         1 UNK         0.0600 
    188 H188        3.2585  -12.5036  -44.0996 H         1 UNK         0.0600 
    189 H189        3.7007  -12.4660  -47.7673 H         1 UNK         0.3000 
    190 H190       -1.4580  -21.4263  -46.9470 H         1 UNK         0.3000 
    191 H191       -3.6051  -22.4971  -48.6631 H         1 UNK         0.0600 
    192 H192       -4.9902  -20.7580  -47.5857 H         1 UNK         0.0600 
    193 H193       -3.5166  -20.0820  -48.2500 H         1 UNK         0.0600 
    194 H194       -3.6702  -20.3363  -46.5049 H         1 UNK         0.0600 
    195 H195       -2.4365  -22.9066  -45.3574 H         1 UNK         0.3000 
    196 H196       -4.8323  -24.1081  -44.2831 H         1 UNK         0.0600 
    197 H197       -3.3741  -24.6965  -42.3717 H         1 UNK         0.0600 
    198 H198       -3.1217  -23.0216  -42.8275 H         1 UNK         0.0600 
    199 H199       -1.9401  -24.2519  -43.2804 H         1 UNK         0.0600 
    200 H200       -1.7794  -25.3927  -45.6586 H         1 UNK         0.3000 
    201 H201       -2.5624  -28.1793  -45.5265 H         1 UNK         0.0600 
    202 H202       -0.1826  -27.4070  -45.5026 H         1 UNK         0.0600 
    203 H203       -0.3688  -26.7451  -47.1255 H         1 UNK         0.0600 
    204 H204       -0.4790  -28.4818  -46.8608 H         1 UNK         0.0600 
    205 H205       -3.5012  -25.6305  -47.5428 H         1 UNK         0.3000 
    206 H206       -4.5953  -25.3302  -49.4222 H         1 UNK         0.0600 
    207 H207       -6.1764  -27.0511  -48.5134 H         1 UNK         0.0600 
    208 H208       -6.1499  -27.0278  -50.2686 H         1 UNK         0.0600 
    209 H209       -5.3131  -28.3069  -49.4018 H         1 UNK         0.0600 
    210 H210       -1.7618  -25.9725  -49.5006 H         1 UNK         0.3000 
    211 H211       -1.1877  -27.2968  -52.0418 H         1 UNK         0.0600 
    212 H212        0.5353  -25.6622  -50.1037 H         1 UNK         0.0600 
    213 H213        1.1454  -26.4856  -51.5352 H         1 UNK         0.0600 
    214 H214        0.4554  -27.4178  -50.2136 H         1 UNK         0.0600 
    215 H215       -1.5962  -23.9895  -50.7976 H         1 UNK         0.3000 
    216 H216       -1.0438  -22.6410  -53.3119 H         1 UNK         0.0600 
    217 H217       -2.0452  -20.6809  -52.0816 H         1 UNK         0.0600 
    218 H218       -0.7753  -21.4570  -51.1663 H         1 UNK         0.0600 
    219 H219       -2.4643  -21.7396  -50.7436 H         1 UNK         0.0600 
    220 H220       -3.7469  -24.3093  -51.9869 H         1 UNK         0.3000 
    221 H221       -5.7944  -24.8328  -52.5664 H         1 UNK         0.0600 
    222 H222       -5.2298  -23.6763  -55.3462 H         1 UNK         0.0600 
    223 H223       -4.8105  -25.3068  -54.8180 H         1 UNK         0.0600 
    224 H224       -6.4943  -24.8193  -54.9214 H         1 UNK         0.0600 
    225 H225       -4.9657  -21.6722  -52.1842 H         1 UNK         0.3000 
    226 H226       -7.5421  -20.7743  -51.4160 H         1 UNK         0.0600 
    227 H227       -7.5885  -18.8069  -53.0497 H         1 UNK         0.0600 
    228 H228       -6.2839  -19.5610  -53.9575 H         1 UNK         0.0600 
    229 H229       -7.8598  -20.3387  -53.8589 H         1 UNK         0.0600 
    230 H230       -7.2674  -18.4933  -50.5638 H         1 UNK         0.3000 
    231 H231       -4.9904  -18.2179  -48.9158 H         1 UNK         0.0600 
    232 H232       -5.9860  -15.9842  -48.3934 H         1 UNK         0.0600 
    233 H233       -7.1874  -17.2647  -48.3367 H         1 UNK         0.0600 
    234 H234       -7.1244  -16.1744  -49.7216 H         1 UNK         0.0600 
    235 H235       -3.0141  -17.9523  -49.7058 H         1 UNK         0.3000 
    236 H236       -1.2022  -17.2862  -50.7693 H         1 UNK         0.0600 
    237 H237       -2.5904  -14.5866  -51.1927 H         1 UNK         0.0600 
    238 H238       -1.7900  -15.0737  -49.7025 H         1 UNK         0.0600 
    239 H239       -0.8583  -14.8962  -51.1802 H         1 UNK         0.0600 
    240 H240       -3.1887  -18.6820  -52.2695 H         1 UNK         0.3000 
    241 H241       -3.6029  -19.4803  -54.2561 H         1 UNK         0.0600 
    242 H242       -5.6951  -16.2471  -54.7768 H         1 UNK         0.3800 
    243 H243       -4.7999  -16.6427  -53.3330 H         1 UNK         0.3800 
    244 H244       -1.4610  -17.7312  -55.5588 H         1 UNK         0.0800 
    245 H245       -2.2182  -19.1341  -56.2457 H         1 UNK         0.0800 
    246 H246        1.4994  -18.8127  -55.0682 H         1 UNK         0.0800 
    247 H247        0.4286  -17.6484  -54.3342 H         1 UNK         0.0800 
@<TRIPOS>BOND
     1    1    2 1    
     2    1  127 1    
     3    1  128 1    
     4    1  129 1    
     5    2    3 2    
     6    2    4 am   BACKBONE|DICT|INTERRES
     7    4    5 1    
     8    4  130 1    
     9    5    6 1    
    10    5   65 1    
    11    5  131 1    
    12    6    7 1    
    13    6  132 1    
    14    6  133 1    
    15    7    8 1    
    16    8    9 1    
    17    8  134 1    
    18    8  135 1    
    19    9   10 ar   
    20    9   14 ar   
    21   10   11 ar   
    22   10  136 1    
    23   11   12 ar   
    24   11  126 1    
    25   12   13 ar   
    26   12  137 1    
    27   13   14 ar   
    28   13   15 1    
    29   14  138 1    
    30   15   16 1    
    31   15  139 1    
    32   15  140 1    
    33   16   17 1    
    34   17   18 1    
    35   17  141 1    
    36   17  142 1    
    37   18   19 1    
    38   18   67 1    
    39   18  143 1    
    40   19   20 am   BACKBONE|DICT|INTERRES
    41   19  144 1    
    42   20   21 2    
    43   20   22 1    
    44   22   23 1    
    45   22   24 1    
    46   22  145 1    
    47   23  146 1    
    48   23  147 1    
    49   23  148 1    
    50   24   25 am   BACKBONE|DICT|INTERRES
    51   24  149 1    
    52   25   26 2    
    53   25   27 1    
    54   27   28 1    
    55   27   29 1    
    56   27  150 1    
    57   28  151 1    
    58   28  152 1    
    59   28  153 1    
    60   29   30 am   BACKBONE|DICT|INTERRES
    61   29  154 1    
    62   30   31 2    
    63   30   32 1    
    64   32   33 1    
    65   32   34 1    
    66   32  155 1    
    67   33  156 1    
    68   33  157 1    
    69   33  158 1    
    70   34   35 am   BACKBONE|DICT|INTERRES
    71   34  159 1    
    72   35   36 2    
    73   35   37 1    
    74   37   38 1    
    75   37   39 1    
    76   37  160 1    
    77   38  161 1    
    78   38  162 1    
    79   38  163 1    
    80   39   40 am   BACKBONE|DICT|INTERRES
    81   39  164 1    
    82   40   41 2    
    83   40   42 1    
    84   42   43 1    
    85   42   44 1    
    86   42  165 1    
    87   43  166 1    
    88   43  167 1    
    89   43  168 1    
    90   44   45 am   BACKBONE|DICT|INTERRES
    91   44  169 1    
    92   45   46 2    
    93   45   47 1    
    94   47   48 1    
    95   47   49 1    
    96   47  170 1    
    97   48  171 1    
    98   48  172 1    
    99   48  173 1    
   100   49   50 am   BACKBONE|DICT|INTERRES
   101   49  174 1    
   102   50   51 2    
   103   50   52 1    
   104   52   53 1    
   105   52   54 1    
   106   52  175 1    
   107   53  176 1    
   108   53  177 1    
   109   53  178 1    
   110   54   55 am   BACKBONE|DICT|INTERRES
   111   54  179 1    
   112   55   56 2    
   113   55   57 1    
   114   57   58 1    
   115   57   59 1    
   116   57  180 1    
   117   58  181 1    
   118   58  182 1    
   119   58  183 1    
   120   59   60 am   BACKBONE|DICT|INTERRES
   121   59  184 1    
   122   60   61 2    
   123   60   62 1    
   124   62   63 1    
   125   62   64 1    
   126   62  185 1    
   127   63  186 1    
   128   63  187 1    
   129   63  188 1    
   130   64   65 am   BACKBONE|DICT|INTERRES
   131   64  189 1    
   132   65   66 2    
   133   67   68 2    
   134   67   69 am   BACKBONE|DICT|INTERRES
   135   69   70 1    
   136   69  190 1    
   137   70   71 1    
   138   70   72 1    
   139   70  191 1    
   140   71  192 1    
   141   71  193 1    
   142   71  194 1    
   143   72   73 2    
   144   72   74 am   BACKBONE|DICT|INTERRES
   145   74   75 1    
   146   74  195 1    
   147   75   76 1    
   148   75   77 1    
   149   75  196 1    
   150   76  197 1    
   151   76  198 1    
   152   76  199 1    
   153   77   78 2    
   154   77   79 am   BACKBONE|DICT|INTERRES
   155   79   80 1    
   156   79  200 1    
   157   80   81 1    
   158   80   82 1    
   159   80  201 1    
   160   81  202 1    
   161   81  203 1    
   162   81  204 1    
   163   82   83 2    
   164   82   84 am   BACKBONE|DICT|INTERRES
   165   84   85 1    
   166   84  205 1    
   167   85   86 1    
   168   85   87 1    
   169   85  206 1    
   170   86  207 1    
   171   86  208 1    
   172   86  209 1    
   173   87   88 2    
   174   87   89 am   BACKBONE|DICT|INTERRES
   175   89   90 1    
   176   89  210 1    
   177   90   91 1    
   178   90   92 1    
   179   90  211 1    
   180   91  212 1    
   181   91  213 1    
   182   91  214 1    
   183   92   93 2    
   184   92   94 am   BACKBONE|DICT|INTERRES
   185   94   95 1    
   186   94  215 1    
   187   95   96 1    
   188   95   97 1    
   189   95  216 1    
   190   96  217 1    
   191   96  218 1    
   192   96  219 1    
   193   97   98 2    
   194   97   99 am   BACKBONE|DICT|INTERRES
   195   99  100 1    
   196   99  220 1    
   197  100  101 1    
   198  100  102 1    
   199  100  221 1    
   200  101  222 1    
   201  101  223 1    
   202  101  224 1    
   203  102  103 2    
   204  102  104 am   BACKBONE|DICT|INTERRES
   205  104  105 1    
   206  104  225 1    
   207  105  106 1    
   208  105  107 1    
   209  105  226 1    
   210  106  227 1    
   211  106  228 1    
   212  106  229 1    
   213  107  108 2    
   214  107  109 am   BACKBONE|DICT|INTERRES
   215  109  110 1    
   216  109  230 1    
   217  110  111 1    
   218  110  112 1    
   219  110  231 1    
   220  111  232 1    
   221  111  233 1    
   222  111  234 1    
   223  112  113 2    
   224  112  114 am   BACKBONE|DICT|INTERRES
   225  114  115 1    
   226  114  235 1    
   227  115  116 1    
   228  115  117 1    
   229  115  236 1    
   230  116  237 1    
   231  116  238 1    
   232  116  239 1    
   233  117  118 2    
   234  117  119 am   BACKBONE|DICT|INTERRES
   235  119  120 1    
   236  119  240 1    
   237  120  121 1    
   238  120  124 1    
   239  120  241 1    
   240  121  122 am   BACKBONE|DICT|INTERRES
   241  121  123 2    
   242  122  242 1    
   243  122  243 1    
   244  124  125 1    
   245  124  244 1    
   246  124  245 1    
   247  125  126 1    
   248  126  246 1    
   249  126  247 1    
@<TRIPOS>SUBSTRUCTURE
     1 UNK         1 GROUP             0       ****    0 ROOT    
