@<TRIPOS>MOLECULE
3R540
247   249    1
SMALL
USER_CHARGES


@<TRIPOS>ATOM
      1 CA         -4.6160  -13.4024  -49.5519 C.3       0 UNK        -0.1800 
      2 C          -3.2144  -12.9175  -49.2123 C.2       0 UNK         0.5000 
      3 O          -3.0463  -11.7832  -48.7661 O.2       0 UNK        -0.5000 
      4 N          -2.2078  -13.7761  -49.4152 N.am      1 UNK        -0.5000 
      5 CA         -0.7855  -13.4902  -49.1883 C.3       1 UNK         0.1400 
      6 C6          0.1226  -14.3281  -50.1261 C.3       23 UNK        -0.0398 
      7 S7          0.1677  -16.1283  -49.7932 S.3       23 UNK        -0.2404 
      8 C8         -0.9653  -16.7970  -51.0626 C.3       23 UNK        -0.0205 
      9 C9         -2.4314  -16.9093  -50.6448 C.ar      23 UNK        -0.0193 
     10 C10        -3.3930  -17.0496  -51.6491 C.ar      23 UNK        -0.1150 
     11 C11        -4.7486  -17.1709  -51.3356 C.ar      23 UNK        -0.0193 
     12 C12        -5.1482  -17.1300  -49.9979 C.ar      23 UNK        -0.1150 
     13 C13        -4.2039  -16.9732  -48.9801 C.ar      23 UNK        -0.0193 
     14 C14        -2.8471  -16.8926  -49.3052 C.ar      23 UNK        -0.1150 
     15 C15        -4.6641  -16.8212  -47.5393 C.3       23 UNK        -0.0205 
     16 S16        -4.9522  -18.4200  -46.7278 S.3       23 UNK        -0.2404 
     17 C17        -3.3056  -18.8351  -46.0501 C.3       23 UNK        -0.0398 
     18 CA         -2.9254  -20.3227  -46.2448 C.3       11 UNK         0.1400 
     19 N          -1.5290  -20.5883  -45.8813 N.am      11 UNK        -0.5000 
     20 C          -0.8698  -21.7236  -46.1507 C.2       10 UNK         0.5000 
     21 O          -1.3453  -22.6215  -46.8446 O.2       10 UNK        -0.5000 
     22 CA          0.5315  -21.9048  -45.5292 C.3       10 UNK         0.1400 
     23 CB          1.6336  -21.2938  -46.4066 C.3       10 UNK        -0.1800 
     24 N           0.6187  -21.3400  -44.1836 N.am      10 UNK        -0.5000 
     25 C           0.0059  -21.8612  -43.1127 C.2       9 UNK         0.5000 
     26 O          -0.6455  -22.9042  -43.1463 O.2       9 UNK        -0.5000 
     27 CA          0.0969  -21.0631  -41.7983 C.3       9 UNK         0.1400 
     28 CB          1.3916  -21.3982  -41.0436 C.3       9 UNK        -0.1800 
     29 N           0.0084  -19.6164  -42.0082 N.am      9 UNK        -0.5000 
     30 C          -1.0680  -18.9876  -42.5008 C.2       8 UNK         0.5000 
     31 O          -2.1211  -19.5593  -42.7808 O.2       8 UNK        -0.5000 
     32 CA         -0.9261  -17.4836  -42.7957 C.3       8 UNK         0.1400 
     33 CB         -1.0868  -16.6467  -41.5189 C.3       8 UNK        -0.1800 
     34 N           0.3441  -17.1608  -43.4468 N.am      8 UNK        -0.5000 
     35 C           0.7032  -17.5926  -44.6639 C.2       7 UNK         0.5000 
     36 O          -0.0401  -18.2390  -45.3990 O.2       7 UNK        -0.5000 
     37 CA          2.1451  -17.3051  -45.1159 C.3       7 UNK         0.1400 
     38 CB          2.2574  -15.9391  -45.8041 C.3       7 UNK        -0.1800 
     39 N           3.0924  -17.3762  -44.0052 N.am      7 UNK        -0.5000 
     40 C           3.4670  -18.5174  -43.4117 C.2       6 UNK         0.5000 
     41 O           3.0750  -19.6300  -43.7628 O.2       6 UNK        -0.5000 
     42 CA          4.3995  -18.3837  -42.1942 C.3       6 UNK         0.1400 
     43 CB          5.8584  -18.2119  -42.6427 C.3       6 UNK        -0.1800 
     44 N           4.0226  -17.2684  -41.3235 N.am      6 UNK        -0.5000 
     45 C           2.8878  -17.2206  -40.6120 C.2       5 UNK         0.5000 
     46 O           2.0579  -18.1287  -40.5916 O.2       5 UNK        -0.5000 
     47 CA          2.6107  -15.9248  -39.8271 C.3       5 UNK         0.1400 
     48 CB          3.2553  -15.9921  -38.4348 C.3       5 UNK        -0.1800 
     49 N           3.0558  -14.7056  -40.5100 N.am      5 UNK        -0.5000 
     50 C           2.6206  -14.2922  -41.7072 C.2       4 UNK         0.5000 
     51 O           1.8414  -14.9358  -42.4159 O.2       4 UNK        -0.5000 
     52 CA          3.1775  -12.9549  -42.2113 C.3       4 UNK         0.1400 
     53 CB          4.5673  -13.1502  -42.8389 C.3       4 UNK        -0.1800 
     54 N           2.2706  -12.4248  -43.2225 N.am      4 UNK        -0.5000 
     55 C           1.8393  -11.1624  -43.3164 C.2       3 UNK         0.5000 
     56 O           2.2099  -10.2573  -42.5675 O.2       3 UNK        -0.5000 
     57 CA          0.8298  -10.8481  -44.4397 C.3       3 UNK         0.1400 
     58 CB          1.4977  -10.0155  -45.5455 C.3       3 UNK        -0.1800 
     59 N           0.2630  -12.0528  -45.0483 N.am      3 UNK        -0.5000 
     60 C          -0.7679  -12.7596  -44.5749 C.2       2 UNK         0.5000 
     61 O          -1.4042  -12.4304  -43.5728 O.2       2 UNK        -0.5000 
     62 CA         -1.1347  -14.0494  -45.3490 C.3       2 UNK         0.1400 
     63 CB         -2.3980  -14.7331  -44.7975 C.3       2 UNK        -0.1800 
     64 N          -1.3028  -13.8688  -46.7957 N.am      2 UNK        -0.5000 
     65 C          -0.3568  -13.5838  -47.7036 C.2       1 UNK         0.5000 
     66 O           0.8239  -13.3928  -47.4088 O.2       1 UNK        -0.5000 
     67 C          -3.8880  -21.2809  -45.5068 C.2       11 UNK         0.5000 
     68 O          -4.8148  -21.7996  -46.1285 O.2       11 UNK        -0.5000 
     69 N          -3.6177  -21.5633  -44.2235 N.am      12 UNK        -0.5000 
     70 CA         -4.3386  -22.5579  -43.4209 C.3       12 UNK         0.1400 
     71 CB         -3.9206  -22.4340  -41.9482 C.3       12 UNK        -0.1800 
     72 C          -4.1598  -24.0050  -43.9310 C.2       12 UNK         0.5000 
     73 O          -5.0438  -24.8343  -43.7161 O.2       12 UNK        -0.5000 
     74 N          -3.0562  -24.2677  -44.6457 N.am      13 UNK        -0.5000 
     75 CA         -2.7942  -25.5008  -45.3944 C.3       13 UNK         0.1400 
     76 CB         -1.2747  -25.7392  -45.4563 C.3       13 UNK        -0.1800 
     77 C          -3.4281  -25.4978  -46.8067 C.2       13 UNK         0.5000 
     78 O          -3.1540  -26.4144  -47.5816 O.2       13 UNK        -0.5000 
     79 N          -4.2667  -24.4905  -47.0960 N.am      14 UNK        -0.5000 
     80 CA         -5.0129  -24.2030  -48.3208 C.3       14 UNK         0.1400 
     81 CB         -5.8315  -25.4139  -48.8117 C.3       14 UNK        -0.1800 
     82 C          -4.1150  -23.6257  -49.4257 C.2       14 UNK         0.5000 
     83 O          -3.3020  -24.3523  -49.9943 O.2       14 UNK        -0.5000 
     84 N          -4.3134  -22.3351  -49.7364 N.am      15 UNK        -0.5000 
     85 CA         -3.7748  -21.6178  -50.9019 C.3       15 UNK         0.1400 
     86 CB         -4.4711  -22.1236  -52.1816 C.3       15 UNK        -0.1800 
     87 C          -2.2359  -21.6666  -51.0101 C.2       15 UNK         0.5000 
     88 O          -1.6954  -22.0009  -52.0657 O.2       15 UNK        -0.5000 
     89 N          -1.5587  -21.3642  -49.8943 N.am      16 UNK        -0.5000 
     90 CA         -0.1038  -21.4323  -49.7182 C.3       16 UNK         0.1400 
     91 CB          0.6210  -20.3516  -50.5445 C.3       16 UNK        -0.1800 
     92 C           0.4502  -22.8563  -49.9333 C.2       16 UNK         0.5000 
     93 O           1.4380  -23.0355  -50.6439 O.2       16 UNK        -0.5000 
     94 N          -0.2326  -23.8468  -49.3407 N.am      17 UNK        -0.5000 
     95 CA         -0.0217  -25.2891  -49.5135 C.3       17 UNK         0.1400 
     96 CB          1.3024  -25.7291  -48.8565 C.3       17 UNK        -0.1800 
     97 C          -0.1507  -25.7191  -50.9931 C.2       17 UNK         0.5000 
     98 O           0.7101  -26.4250  -51.5218 O.2       17 UNK        -0.5000 
     99 N          -1.2304  -25.2444  -51.6285 N.am      18 UNK        -0.5000 
    100 CA        -1.6272  -25.4214  -53.0277 C.3       18 UNK         0.1400 
    101 CB        -1.9377  -26.9039  -53.3206 C.3       18 UNK        -0.1800 
    102 C         -0.6610  -24.7987  -54.0603 C.2       18 UNK         0.5000 
    103 O         -0.7013  -25.1829  -55.2310 O.2       18 UNK        -0.5000 
    104 N          0.1804  -23.8459  -53.6355 N.am      19 UNK        -0.5000 
    105 CA         1.0890  -23.1084  -54.5140 C.3       19 UNK         0.1400 
    106 CB         2.2555  -22.5373  -53.6957 C.3       19 UNK        -0.1800 
    107 C          0.3760  -21.9838  -55.2855 C.2       19 UNK         0.5000 
    108 O          0.7480  -21.7116  -56.4282 O.2       19 UNK        -0.5000 
    109 N         -0.6235  -21.3488  -54.6597 N.am      20 UNK        -0.5000 
    110 CA        -1.4445  -20.3068  -55.2700 C.3       20 UNK         0.1400 
    111 CB        -1.8794  -19.3067  -54.1870 C.3       20 UNK        -0.1800 
    112 C         -2.6713  -20.9267  -55.9577 C.2       20 UNK         0.5000 
    113 O         -3.1885  -21.9477  -55.4985 O.2       20 UNK        -0.5000 
    114 N         -3.1298  -20.2830  -57.0376 N.am      21 UNK        -0.5000 
    115 CA        -4.3531  -20.6587  -57.7491 C.3       21 UNK         0.1400 
    116 CB        -4.2602  -20.1760  -59.2053 C.3       21 UNK        -0.1800 
    117 C         -5.6127  -20.0883  -57.0709 C.2       21 UNK         0.5000 
    118 O         -6.6519  -20.7488  -57.0720 O.2       21 UNK        -0.5000 
    119 N         -5.4928  -18.8717  -56.5178 N.am      22 UNK        -0.5000 
    120 CA        -6.5572  -18.1036  -55.8417 C.3       22 UNK         0.1400 
    121 C         -7.7537  -17.6879  -56.7557 C.2       22 UNK         0.5000 
    122 N         -7.6077  -17.6850  -58.0753 N.am      22 UNK        -0.7600 
    123 O         -8.8220  -17.3271  -56.2686 O.2       22 UNK        -0.5000 
    124 C124       -7.0184  -18.7462  -54.5021 C.3       23 UNK        -0.0398 
    125 S125       -5.6610  -18.9082  -53.2931 S.3       23 UNK        -0.2404 
    126 C126       -5.7800  -17.3025  -52.4454 C.3       23 UNK        -0.0205 
    127 H127       -5.1918  -12.6017  -50.0159 H         1 UNK         0.0600 
    128 H128       -5.1354  -13.7190  -48.6476 H         1 UNK         0.0600 
    129 H129       -4.5901  -14.2411  -50.2474 H         1 UNK         0.0600 
    130 H130       -2.4105  -14.7039  -49.7641 H         1 UNK         0.3000 
    131 H131       -0.6206  -12.4463  -49.4638 H         1 UNK         0.0600 
    132 H132       -0.1673  -14.1555  -51.1630 H         1 UNK         0.0800 
    133 H133        1.1489  -13.9629  -50.0597 H         1 UNK         0.0800 
    134 H134       -0.8846  -16.1937  -51.9678 H         1 UNK         0.0800 
    135 H135       -0.6256  -17.7904  -51.3483 H         1 UNK         0.0800 
    136 H136       -3.0878  -17.0679  -52.6857 H         1 UNK         0.1150 
    137 H137       -6.1976  -17.1960  -49.7468 H         1 UNK         0.1150 
    138 H138       -2.1260  -16.7896  -48.5075 H         1 UNK         0.1150 
    139 H139       -3.9501  -16.2302  -46.9672 H         1 UNK         0.0800 
    140 H140       -5.5965  -16.2549  -47.5205 H         1 UNK         0.0800 
    141 H141       -3.2883  -18.5645  -44.9939 H         1 UNK         0.0800 
    142 H142       -2.5572  -18.2068  -46.5340 H         1 UNK         0.0800 
    143 H143       -3.0184  -20.5412  -47.3104 H         1 UNK         0.0600 
    144 H144       -1.0375  -19.8436  -45.3944 H         1 UNK         0.3000 
    145 H145        0.7246  -22.9770  -45.4535 H         1 UNK         0.0600 
    146 H146        2.5977  -21.3102  -45.8982 H         1 UNK         0.0600 
    147 H147        1.7594  -21.8640  -47.3262 H         1 UNK         0.0600 
    148 H148        1.4157  -20.2595  -46.6749 H         1 UNK         0.0600 
    149 H149        1.1953  -20.5145  -44.0651 H         1 UNK         0.3000 
    150 H150       -0.7465  -21.3606  -41.1721 H         1 UNK         0.0600 
    151 H151        1.4687  -22.4700  -40.8568 H         1 UNK         0.0600 
    152 H152        1.4244  -20.8959  -40.0766 H         1 UNK         0.0600 
    153 H153        2.2761  -21.0977  -41.6055 H         1 UNK         0.0600 
    154 H154        0.8209  -19.0668  -41.7426 H         1 UNK         0.3000 
    155 H155       -1.7294  -17.2118  -43.4811 H         1 UNK         0.0600 
    156 H156       -2.0735  -16.7965  -41.0792 H         1 UNK         0.0600 
    157 H157       -0.9792  -15.5817  -41.7261 H         1 UNK         0.0600 
    158 H158       -0.3495  -16.9162  -40.7639 H         1 UNK         0.0600 
    159 H159        0.9902  -16.5720  -42.9290 H         1 UNK         0.3000 
    160 H160        2.4173  -18.0686  -45.8478 H         1 UNK         0.0600 
    161 H161        2.0372  -15.1176  -45.1232 H         1 UNK         0.0600 
    162 H162        1.5634  -15.8740  -46.6427 H         1 UNK         0.0600 
    163 H163        3.2593  -15.7806  -46.2029 H         1 UNK         0.0600 
    164 H164        3.4107  -16.4996  -43.6201 H         1 UNK         0.3000 
    165 H165        4.3264  -19.3075  -41.6161 H         1 UNK         0.0600 
    166 H166        6.5339  -18.1943  -41.7873 H         1 UNK         0.0600 
    167 H167        6.1689  -19.0383  -43.2836 H         1 UNK         0.0600 
    168 H168        6.0033  -17.2882  -43.2044 H         1 UNK         0.0600 
    169 H169        4.6517  -16.4802  -41.2842 H         1 UNK         0.3000 
    170 H170        1.5299  -15.8481  -39.6948 H         1 UNK         0.0600 
    171 H171        2.9251  -16.8802  -37.8940 H         1 UNK         0.0600 
    172 H172        4.3436  -16.0303  -38.4955 H         1 UNK         0.0600 
    173 H173        2.9821  -15.1265  -37.8309 H         1 UNK         0.0600 
    174 H174        3.7081  -14.1249  -40.0027 H         1 UNK         0.3000 
    175 H175        3.2491  -12.2702  -41.3637 H         1 UNK         0.0600 
    176 H176        4.5362  -13.8462  -43.6783 H         1 UNK         0.0600 
    177 H177        4.9678  -12.2047  -43.2051 H         1 UNK         0.0600 
    178 H178        5.2781  -13.5423  -42.1106 H         1 UNK         0.0600 
    179 H179        1.8537  -13.1221  -43.8227 H         1 UNK         0.3000 
    180 H180        0.0240  -10.2543  -44.0031 H         1 UNK         0.0600 
    181 H181        2.3136  -10.5611  -46.0214 H         1 UNK         0.0600 
    182 H182        1.9106   -9.0890  -45.1445 H         1 UNK         0.0600 
    183 H183        0.7808   -9.7422  -46.3200 H         1 UNK         0.0600 
    184 H184        0.7102  -12.3946  -45.8969 H         1 UNK         0.3000 
    185 H185       -0.3054  -14.7390  -45.1946 H         1 UNK         0.0600 
    186 H186       -2.3409  -14.8647  -43.7168 H         1 UNK         0.0600 
    187 H187       -3.2961  -14.1515  -45.0086 H         1 UNK         0.0600 
    188 H188       -2.5237  -15.7242  -45.2312 H         1 UNK         0.0600 
    189 H189       -2.2466  -13.9539  -47.1410 H         1 UNK         0.3000 
    190 H190       -2.8807  -21.0448  -43.7534 H         1 UNK         0.3000 
    191 H191       -5.4027  -22.3219  -43.4867 H         1 UNK         0.0600 
    192 H192       -2.8698  -22.6798  -41.8023 H         1 UNK         0.0600 
    193 H193       -4.0828  -21.4224  -41.5753 H         1 UNK         0.0600 
    194 H194       -4.5032  -23.1096  -41.3208 H         1 UNK         0.0600 
    195 H195       -2.3687  -23.5330  -44.7470 H         1 UNK         0.3000 
    196 H196       -3.2362  -26.3384  -44.8513 H         1 UNK         0.0600 
    197 H197       -0.8275  -25.7028  -44.4627 H         1 UNK         0.0600 
    198 H198       -0.7700  -25.0011  -46.0777 H         1 UNK         0.0600 
    199 H199       -1.0508  -26.7205  -45.8761 H         1 UNK         0.0600 
    200 H200       -4.3650  -23.7658  -46.3946 H         1 UNK         0.3000 
    201 H201       -5.7369  -23.4354  -48.0439 H         1 UNK         0.0600 
    202 H202       -6.4878  -25.1257  -49.6335 H         1 UNK         0.0600 
    203 H203       -6.4606  -25.8146  -48.0169 H         1 UNK         0.0600 
    204 H204       -5.1962  -26.2205  -49.1781 H         1 UNK         0.0600 
    205 H205       -4.9804  -21.8148  -49.1831 H         1 UNK         0.3000 
    206 H206       -4.0389  -20.5662  -50.7763 H         1 UNK         0.0600 
    207 H207       -5.5542  -22.0294  -52.1058 H         1 UNK         0.0600 
    208 H208       -4.1599  -21.5446  -53.0502 H         1 UNK         0.0600 
    209 H209       -4.2377  -23.1685  -52.3868 H         1 UNK         0.0600 
    210 H210       -2.0910  -21.1574  -49.0628 H         1 UNK         0.3000 
    211 H211        0.0838  -21.1855  -48.6793 H         1 UNK         0.0600 
    212 H212        0.3658  -19.3624  -50.1710 H         1 UNK         0.0600 
    213 H213        1.7041  -20.4446  -50.4578 H         1 UNK         0.0600 
    214 H214        0.3707  -20.3967  -51.6043 H         1 UNK         0.0600 
    215 H215       -1.0224  -23.5893  -48.7599 H         1 UNK         0.3000 
    216 H216       -0.8341  -25.7834  -48.9792 H         1 UNK         0.0600 
    217 H217        1.4084  -26.8140  -48.8844 H         1 UNK         0.0600 
    218 H218        2.1691  -25.3027  -49.3622 H         1 UNK         0.0600 
    219 H219        1.3412  -25.4259  -47.8101 H         1 UNK         0.0600 
    220 H220       -1.8970  -24.7165  -51.0655 H         1 UNK         0.3000 
    221 H221       -2.5602  -24.8669  -53.1346 H         1 UNK         0.0600 
    222 H222       -1.0366  -27.5174  -53.2998 H         1 UNK         0.0600 
    223 H223       -2.6387  -27.3108  -52.5916 H         1 UNK         0.0600 
    224 H224       -2.3917  -27.0235  -54.3048 H         1 UNK         0.0600 
    225 H225        0.1434  -23.5609  -52.6651 H         1 UNK         0.3000 
    226 H226        1.5080  -23.8025  -55.2457 H         1 UNK         0.0600 
    227 H227        2.7760  -23.3226  -53.1471 H         1 UNK         0.0600 
    228 H228        2.9862  -22.0534  -54.3449 H         1 UNK         0.0600 
    229 H229        1.9153  -21.7925  -52.9761 H         1 UNK         0.0600 
    230 H230       -0.9275  -21.6765  -53.7451 H         1 UNK         0.3000 
    231 H231       -0.8561  -19.7647  -56.0134 H         1 UNK         0.0600 
    232 H232       -2.4452  -18.4829  -54.6232 H         1 UNK         0.0600 
    233 H233       -1.0174  -18.8770  -53.6767 H         1 UNK         0.0600 
    234 H234       -2.5150  -19.7728  -53.4344 H         1 UNK         0.0600 
    235 H235       -2.6402  -19.4656  -57.3722 H         1 UNK         0.3000 
    236 H236       -4.4435  -21.7473  -57.7624 H         1 UNK         0.0600 
    237 H237       -3.4079  -20.6262  -59.7147 H         1 UNK         0.0600 
    238 H238       -5.1546  -20.4523  -59.7655 H         1 UNK         0.0600 
    239 H239       -4.1543  -19.0924  -59.2682 H         1 UNK         0.0600 
    240 H240       -4.5959  -18.4135  -56.5692 H         1 UNK         0.3000 
    241 H241       -6.0937  -17.1504  -55.5862 H         1 UNK         0.0600 
    242 H242       -8.3806  -17.4046  -58.6587 H         1 UNK         0.3800 
    243 H243       -6.7364  -17.9627  -58.4972 H         1 UNK         0.3800 
    244 H244       -7.8151  -18.1620  -54.0393 H         1 UNK         0.0800 
    245 H245       -7.4420  -19.7352  -54.6802 H         1 UNK         0.0800 
    246 H246       -6.7878  -17.1804  -52.0454 H         1 UNK         0.0800 
    247 H247       -5.6328  -16.4980  -53.1672 H         1 UNK         0.0800 
@<TRIPOS>BOND
     1    1    2 1    
     2    1  127 1    
     3    1  128 1    
     4    1  129 1    
     5    2    3 2    
     6    2    4 am   BACKBONE|DICT|INTERRES
     7    4    5 1    
     8    4  130 1    
     9    5    6 1    
    10    5   65 1    
    11    5  131 1    
    12    6    7 1    
    13    6  132 1    
    14    6  133 1    
    15    7    8 1    
    16    8    9 1    
    17    8  134 1    
    18    8  135 1    
    19    9   10 ar   
    20    9   14 ar   
    21   10   11 ar   
    22   10  136 1    
    23   11   12 ar   
    24   11  126 1    
    25   12   13 ar   
    26   12  137 1    
    27   13   14 ar   
    28   13   15 1    
    29   14  138 1    
    30   15   16 1    
    31   15  139 1    
    32   15  140 1    
    33   16   17 1    
    34   17   18 1    
    35   17  141 1    
    36   17  142 1    
    37   18   19 1    
    38   18   67 1    
    39   18  143 1    
    40   19   20 am   BACKBONE|DICT|INTERRES
    41   19  144 1    
    42   20   21 2    
    43   20   22 1    
    44   22   23 1    
    45   22   24 1    
    46   22  145 1    
    47   23  146 1    
    48   23  147 1    
    49   23  148 1    
    50   24   25 am   BACKBONE|DICT|INTERRES
    51   24  149 1    
    52   25   26 2    
    53   25   27 1    
    54   27   28 1    
    55   27   29 1    
    56   27  150 1    
    57   28  151 1    
    58   28  152 1    
    59   28  153 1    
    60   29   30 am   BACKBONE|DICT|INTERRES
    61   29  154 1    
    62   30   31 2    
    63   30   32 1    
    64   32   33 1    
    65   32   34 1    
    66   32  155 1    
    67   33  156 1    
    68   33  157 1    
    69   33  158 1    
    70   34   35 am   BACKBONE|DICT|INTERRES
    71   34  159 1    
    72   35   36 2    
    73   35   37 1    
    74   37   38 1    
    75   37   39 1    
    76   37  160 1    
    77   38  161 1    
    78   38  162 1    
    79   38  163 1    
    80   39   40 am   BACKBONE|DICT|INTERRES
    81   39  164 1    
    82   40   41 2    
    83   40   42 1    
    84   42   43 1    
    85   42   44 1    
    86   42  165 1    
    87   43  166 1    
    88   43  167 1    
    89   43  168 1    
    90   44   45 am   BACKBONE|DICT|INTERRES
    91   44  169 1    
    92   45   46 2    
    93   45   47 1    
    94   47   48 1    
    95   47   49 1    
    96   47  170 1    
    97   48  171 1    
    98   48  172 1    
    99   48  173 1    
   100   49   50 am   BACKBONE|DICT|INTERRES
   101   49  174 1    
   102   50   51 2    
   103   50   52 1    
   104   52   53 1    
   105   52   54 1    
   106   52  175 1    
   107   53  176 1    
   108   53  177 1    
   109   53  178 1    
   110   54   55 am   BACKBONE|DICT|INTERRES
   111   54  179 1    
   112   55   56 2    
   113   55   57 1    
   114   57   58 1    
   115   57   59 1    
   116   57  180 1    
   117   58  181 1    
   118   58  182 1    
   119   58  183 1    
   120   59   60 am   BACKBONE|DICT|INTERRES
   121   59  184 1    
   122   60   61 2    
   123   60   62 1    
   124   62   63 1    
   125   62   64 1    
   126   62  185 1    
   127   63  186 1    
   128   63  187 1    
   129   63  188 1    
   130   64   65 am   BACKBONE|DICT|INTERRES
   131   64  189 1    
   132   65   66 2    
   133   67   68 2    
   134   67   69 am   BACKBONE|DICT|INTERRES
   135   69   70 1    
   136   69  190 1    
   137   70   71 1    
   138   70   72 1    
   139   70  191 1    
   140   71  192 1    
   141   71  193 1    
   142   71  194 1    
   143   72   73 2    
   144   72   74 am   BACKBONE|DICT|INTERRES
   145   74   75 1    
   146   74  195 1    
   147   75   76 1    
   148   75   77 1    
   149   75  196 1    
   150   76  197 1    
   151   76  198 1    
   152   76  199 1    
   153   77   78 2    
   154   77   79 am   BACKBONE|DICT|INTERRES
   155   79   80 1    
   156   79  200 1    
   157   80   81 1    
   158   80   82 1    
   159   80  201 1    
   160   81  202 1    
   161   81  203 1    
   162   81  204 1    
   163   82   83 2    
   164   82   84 am   BACKBONE|DICT|INTERRES
   165   84   85 1    
   166   84  205 1    
   167   85   86 1    
   168   85   87 1    
   169   85  206 1    
   170   86  207 1    
   171   86  208 1    
   172   86  209 1    
   173   87   88 2    
   174   87   89 am   BACKBONE|DICT|INTERRES
   175   89   90 1    
   176   89  210 1    
   177   90   91 1    
   178   90   92 1    
   179   90  211 1    
   180   91  212 1    
   181   91  213 1    
   182   91  214 1    
   183   92   93 2    
   184   92   94 am   BACKBONE|DICT|INTERRES
   185   94   95 1    
   186   94  215 1    
   187   95   96 1    
   188   95   97 1    
   189   95  216 1    
   190   96  217 1    
   191   96  218 1    
   192   96  219 1    
   193   97   98 2    
   194   97   99 am   BACKBONE|DICT|INTERRES
   195   99  100 1    
   196   99  220 1    
   197  100  101 1    
   198  100  102 1    
   199  100  221 1    
   200  101  222 1    
   201  101  223 1    
   202  101  224 1    
   203  102  103 2    
   204  102  104 am   BACKBONE|DICT|INTERRES
   205  104  105 1    
   206  104  225 1    
   207  105  106 1    
   208  105  107 1    
   209  105  226 1    
   210  106  227 1    
   211  106  228 1    
   212  106  229 1    
   213  107  108 2    
   214  107  109 am   BACKBONE|DICT|INTERRES
   215  109  110 1    
   216  109  230 1    
   217  110  111 1    
   218  110  112 1    
   219  110  231 1    
   220  111  232 1    
   221  111  233 1    
   222  111  234 1    
   223  112  113 2    
   224  112  114 am   BACKBONE|DICT|INTERRES
   225  114  115 1    
   226  114  235 1    
   227  115  116 1    
   228  115  117 1    
   229  115  236 1    
   230  116  237 1    
   231  116  238 1    
   232  116  239 1    
   233  117  118 2    
   234  117  119 am   BACKBONE|DICT|INTERRES
   235  119  120 1    
   236  119  240 1    
   237  120  121 1    
   238  120  124 1    
   239  120  241 1    
   240  121  122 am   BACKBONE|DICT|INTERRES
   241  121  123 2    
   242  122  242 1    
   243  122  243 1    
   244  124  125 1    
   245  124  244 1    
   246  124  245 1    
   247  125  126 1    
   248  126  246 1    
   249  126  247 1    
@<TRIPOS>SUBSTRUCTURE
     1 UNK         1 GROUP             0       ****    0 ROOT    
