@<TRIPOS>MOLECULE
3R540
247   249    1
SMALL
USER_CHARGES


@<TRIPOS>ATOM
      1 CA         -2.8329  -17.6408  -48.6552 C.3       0 UNK        -0.1800 
      2 C          -2.6455  -16.3023  -47.9551 C.2       0 UNK         0.5000 
      3 O          -3.2713  -16.0577  -46.9237 O.2       0 UNK        -0.5000 
      4 N          -1.7968  -15.4340  -48.5189 N.am      1 UNK        -0.5000 
      5 CA         -1.4437  -14.1250  -47.9670 C.3       1 UNK         0.1400 
      6 C6         -0.7881  -13.2061  -49.0382 C.3       23 UNK        -0.0398 
      7 S7          0.9877  -13.4753  -49.4127 S.3       23 UNK        -0.2404 
      8 C8          0.9680  -14.2892  -51.0544 C.3       23 UNK        -0.0205 
      9 C9          0.9545  -15.8210  -51.0499 C.ar      23 UNK        -0.0193 
     10 C10         1.1033  -16.4995  -52.2652 C.ar      23 UNK        -0.1150 
     11 C11         1.1202  -17.8988  -52.3128 C.ar      23 UNK        -0.0193 
     12 C12         0.9618  -18.6253  -51.1287 C.ar      23 UNK        -0.1150 
     13 C13         0.7881  -17.9652  -49.9119 C.ar      23 UNK        -0.0193 
     14 C14         0.8105  -16.5721  -49.8789 C.ar      23 UNK        -0.1150 
     15 C15         0.5252  -18.7399  -48.6335 C.3       23 UNK        -0.0205 
     16 S16         2.0201  -19.5331  -47.9718 S.3       23 UNK        -0.2404 
     17 C17         1.4445  -19.9114  -46.2815 C.3       23 UNK        -0.0398 
     18 CA          0.8940  -21.3459  -46.0961 C.3       11 UNK         0.1400 
     19 N           0.6402  -21.6275  -44.6851 N.am      11 UNK        -0.5000 
     20 C           0.6046  -22.8520  -44.1455 C.2       10 UNK         0.5000 
     21 O           0.8662  -23.8840  -44.7636 O.2       10 UNK        -0.5000 
     22 CA          0.1762  -22.9327  -42.6680 C.3       10 UNK         0.1400 
     23 CB          1.3904  -22.7545  -41.7437 C.3       10 UNK        -0.1800 
     24 N          -0.8454  -21.9441  -42.3130 N.am      10 UNK        -0.5000 
     25 C          -2.0912  -21.9278  -42.8069 C.2       9 UNK         0.5000 
     26 O          -2.5162  -22.7457  -43.6234 O.2       9 UNK        -0.5000 
     27 CA         -3.0041  -20.7821  -42.3346 C.3       9 UNK         0.1400 
     28 CB         -3.6468  -21.1319  -40.9842 C.3       9 UNK        -0.1800 
     29 N          -2.3430  -19.4790  -42.2256 N.am      9 UNK        -0.5000 
     30 C          -1.6704  -18.8309  -43.1849 C.2       8 UNK         0.5000 
     31 O          -1.4016  -19.3230  -44.2798 O.2       8 UNK        -0.5000 
     32 CA         -1.1966  -17.3993  -42.8683 C.3       8 UNK         0.1400 
     33 CB         -2.3659  -16.3986  -42.9053 C.3       8 UNK        -0.1800 
     34 N          -0.4208  -17.2743  -41.6283 N.am      8 UNK        -0.5000 
     35 C          -0.7886  -17.4973  -40.3562 C.2       7 UNK         0.5000 
     36 O          -1.9228  -17.8375  -40.0169 O.2       7 UNK        -0.5000 
     37 CA          0.3012  -17.3487  -39.2749 C.3       7 UNK         0.1400 
     38 CB          0.8291  -18.7334  -38.8661 C.3       7 UNK        -0.1800 
     39 N           1.4309  -16.5226  -39.7035 N.am      7 UNK        -0.5000 
     40 C           1.3975  -15.1881  -39.8205 C.2       6 UNK         0.5000 
     41 O           0.4305  -14.4971  -39.4975 O.2       6 UNK        -0.5000 
     42 CA          2.6481  -14.5131  -40.4181 C.3       6 UNK         0.1400 
     43 CB          3.5762  -14.0174  -39.2984 C.3       6 UNK        -0.1800 
     44 N           3.4191  -15.3582  -41.3398 N.am      6 UNK        -0.5000 
     45 C           2.9501  -15.8627  -42.4884 C.2       5 UNK         0.5000 
     46 O           1.7744  -15.7834  -42.8472 O.2       5 UNK        -0.5000 
     47 CA          3.9441  -16.5965  -43.3899 C.3       5 UNK         0.1400 
     48 CB          3.6694  -18.1111  -43.3928 C.3       5 UNK        -0.1800 
     49 N           3.7823  -16.0476  -44.7293 N.am      5 UNK        -0.5000 
     50 C           4.7112  -16.0461  -45.6905 C.2       4 UNK         0.5000 
     51 O           5.8159  -16.5790  -45.5776 O.2       4 UNK        -0.5000 
     52 CA          4.3543  -15.3030  -46.9901 C.3       4 UNK         0.1400 
     53 CB          3.5850  -16.2236  -47.9438 C.3       4 UNK        -0.1800 
     54 N           3.5646  -14.0941  -46.7471 N.am      4 UNK        -0.5000 
     55 C           4.0763  -12.9407  -46.2915 C.2       3 UNK         0.5000 
     56 O           5.2713  -12.7770  -46.0419 O.2       3 UNK        -0.5000 
     57 CA          3.0977  -11.7691  -46.0782 C.3       3 UNK         0.1400 
     58 CB          3.0675  -10.8544  -47.3121 C.3       3 UNK        -0.1800 
     59 N           1.7379  -12.2163  -45.7744 N.am      3 UNK        -0.5000 
     60 C           1.3587  -12.7188  -44.5910 C.2       2 UNK         0.5000 
     61 O           2.1080  -12.7734  -43.6162 O.2       2 UNK        -0.5000 
     62 CA         -0.0910  -13.2349  -44.4632 C.3       2 UNK         0.1400 
     63 CB         -0.8969  -12.3590  -43.4912 C.3       2 UNK        -0.1800 
     64 N          -0.8077  -13.3071  -45.7414 N.am      2 UNK        -0.5000 
     65 C          -0.6078  -14.2514  -46.6702 C.2       1 UNK         0.5000 
     66 O           0.2205  -15.1579  -46.5478 O.2       1 UNK        -0.5000 
     67 C          -0.3845  -21.6060  -46.9180 C.2       11 UNK         0.5000 
     68 O          -0.3132  -22.2542  -47.9612 O.2       11 UNK        -0.5000 
     69 N          -1.5351  -21.1215  -46.4256 N.am      12 UNK        -0.5000 
     70 CA         -2.8465  -21.2358  -47.0671 C.3       12 UNK         0.1400 
     71 CB         -3.9040  -20.5100  -46.2252 C.3       12 UNK        -0.1800 
     72 C          -3.2739  -22.6853  -47.3484 C.2       12 UNK         0.5000 
     73 O          -3.8287  -22.9508  -48.4138 O.2       12 UNK        -0.5000 
     74 N          -2.9627  -23.6010  -46.4210 N.am      13 UNK        -0.5000 
     75 CA         -3.1757  -25.0416  -46.5660 C.3       13 UNK         0.1400 
     76 CB         -2.7346  -25.7501  -45.2767 C.3       13 UNK        -0.1800 
     77 C          -2.4567  -25.6423  -47.7905 C.2       13 UNK         0.5000 
     78 O          -3.0500  -26.4517  -48.5048 O.2       13 UNK        -0.5000 
     79 N          -1.2121  -25.2055  -48.0298 N.am      14 UNK        -0.5000 
     80 CA         -0.4120  -25.5878  -49.1934 C.3       14 UNK         0.1400 
     81 CB          1.0716  -25.3066  -48.9101 C.3       14 UNK        -0.1800 
     82 C          -0.8710  -24.8713  -50.4765 C.2       14 UNK         0.5000 
     83 O          -0.8420  -25.4733  -51.5507 O.2       14 UNK        -0.5000 
     84 N          -1.3221  -23.6164  -50.3453 N.am      15 UNK        -0.5000 
     85 CA         -1.8360  -22.7535  -51.4135 C.3       15 UNK         0.1400 
     86 CB         -1.7459  -21.2918  -50.9475 C.3       15 UNK        -0.1800 
     87 C          -3.2617  -23.1390  -51.8713 C.2       15 UNK         0.5000 
     88 O          -4.1487  -22.2832  -51.9471 O.2       15 UNK        -0.5000 
     89 N          -3.4457  -24.4301  -52.1784 N.am      16 UNK        -0.5000 
     90 CA         -4.6637  -25.0722  -52.6763 C.3       16 UNK         0.1400 
     91 CB         -4.9527  -24.6144  -54.1209 C.3       16 UNK        -0.1800 
     92 C          -5.8697  -24.9132  -51.7268 C.2       16 UNK         0.5000 
     93 O          -6.9775  -24.6294  -52.1824 O.2       16 UNK        -0.5000 
     94 N          -5.6251  -25.0974  -50.4199 N.am      17 UNK        -0.5000 
     95 CA         -6.5995  -25.0166  -49.3243 C.3       17 UNK         0.1400 
     96 CB         -7.5946  -26.1936  -49.3930 C.3       17 UNK        -0.1800 
     97 C          -7.2913  -23.6387  -49.2498 C.2       17 UNK         0.5000 
     98 O          -8.5201  -23.5476  -49.2635 O.2       17 UNK        -0.5000 
     99 N          -6.4585  -22.5925  -49.1916 N.am      18 UNK        -0.5000 
    100 CA        -6.7861  -21.1678  -49.0963 C.3       18 UNK         0.1400 
    101 CB        -7.6072  -20.8677  -47.8246 C.3       18 UNK        -0.1800 
    102 C         -7.4210  -20.5653  -50.3657 C.2       18 UNK         0.5000 
    103 O         -7.9030  -19.4323  -50.3135 O.2       18 UNK        -0.5000 
    104 N         -7.3845  -21.2924  -51.4917 N.am      19 UNK        -0.5000 
    105 CA        -7.8198  -20.7911  -52.7973 C.3       19 UNK         0.1400 
    106 CB        -8.0822  -21.9708  -53.7436 C.3       19 UNK        -0.1800 
    107 C         -6.8053  -19.8132  -53.4204 C.2       19 UNK         0.5000 
    108 O         -7.2049  -18.9711  -54.2253 O.2       19 UNK        -0.5000 
    109 N         -5.5235  -19.9423  -53.0374 N.am      20 UNK        -0.5000 
    110 CA        -4.3800  -19.1403  -53.4842 C.3       20 UNK         0.1400 
    111 CB        -4.5026  -17.6781  -53.0085 C.3       20 UNK        -0.1800 
    112 C         -4.1167  -19.2767  -54.9972 C.2       20 UNK         0.5000 
    113 O         -3.7725  -18.2996  -55.6655 O.2       20 UNK        -0.5000 
    114 N         -4.2634  -20.5101  -55.5060 N.am      21 UNK        -0.5000 
    115 CA        -4.0831  -20.8882  -56.9137 C.3       21 UNK         0.1400 
    116 CB        -4.4689  -22.3659  -57.0811 C.3       21 UNK        -0.1800 
    117 C         -2.6614  -20.6361  -57.4594 C.2       21 UNK         0.5000 
    118 O         -2.4853  -20.5119  -58.6719 O.2       21 UNK        -0.5000 
    119 N         -1.6853  -20.5428  -56.5500 N.am      22 UNK        -0.5000 
    120 CA        -0.3099  -20.0939  -56.7976 C.3       22 UNK         0.1400 
    121 C         -0.1629  -18.5861  -57.1692 C.2       22 UNK         0.5000 
    122 N         -1.1749  -17.7442  -56.9880 N.am      22 UNK        -0.7600 
    123 O          0.8936  -18.1750  -57.6410 O.2       22 UNK        -0.5000 
    124 C124        0.6135  -20.4836  -55.6146 C.3       23 UNK        -0.0398 
    125 S125        0.0410  -19.8398  -53.9992 S.3       23 UNK        -0.2404 
    126 C126        1.3458  -18.6220  -53.6348 C.3       23 UNK        -0.0205 
    127 H127       -3.8923  -17.8390  -48.8196 H         1 UNK         0.0600 
    128 H128       -2.4280  -18.4346  -48.0306 H         1 UNK         0.0600 
    129 H129       -2.3268  -17.6716  -49.6209 H         1 UNK         0.0600 
    130 H130       -1.2903  -15.7047  -49.3498 H         1 UNK         0.3000 
    131 H131       -2.3891  -13.6525  -47.6903 H         1 UNK         0.0600 
    132 H132       -1.3656  -13.2467  -49.9626 H         1 UNK         0.0800 
    133 H133       -0.8745  -12.1706  -48.7057 H         1 UNK         0.0800 
    134 H134        0.1237  -13.9222  -51.6393 H         1 UNK         0.0800 
    135 H135        1.8648  -13.9643  -51.5841 H         1 UNK         0.0800 
    136 H136        1.2258  -15.9326  -53.1777 H         1 UNK         0.1150 
    137 H137        0.9708  -19.7053  -51.1561 H         1 UNK         0.1150 
    138 H138        0.7146  -16.0850  -48.9224 H         1 UNK         0.1150 
    139 H139        0.1085  -18.0708  -47.8788 H         1 UNK         0.0800 
    140 H140       -0.2360  -19.4944  -48.8270 H         1 UNK         0.0800 
    141 H141        0.7189  -19.1649  -45.9550 H         1 UNK         0.0800 
    142 H142        2.3086  -19.7794  -45.6297 H         1 UNK         0.0800 
    143 H143        1.6583  -22.0408  -46.4521 H         1 UNK         0.0600 
    144 H144        0.3422  -20.8462  -44.1180 H         1 UNK         0.3000 
    145 H145       -0.2426  -23.9270  -42.4984 H         1 UNK         0.0600 
    146 H146        1.1130  -22.8883  -40.6979 H         1 UNK         0.0600 
    147 H147        2.1641  -23.4894  -41.9699 H         1 UNK         0.0600 
    148 H148        1.8366  -21.7647  -41.8491 H         1 UNK         0.0600 
    149 H149       -0.5830  -21.2297  -41.6503 H         1 UNK         0.3000 
    150 H150       -3.8054  -20.6743  -43.0657 H         1 UNK         0.0600 
    151 H151       -4.1656  -22.0903  -41.0328 H         1 UNK         0.0600 
    152 H152       -4.3808  -20.3809  -40.6913 H         1 UNK         0.0600 
    153 H153       -2.9025  -21.1994  -40.1896 H         1 UNK         0.0600 
    154 H154       -2.4530  -18.9865  -41.3417 H         1 UNK         0.3000 
    155 H155       -0.5113  -17.1182  -43.6702 H         1 UNK         0.0600 
    156 H156       -3.1129  -16.6114  -42.1403 H         1 UNK         0.0600 
    157 H157       -2.0129  -15.3784  -42.7539 H         1 UNK         0.0600 
    158 H158       -2.8698  -16.4273  -43.8728 H         1 UNK         0.0600 
    159 H159        0.5250  -16.9419  -41.7829 H         1 UNK         0.3000 
    160 H160       -0.1604  -16.8845  -38.4007 H         1 UNK         0.0600 
    161 H161        1.3090  -19.2456  -39.7013 H         1 UNK         0.0600 
    162 H162        0.0188  -19.3722  -38.5117 H         1 UNK         0.0600 
    163 H163        1.5558  -18.6553  -38.0570 H         1 UNK         0.0600 
    164 H164        2.2734  -17.0058  -39.9784 H         1 UNK         0.3000 
    165 H165        2.3030  -13.6444  -40.9825 H         1 UNK         0.0600 
    166 H166        4.4114  -13.4448  -39.7022 H         1 UNK         0.0600 
    167 H167        3.0417  -13.3641  -38.6072 H         1 UNK         0.0600 
    168 H168        3.9844  -14.8458  -38.7180 H         1 UNK         0.0600 
    169 H169        4.3955  -15.4835  -41.1142 H         1 UNK         0.3000 
    170 H170        4.9609  -16.4081  -43.0387 H         1 UNK         0.0600 
    171 H171        2.6495  -18.3323  -43.7096 H         1 UNK         0.0600 
    172 H172        4.3500  -18.6376  -44.0622 H         1 UNK         0.0600 
    173 H173        3.8023  -18.5328  -42.3959 H         1 UNK         0.0600 
    174 H174        2.9026  -15.5721  -44.8857 H         1 UNK         0.3000 
    175 H175        5.2882  -15.0181  -47.4795 H         1 UNK         0.0600 
    176 H176        3.3921  -15.7298  -48.8962 H         1 UNK         0.0600 
    177 H177        2.6277  -16.5261  -47.5182 H         1 UNK         0.0600 
    178 H178        4.1512  -17.1310  -48.1573 H         1 UNK         0.0600 
    179 H179        2.5714  -14.1544  -46.9253 H         1 UNK         0.3000 
    180 H180        3.4659  -11.1811  -45.2345 H         1 UNK         0.0600 
    181 H181        2.7222  -11.3828  -48.2006 H         1 UNK         0.0600 
    182 H182        4.0624  -10.4644  -47.5310 H         1 UNK         0.0600 
    183 H183        2.4115   -9.9982  -47.1535 H         1 UNK         0.0600 
    184 H184        1.0662  -12.1868  -46.5265 H         1 UNK         0.3000 
    185 H185       -0.0388  -14.2412  -44.0430 H         1 UNK         0.0600 
    186 H186       -0.9810  -11.3322  -43.8491 H         1 UNK         0.0600 
    187 H187       -1.9043  -12.7509  -43.3491 H         1 UNK         0.0600 
    188 H188       -0.4225  -12.3277  -42.5091 H         1 UNK         0.0600 
    189 H189       -1.4979  -12.5881  -45.9056 H         1 UNK         0.3000 
    190 H190       -1.5035  -20.5696  -45.5704 H         1 UNK         0.3000 
    191 H191       -2.7769  -20.7245  -48.0255 H         1 UNK         0.0600 
    192 H192       -3.6038  -19.4866  -45.9988 H         1 UNK         0.0600 
    193 H193       -4.8537  -20.4572  -46.7556 H         1 UNK         0.0600 
    194 H194       -4.0869  -21.0266  -45.2844 H         1 UNK         0.0600 
    195 H195       -2.5625  -23.2851  -45.5424 H         1 UNK         0.3000 
    196 H196       -4.2467  -25.2058  -46.6958 H         1 UNK         0.0600 
    197 H197       -2.8807  -26.8284  -45.3515 H         1 UNK         0.0600 
    198 H198       -3.3120  -25.4024  -44.4198 H         1 UNK         0.0600 
    199 H199       -1.6798  -25.5732  -45.0613 H         1 UNK         0.0600 
    200 H200       -0.8227  -24.4916  -47.4288 H         1 UNK         0.3000 
    201 H201       -0.5255  -26.6622  -49.3533 H         1 UNK         0.0600 
    202 H202        1.4121  -25.8420  -48.0237 H         1 UNK         0.0600 
    203 H203        1.2617  -24.2446  -48.7527 H         1 UNK         0.0600 
    204 H204        1.6946  -25.6296  -49.7449 H         1 UNK         0.0600 
    205 H205       -1.2730  -23.1958  -49.4229 H         1 UNK         0.3000 
    206 H206       -1.1797  -22.8631  -52.2791 H         1 UNK         0.0600 
    207 H207       -0.7708  -21.0787  -50.5131 H         1 UNK         0.0600 
    208 H208       -1.8839  -20.6069  -51.7819 H         1 UNK         0.0600 
    209 H209       -2.5058  -21.0584  -50.2044 H         1 UNK         0.0600 
    210 H210       -2.6379  -25.0372  -52.0698 H         1 UNK         0.3000 
    211 H211       -4.4540  -26.1422  -52.7103 H         1 UNK         0.0600 
    212 H212       -5.1188  -23.5397  -54.1796 H         1 UNK         0.0600 
    213 H213       -5.8364  -25.1089  -54.5260 H         1 UNK         0.0600 
    214 H214       -4.1189  -24.8572  -54.7794 H         1 UNK         0.0600 
    215 H215       -4.6725  -25.2908  -50.1398 H         1 UNK         0.3000 
    216 H216       -6.0311  -25.1236  -48.3996 H         1 UNK         0.0600 
    217 H217       -8.2577  -26.1938  -48.5271 H         1 UNK         0.0600 
    218 H218       -7.0722  -27.1502  -49.4013 H         1 UNK         0.0600 
    219 H219       -8.2214  -26.1459  -50.2841 H         1 UNK         0.0600 
    220 H220       -5.4596  -22.7952  -49.1638 H         1 UNK         0.3000 
    221 H221       -5.8255  -20.6625  -48.9897 H         1 UNK         0.0600 
    222 H222       -8.6282  -21.2417  -47.9043 H         1 UNK         0.0600 
    223 H223       -7.1533  -21.3194  -46.9426 H         1 UNK         0.0600 
    224 H224       -7.6683  -19.7940  -47.6432 H         1 UNK         0.0600 
    225 H225       -6.9829  -22.2204  -51.4630 H         1 UNK         0.3000 
    226 H226       -8.7612  -20.2530  -52.6663 H         1 UNK         0.0600 
    227 H227       -8.8153  -22.6596  -53.3232 H         1 UNK         0.0600 
    228 H228       -8.4720  -21.6239  -54.7014 H         1 UNK         0.0600 
    229 H229       -7.1722  -22.5332  -53.9461 H         1 UNK         0.0600 
    230 H230       -5.2872  -20.7129  -52.4181 H         1 UNK         0.3000 
    231 H231       -3.5050  -19.5643  -52.9934 H         1 UNK         0.0600 
    232 H232       -5.3250  -17.1579  -53.5003 H         1 UNK         0.0600 
    233 H233       -3.5892  -17.1214  -53.2219 H         1 UNK         0.0600 
    234 H234       -4.6678  -17.6274  -51.9321 H         1 UNK         0.0600 
    235 H235       -4.5492  -21.2459  -54.8769 H         1 UNK         0.3000 
    236 H236       -4.7711  -20.2828  -57.5073 H         1 UNK         0.0600 
    237 H237       -5.4926  -22.5488  -56.7533 H         1 UNK         0.0600 
    238 H238       -4.4046  -22.6704  -58.1266 H         1 UNK         0.0600 
    239 H239       -3.8088  -23.0189  -56.5091 H         1 UNK         0.0600 
    240 H240       -1.9327  -20.6511  -55.5780 H         1 UNK         0.3000 
    241 H241        0.0447  -20.6421  -57.6724 H         1 UNK         0.0600 
    242 H242       -1.0600  -16.7757  -57.2401 H         1 UNK         0.3800 
    243 H243       -2.0517  -18.0505  -56.5778 H         1 UNK         0.3800 
    244 H244        0.6561  -21.5707  -55.5365 H         1 UNK         0.0800 
    245 H245        1.6412  -20.1691  -55.8051 H         1 UNK         0.0800 
    246 H246        2.3108  -19.1290  -53.5948 H         1 UNK         0.0800 
    247 H247        1.4005  -17.9080  -54.4583 H         1 UNK         0.0800 
@<TRIPOS>BOND
     1    1    2 1    
     2    1  127 1    
     3    1  128 1    
     4    1  129 1    
     5    2    3 2    
     6    2    4 am   BACKBONE|DICT|INTERRES
     7    4    5 1    
     8    4  130 1    
     9    5    6 1    
    10    5   65 1    
    11    5  131 1    
    12    6    7 1    
    13    6  132 1    
    14    6  133 1    
    15    7    8 1    
    16    8    9 1    
    17    8  134 1    
    18    8  135 1    
    19    9   10 ar   
    20    9   14 ar   
    21   10   11 ar   
    22   10  136 1    
    23   11   12 ar   
    24   11  126 1    
    25   12   13 ar   
    26   12  137 1    
    27   13   14 ar   
    28   13   15 1    
    29   14  138 1    
    30   15   16 1    
    31   15  139 1    
    32   15  140 1    
    33   16   17 1    
    34   17   18 1    
    35   17  141 1    
    36   17  142 1    
    37   18   19 1    
    38   18   67 1    
    39   18  143 1    
    40   19   20 am   BACKBONE|DICT|INTERRES
    41   19  144 1    
    42   20   21 2    
    43   20   22 1    
    44   22   23 1    
    45   22   24 1    
    46   22  145 1    
    47   23  146 1    
    48   23  147 1    
    49   23  148 1    
    50   24   25 am   BACKBONE|DICT|INTERRES
    51   24  149 1    
    52   25   26 2    
    53   25   27 1    
    54   27   28 1    
    55   27   29 1    
    56   27  150 1    
    57   28  151 1    
    58   28  152 1    
    59   28  153 1    
    60   29   30 am   BACKBONE|DICT|INTERRES
    61   29  154 1    
    62   30   31 2    
    63   30   32 1    
    64   32   33 1    
    65   32   34 1    
    66   32  155 1    
    67   33  156 1    
    68   33  157 1    
    69   33  158 1    
    70   34   35 am   BACKBONE|DICT|INTERRES
    71   34  159 1    
    72   35   36 2    
    73   35   37 1    
    74   37   38 1    
    75   37   39 1    
    76   37  160 1    
    77   38  161 1    
    78   38  162 1    
    79   38  163 1    
    80   39   40 am   BACKBONE|DICT|INTERRES
    81   39  164 1    
    82   40   41 2    
    83   40   42 1    
    84   42   43 1    
    85   42   44 1    
    86   42  165 1    
    87   43  166 1    
    88   43  167 1    
    89   43  168 1    
    90   44   45 am   BACKBONE|DICT|INTERRES
    91   44  169 1    
    92   45   46 2    
    93   45   47 1    
    94   47   48 1    
    95   47   49 1    
    96   47  170 1    
    97   48  171 1    
    98   48  172 1    
    99   48  173 1    
   100   49   50 am   BACKBONE|DICT|INTERRES
   101   49  174 1    
   102   50   51 2    
   103   50   52 1    
   104   52   53 1    
   105   52   54 1    
   106   52  175 1    
   107   53  176 1    
   108   53  177 1    
   109   53  178 1    
   110   54   55 am   BACKBONE|DICT|INTERRES
   111   54  179 1    
   112   55   56 2    
   113   55   57 1    
   114   57   58 1    
   115   57   59 1    
   116   57  180 1    
   117   58  181 1    
   118   58  182 1    
   119   58  183 1    
   120   59   60 am   BACKBONE|DICT|INTERRES
   121   59  184 1    
   122   60   61 2    
   123   60   62 1    
   124   62   63 1    
   125   62   64 1    
   126   62  185 1    
   127   63  186 1    
   128   63  187 1    
   129   63  188 1    
   130   64   65 am   BACKBONE|DICT|INTERRES
   131   64  189 1    
   132   65   66 2    
   133   67   68 2    
   134   67   69 am   BACKBONE|DICT|INTERRES
   135   69   70 1    
   136   69  190 1    
   137   70   71 1    
   138   70   72 1    
   139   70  191 1    
   140   71  192 1    
   141   71  193 1    
   142   71  194 1    
   143   72   73 2    
   144   72   74 am   BACKBONE|DICT|INTERRES
   145   74   75 1    
   146   74  195 1    
   147   75   76 1    
   148   75   77 1    
   149   75  196 1    
   150   76  197 1    
   151   76  198 1    
   152   76  199 1    
   153   77   78 2    
   154   77   79 am   BACKBONE|DICT|INTERRES
   155   79   80 1    
   156   79  200 1    
   157   80   81 1    
   158   80   82 1    
   159   80  201 1    
   160   81  202 1    
   161   81  203 1    
   162   81  204 1    
   163   82   83 2    
   164   82   84 am   BACKBONE|DICT|INTERRES
   165   84   85 1    
   166   84  205 1    
   167   85   86 1    
   168   85   87 1    
   169   85  206 1    
   170   86  207 1    
   171   86  208 1    
   172   86  209 1    
   173   87   88 2    
   174   87   89 am   BACKBONE|DICT|INTERRES
   175   89   90 1    
   176   89  210 1    
   177   90   91 1    
   178   90   92 1    
   179   90  211 1    
   180   91  212 1    
   181   91  213 1    
   182   91  214 1    
   183   92   93 2    
   184   92   94 am   BACKBONE|DICT|INTERRES
   185   94   95 1    
   186   94  215 1    
   187   95   96 1    
   188   95   97 1    
   189   95  216 1    
   190   96  217 1    
   191   96  218 1    
   192   96  219 1    
   193   97   98 2    
   194   97   99 am   BACKBONE|DICT|INTERRES
   195   99  100 1    
   196   99  220 1    
   197  100  101 1    
   198  100  102 1    
   199  100  221 1    
   200  101  222 1    
   201  101  223 1    
   202  101  224 1    
   203  102  103 2    
   204  102  104 am   BACKBONE|DICT|INTERRES
   205  104  105 1    
   206  104  225 1    
   207  105  106 1    
   208  105  107 1    
   209  105  226 1    
   210  106  227 1    
   211  106  228 1    
   212  106  229 1    
   213  107  108 2    
   214  107  109 am   BACKBONE|DICT|INTERRES
   215  109  110 1    
   216  109  230 1    
   217  110  111 1    
   218  110  112 1    
   219  110  231 1    
   220  111  232 1    
   221  111  233 1    
   222  111  234 1    
   223  112  113 2    
   224  112  114 am   BACKBONE|DICT|INTERRES
   225  114  115 1    
   226  114  235 1    
   227  115  116 1    
   228  115  117 1    
   229  115  236 1    
   230  116  237 1    
   231  116  238 1    
   232  116  239 1    
   233  117  118 2    
   234  117  119 am   BACKBONE|DICT|INTERRES
   235  119  120 1    
   236  119  240 1    
   237  120  121 1    
   238  120  124 1    
   239  120  241 1    
   240  121  122 am   BACKBONE|DICT|INTERRES
   241  121  123 2    
   242  122  242 1    
   243  122  243 1    
   244  124  125 1    
   245  124  244 1    
   246  124  245 1    
   247  125  126 1    
   248  126  246 1    
   249  126  247 1    
@<TRIPOS>SUBSTRUCTURE
     1 UNK         1 GROUP             0       ****    0 ROOT    
