@<TRIPOS>MOLECULE
3R540
247   249    1
SMALL
USER_CHARGES


@<TRIPOS>ATOM
      1 CA         -1.5258   -8.4622  -46.4685 C.3       0 UNK        -0.1800 
      2 C          -0.5858   -9.6384  -46.6891 C.2       0 UNK         0.5000 
      3 O           0.5250   -9.6405  -46.1620 O.2       0 UNK        -0.5000 
      4 N          -1.0263  -10.6409  -47.4600 N.am      1 UNK        -0.5000 
      5 CA         -0.2765  -11.8653  -47.7677 C.3       1 UNK         0.1400 
      6 C6         -0.9973  -12.6818  -48.8680 C.3       23 UNK        -0.0398 
      7 S7         -0.0159  -14.0583  -49.5574 S.3       23 UNK        -0.2404 
      8 C8         -0.7410  -15.4848  -48.6880 C.3       23 UNK        -0.0205 
      9 C9         -0.6038  -16.7517  -49.5139 C.ar      23 UNK        -0.0193 
     10 C10        -1.6333  -17.1240  -50.3810 C.ar      23 UNK        -0.1150 
     11 C11        -1.5388  -18.2883  -51.1454 C.ar      23 UNK        -0.0193 
     12 C12        -0.3927  -19.0842  -51.0316 C.ar      23 UNK        -0.1150 
     13 C13         0.6493  -18.7209  -50.1744 C.ar      23 UNK        -0.0193 
     14 C14         0.5368  -17.5528  -49.4133 C.ar      23 UNK        -0.1150 
     15 C15         1.9045  -19.5798  -50.0957 C.3       23 UNK        -0.0205 
     16 S16         1.5931  -21.2241  -49.3741 S.3       23 UNK        -0.2404 
     17 C17         1.1991  -20.7905  -47.6504 C.3       23 UNK        -0.0398 
     18 CA          0.0191  -21.5910  -47.0514 C.3       11 UNK         0.1400 
     19 N          -0.0246  -21.4296  -45.5949 N.am      11 UNK        -0.5000 
     20 C          -0.8593  -22.0673  -44.7630 C.2       10 UNK         0.5000 
     21 O          -1.6741  -22.9132  -45.1241 O.2       10 UNK        -0.5000 
     22 CA         -0.8059  -21.6591  -43.2810 C.3       10 UNK         0.1400 
     23 CB          0.3377  -22.3855  -42.5575 C.3       10 UNK        -0.1800 
     24 N          -0.6642  -20.2144  -43.1019 N.am      10 UNK        -0.5000 
     25 C          -1.5713  -19.3022  -43.4799 C.2       9 UNK         0.5000 
     26 O          -2.6541  -19.5843  -43.9913 O.2       9 UNK        -0.5000 
     27 CA         -1.1736  -17.8245  -43.3174 C.3       9 UNK         0.1400 
     28 CB         -1.2650  -17.3755  -41.8509 C.3       9 UNK        -0.1800 
     29 N           0.1721  -17.5700  -43.8274 N.am      9 UNK        -0.5000 
     30 C           0.5231  -17.6727  -45.1165 C.2       8 UNK         0.5000 
     31 O          -0.2677  -17.9311  -46.0236 O.2       8 UNK        -0.5000 
     32 CA          2.0168  -17.5010  -45.4389 C.3       8 UNK         0.1400 
     33 CB          2.3415  -16.0423  -45.7681 C.3       8 UNK        -0.1800 
     34 N           2.8872  -17.9633  -44.3559 N.am      8 UNK        -0.5000 
     35 C           3.0678  -19.2582  -44.0658 C.2       7 UNK         0.5000 
     36 O           2.4732  -20.1718  -44.6385 O.2       7 UNK        -0.5000 
     37 CA          4.0583  -19.5915  -42.9371 C.3       7 UNK         0.1400 
     38 CB          5.4925  -19.2078  -43.3351 C.3       7 UNK        -0.1800 
     39 N           3.7387  -18.9875  -41.6421 N.am      7 UNK        -0.5000 
     40 C           2.5721  -19.0833  -40.9889 C.2       6 UNK         0.5000 
     41 O           1.5537  -19.5753  -41.4684 O.2       6 UNK        -0.5000 
     42 CA          2.5231  -18.5391  -39.5490 C.3       6 UNK         0.1400 
     43 CB          2.5629  -19.7040  -38.5487 C.3       6 UNK        -0.1800 
     44 N           3.6248  -17.6212  -39.2422 N.am      6 UNK        -0.5000 
     45 C           3.7193  -16.3256  -39.5722 C.2       5 UNK         0.5000 
     46 O           4.7224  -15.6698  -39.2872 O.2       5 UNK        -0.5000 
     47 CA          2.5345  -15.6245  -40.2750 C.3       5 UNK         0.1400 
     48 CB          1.5362  -15.0789  -39.2411 C.3       5 UNK        -0.1800 
     49 N           2.9901  -14.5125  -41.0982 N.am      5 UNK        -0.5000 
     50 C           3.6216  -14.6125  -42.2720 C.2       4 UNK         0.5000 
     51 O           3.8620  -15.6890  -42.8249 O.2       4 UNK        -0.5000 
     52 CA          3.9951  -13.2702  -42.9417 C.3       4 UNK         0.1400 
     53 CB          4.6819  -13.4397  -44.3075 C.3       4 UNK        -0.1800 
     54 N           2.8134  -12.4193  -43.1050 N.am      4 UNK        -0.5000 
     55 C           2.2462  -11.6845  -42.1363 C.2       3 UNK         0.5000 
     56 O           2.7414  -11.5417  -41.0175 O.2       3 UNK        -0.5000 
     57 CA          0.8679  -11.0633  -42.4359 C.3       3 UNK         0.1400 
     58 CB          1.0209   -9.6012  -42.8781 C.3       3 UNK        -0.1800 
     59 N           0.1066  -11.8072  -43.4444 N.am      3 UNK        -0.5000 
     60 C          -0.3520  -13.0598  -43.2878 C.2       2 UNK         0.5000 
     61 O          -0.2223  -13.6987  -42.2442 O.2       2 UNK        -0.5000 
     62 CA         -1.0662  -13.7258  -44.4829 C.3       2 UNK         0.1400 
     63 CB         -2.5129  -14.1004  -44.1237 C.3       2 UNK        -0.1800 
     64 N          -1.0798  -12.9202  -45.7064 N.am      2 UNK        -0.5000 
     65 C          -0.0203  -12.7068  -46.4988 C.2       1 UNK         0.5000 
     66 O           1.1149  -13.1045  -46.2390 O.2       1 UNK        -0.5000 
     67 C          -1.3345  -21.2435  -47.7129 C.2       11 UNK         0.5000 
     68 O          -1.8432  -22.0306  -48.5145 O.2       11 UNK        -0.5000 
     69 N          -1.9234  -20.1065  -47.3145 N.am      12 UNK        -0.5000 
     70 CA         -3.2566  -19.6822  -47.7369 C.3       12 UNK         0.1400 
     71 CB         -3.5057  -18.2398  -47.2703 C.3       12 UNK        -0.1800 
     72 C          -4.3643  -20.6246  -47.2267 C.2       12 UNK         0.5000 
     73 O          -5.2248  -21.0310  -48.0100 O.2       12 UNK        -0.5000 
     74 N          -4.3104  -20.9684  -45.9308 N.am      13 UNK        -0.5000 
     75 CA         -5.2824  -21.8244  -45.2454 C.3       13 UNK         0.1400 
     76 CB         -5.0013  -21.8182  -43.7361 C.3       13 UNK        -0.1800 
     77 C          -5.3335  -23.2695  -45.7736 C.2       13 UNK         0.5000 
     78 O          -6.4055  -23.8766  -45.7554 O.2       13 UNK        -0.5000 
     79 N          -4.2002  -23.7896  -46.2642 N.am      14 UNK        -0.5000 
     80 CA         -4.0464  -25.1095  -46.8830 C.3       14 UNK         0.1400 
     81 CB         -2.5538  -25.4872  -46.8831 C.3       14 UNK        -0.1800 
     82 C          -4.6702  -25.1874  -48.2945 C.2       14 UNK         0.5000 
     83 O          -3.9965  -25.5807  -49.2483 O.2       14 UNK        -0.5000 
     84 N          -5.9480  -24.7970  -48.4019 N.am      15 UNK        -0.5000 
     85 CA         -6.7865  -24.7752  -49.6037 C.3       15 UNK         0.1400 
     86 CB         -7.1647  -26.2154  -50.0087 C.3       15 UNK        -0.1800 
     87 C          -6.1573  -23.9758  -50.7629 C.2       15 UNK         0.5000 
     88 O          -6.1908  -24.4325  -51.9059 O.2       15 UNK        -0.5000 
     89 N          -5.5616  -22.8174  -50.4377 N.am      16 UNK        -0.5000 
     90 CA         -4.7856  -21.9531  -51.3315 C.3       16 UNK         0.1400 
     91 CB         -5.7052  -21.2690  -52.3655 C.3       16 UNK        -0.1800 
     92 C          -3.6099  -22.7140  -51.9761 C.2       16 UNK         0.5000 
     93 O          -3.5768  -22.8847  -53.1971 O.2       16 UNK        -0.5000 
     94 N          -2.7035  -23.2049  -51.1175 N.am      17 UNK        -0.5000 
     95 CA         -1.5258  -24.0175  -51.4365 C.3       17 UNK         0.1400 
     96 CB         -0.4367  -23.1381  -52.0791 C.3       17 UNK        -0.1800 
     97 C          -1.8623  -25.2766  -52.2651 C.2       17 UNK         0.5000 
     98 O          -1.1893  -25.5659  -53.2558 O.2       17 UNK        -0.5000 
     99 N          -2.9156  -25.9890  -51.8389 N.am      18 UNK        -0.5000 
    100 CA        -3.5195  -27.1574  -52.4841 C.3       18 UNK         0.1400 
    101 CB        -2.5646  -28.3683  -52.4297 C.3       18 UNK        -0.1800 
    102 C         -4.0336  -26.8433  -53.9057 C.2       18 UNK         0.5000 
    103 O         -3.6776  -27.5328  -54.8636 O.2       18 UNK        -0.5000 
    104 N         -4.8715  -25.8010  -53.9995 N.am      19 UNK        -0.5000 
    105 CA        -5.5277  -25.2810  -55.2009 C.3       19 UNK         0.1400 
    106 CB        -6.5540  -26.2968  -55.7450 C.3       19 UNK        -0.1800 
    107 C         -4.5316  -24.7858  -56.2693 C.2       19 UNK         0.5000 
    108 O         -4.6563  -25.1318  -57.4460 O.2       19 UNK        -0.5000 
    109 N         -3.5631  -23.9651  -55.8416 N.am      20 UNK        -0.5000 
    110 CA        -2.5563  -23.3479  -56.7102 C.3       20 UNK         0.1400 
    111 CB        -1.3516  -22.9283  -55.8563 C.3       20 UNK        -0.1800 
    112 C         -3.0897  -22.1369  -57.5031 C.2       20 UNK         0.5000 
    113 O         -2.4129  -21.6833  -58.4266 O.2       20 UNK        -0.5000 
    114 N         -4.2707  -21.6260  -57.1189 N.am      21 UNK        -0.5000 
    115 CA        -4.9546  -20.4439  -57.6637 C.3       21 UNK         0.1400 
    116 CB        -5.3150  -20.6374  -59.1519 C.3       21 UNK        -0.1800 
    117 C         -4.2059  -19.1205  -57.3870 C.2       21 UNK         0.5000 
    118 O         -4.3609  -18.1494  -58.1300 O.2       21 UNK        -0.5000 
    119 N         -3.4193  -19.1079  -56.3058 N.am      22 UNK        -0.5000 
    120 CA        -2.7512  -17.9370  -55.7236 C.3       22 UNK         0.1400 
    121 C         -3.7425  -16.8831  -55.1498 C.2       22 UNK         0.5000 
    122 N         -3.3300  -15.6257  -55.0607 N.am      22 UNK        -0.7600 
    123 O         -4.8653  -17.1923  -54.7557 O.2       22 UNK        -0.5000 
    124 C124       -1.6898  -18.3640  -54.6704 C.3       23 UNK        -0.0398 
    125 S125       -2.2681  -19.6534  -53.5102 S.3       23 UNK        -0.2404 
    126 C126       -2.7133  -18.6757  -52.0381 C.3       23 UNK        -0.0205 
    127 H127       -2.4763   -8.5994  -46.9845 H         1 UNK         0.0600 
    128 H128       -1.0686   -7.5433  -46.8355 H         1 UNK         0.0600 
    129 H129       -1.7302   -8.3411  -45.4047 H         1 UNK         0.0600 
    130 H130       -1.9469  -10.5716  -47.8703 H         1 UNK         0.3000 
    131 H131        0.6965  -11.5588  -48.1580 H         1 UNK         0.0600 
    132 H132       -1.9649  -13.0430  -48.5168 H         1 UNK         0.0800 
    133 H133       -1.2252  -12.0228  -49.7071 H         1 UNK         0.0800 
    134 H134       -0.2611  -15.6104  -47.7176 H         1 UNK         0.0800 
    135 H135       -1.7967  -15.3069  -48.4799 H         1 UNK         0.0800 
    136 H136       -2.5173  -16.5059  -50.4537 H         1 UNK         0.1150 
    137 H137       -0.3040  -19.9942  -51.6057 H         1 UNK         0.1150 
    138 H138        1.3356  -17.2616  -48.7463 H         1 UNK         0.1150 
    139 H139        2.3038  -19.7106  -51.1024 H         1 UNK         0.0800 
    140 H140        2.6850  -19.0782  -49.5215 H         1 UNK         0.0800 
    141 H141        1.0118  -19.7211  -47.5654 H         1 UNK         0.0800 
    142 H142        2.1049  -20.9833  -47.0754 H         1 UNK         0.0800 
    143 H143        0.2043  -22.6509  -47.2382 H         1 UNK         0.0600 
    144 H144        0.6561  -20.7929  -45.1928 H         1 UNK         0.3000 
    145 H145       -1.7454  -21.9621  -42.8160 H         1 UNK         0.0600 
    146 H146        0.2469  -23.4667  -42.6686 H         1 UNK         0.0600 
    147 H147        1.3126  -22.0940  -42.9500 H         1 UNK         0.0600 
    148 H148        0.3295  -22.1660  -41.4897 H         1 UNK         0.0600 
    149 H149        0.1953  -19.9017  -42.6548 H         1 UNK         0.3000 
    150 H150       -1.8745  -17.2242  -43.9013 H         1 UNK         0.0600 
    151 H151       -1.0231  -16.3178  -41.7460 H         1 UNK         0.0600 
    152 H152       -0.5874  -17.9377  -41.2085 H         1 UNK         0.0600 
    153 H153       -2.2750  -17.5171  -41.4646 H         1 UNK         0.0600 
    154 H154        0.8977  -17.4015  -43.1476 H         1 UNK         0.3000 
    155 H155        2.2369  -18.0955  -46.3275 H         1 UNK         0.0600 
    156 H156        2.0861  -15.3769  -44.9429 H         1 UNK         0.0600 
    157 H157        1.7885  -15.7076  -46.6448 H         1 UNK         0.0600 
    158 H158        3.4008  -15.9184  -45.9914 H         1 UNK         0.0600 
    159 H159        3.3772  -17.2509  -43.8190 H         1 UNK         0.3000 
    160 H160        4.0294  -20.6741  -42.7978 H         1 UNK         0.0600 
    161 H161        5.7594  -19.6366  -44.3020 H         1 UNK         0.0600 
    162 H162        6.2154  -19.5771  -42.6075 H         1 UNK         0.0600 
    163 H163        5.6155  -18.1263  -43.4094 H         1 UNK         0.0600 
    164 H164        4.5038  -18.5313  -41.1674 H         1 UNK         0.3000 
    165 H165        1.5666  -18.0320  -39.4175 H         1 UNK         0.0600 
    166 H166        2.4664  -19.3467  -37.5232 H         1 UNK         0.0600 
    167 H167        1.7424  -20.4009  -38.7262 H         1 UNK         0.0600 
    168 H168        3.4936  -20.2682  -38.6220 H         1 UNK         0.0600 
    169 H169        4.4021  -18.0363  -38.7496 H         1 UNK         0.3000 
    170 H170        2.0133  -16.3172  -40.9353 H         1 UNK         0.0600 
    171 H171        0.6796  -14.6141  -39.7300 H         1 UNK         0.0600 
    172 H172        1.1506  -15.8710  -38.5991 H         1 UNK         0.0600 
    173 H173        1.9975  -14.3315  -38.5942 H         1 UNK         0.0600 
    174 H174        2.8483  -13.5825  -40.7218 H         1 UNK         0.3000 
    175 H175        4.7062  -12.7735  -42.2785 H         1 UNK         0.0600 
    176 H176        3.9976  -13.8327  -45.0577 H         1 UNK         0.0600 
    177 H177        5.0579  -12.4848  -44.6746 H         1 UNK         0.0600 
    178 H178        5.5329  -14.1188  -44.2425 H         1 UNK         0.0600 
    179 H179        2.3189  -12.5078  -43.9827 H         1 UNK         0.3000 
    180 H180        0.2914  -11.0791  -41.5087 H         1 UNK         0.0600 
    181 H181        0.0546   -9.1488  -43.1020 H         1 UNK         0.0600 
    182 H182        1.6488   -9.5141  -43.7652 H         1 UNK         0.0600 
    183 H183        1.4853   -9.0048  -42.0918 H         1 UNK         0.0600 
    184 H184       -0.0180  -11.3559  -44.3397 H         1 UNK         0.3000 
    185 H185       -0.5253  -14.6508  -44.6939 H         1 UNK         0.0600 
    186 H186       -3.1180  -13.2162  -43.9207 H         1 UNK         0.0600 
    187 H187       -2.9878  -14.6569  -44.9321 H         1 UNK         0.0600 
    188 H188       -2.5481  -14.7326  -43.2355 H         1 UNK         0.0600 
    189 H189       -1.9670  -12.5130  -45.9644 H         1 UNK         0.3000 
    190 H190       -1.4316  -19.4910  -46.6747 H         1 UNK         0.3000 
    191 H191       -3.2797  -19.6940  -48.8284 H         1 UNK         0.0600 
    192 H192       -3.4904  -18.1565  -46.1832 H         1 UNK         0.0600 
    193 H193       -4.4750  -17.8791  -47.6160 H         1 UNK         0.0600 
    194 H194       -2.7470  -17.5635  -47.6616 H         1 UNK         0.0600 
    195 H195       -3.5826  -20.5621  -45.3482 H         1 UNK         0.3000 
    196 H196       -6.2699  -21.3870  -45.4055 H         1 UNK         0.0600 
    197 H197       -5.7332  -22.4224  -43.1985 H         1 UNK         0.0600 
    198 H198       -5.0525  -20.8086  -43.3283 H         1 UNK         0.0600 
    199 H199       -4.0143  -22.2224  -43.5125 H         1 UNK         0.0600 
    200 H200       -3.3508  -23.2396  -46.1806 H         1 UNK         0.3000 
    201 H201       -4.5716  -25.8403  -46.2652 H         1 UNK         0.0600 
    202 H202       -2.1540  -25.5107  -45.8694 H         1 UNK         0.0600 
    203 H203       -1.9614  -24.7759  -47.4606 H         1 UNK         0.0600 
    204 H204       -2.3956  -26.4769  -47.3133 H         1 UNK         0.0600 
    205 H205       -6.3908  -24.4704  -47.5468 H         1 UNK         0.3000 
    206 H206       -7.7048  -24.2522  -49.3338 H         1 UNK         0.0600 
    207 H207       -7.8718  -26.2174  -50.8391 H         1 UNK         0.0600 
    208 H208       -6.2919  -26.7900  -50.3196 H         1 UNK         0.0600 
    209 H209       -7.6368  -26.7457  -49.1818 H         1 UNK         0.0600 
    210 H210       -5.5760  -22.5215  -49.4673 H         1 UNK         0.3000 
    211 H211       -4.3515  -21.1775  -50.7014 H         1 UNK         0.0600 
    212 H212       -6.1755  -21.9897  -53.0349 H         1 UNK         0.0600 
    213 H213       -5.1439  -20.5699  -52.9858 H         1 UNK         0.0600 
    214 H214       -6.4960  -20.7030  -51.8735 H         1 UNK         0.0600 
    215 H215       -2.8063  -22.9880  -50.1320 H         1 UNK         0.3000 
    216 H216       -1.1371  -24.3767  -50.4824 H         1 UNK         0.0600 
    217 H217        0.4770  -23.7052  -52.2593 H         1 UNK         0.0600 
    218 H218       -0.1791  -22.3074  -51.4257 H         1 UNK         0.0600 
    219 H219       -0.7626  -22.7205  -53.0299 H         1 UNK         0.0600 
    220 H220       -3.3745  -25.6848  -50.9815 H         1 UNK         0.3000 
    221 H221       -4.3988  -27.4099  -51.8901 H         1 UNK         0.0600 
    222 H222       -1.6673  -28.2080  -53.0280 H         1 UNK         0.0600 
    223 H223       -2.2525  -28.5771  -51.4064 H         1 UNK         0.0600 
    224 H224       -3.0535  -29.2661  -52.8093 H         1 UNK         0.0600 
    225 H225       -5.1096  -25.2956  -53.1481 H         1 UNK         0.3000 
    226 H226       -6.0838  -24.3998  -54.8772 H         1 UNK         0.0600 
    227 H227       -7.2624  -26.5925  -54.9711 H         1 UNK         0.0600 
    228 H228       -7.1311  -25.8672  -56.5647 H         1 UNK         0.0600 
    229 H229       -6.0727  -27.1994  -56.1224 H         1 UNK         0.0600 
    230 H230       -3.5302  -23.7081  -54.8554 H         1 UNK         0.3000 
    231 H231       -2.2155  -24.0910  -57.4341 H         1 UNK         0.0600 
    232 H232       -1.6283  -22.1658  -55.1286 H         1 UNK         0.0600 
    233 H233       -0.9359  -23.7781  -55.3156 H         1 UNK         0.0600 
    234 H234       -0.5540  -22.5160  -56.4754 H         1 UNK         0.0600 
    235 H235       -4.7271  -22.0734  -56.3369 H         1 UNK         0.3000 
    236 H236       -5.8936  -20.3676  -57.1139 H         1 UNK         0.0600 
    237 H237       -4.4310  -20.6298  -59.7898 H         1 UNK         0.0600 
    238 H238       -5.8373  -21.5807  -59.3119 H         1 UNK         0.0600 
    239 H239       -5.9729  -19.8407  -59.5006 H         1 UNK         0.0600 
    240 H240       -3.3708  -19.9451  -55.7439 H         1 UNK         0.3000 
    241 H241       -2.2203  -17.4460  -56.5416 H         1 UNK         0.0600 
    242 H242       -3.9572  -14.9328  -54.6823 H         1 UNK         0.3800 
    243 H243       -2.4149  -15.3419  -55.3749 H         1 UNK         0.3800 
    244 H244       -0.8264  -18.7780  -55.1925 H         1 UNK         0.0800 
    245 H245       -1.3044  -17.5073  -54.1145 H         1 UNK         0.0800 
    246 H246       -3.4111  -19.2533  -51.4358 H         1 UNK         0.0800 
    247 H247       -3.2574  -17.7858  -52.3569 H         1 UNK         0.0800 
@<TRIPOS>BOND
     1    1    2 1    
     2    1  127 1    
     3    1  128 1    
     4    1  129 1    
     5    2    3 2    
     6    2    4 am   BACKBONE|DICT|INTERRES
     7    4    5 1    
     8    4  130 1    
     9    5    6 1    
    10    5   65 1    
    11    5  131 1    
    12    6    7 1    
    13    6  132 1    
    14    6  133 1    
    15    7    8 1    
    16    8    9 1    
    17    8  134 1    
    18    8  135 1    
    19    9   10 ar   
    20    9   14 ar   
    21   10   11 ar   
    22   10  136 1    
    23   11   12 ar   
    24   11  126 1    
    25   12   13 ar   
    26   12  137 1    
    27   13   14 ar   
    28   13   15 1    
    29   14  138 1    
    30   15   16 1    
    31   15  139 1    
    32   15  140 1    
    33   16   17 1    
    34   17   18 1    
    35   17  141 1    
    36   17  142 1    
    37   18   19 1    
    38   18   67 1    
    39   18  143 1    
    40   19   20 am   BACKBONE|DICT|INTERRES
    41   19  144 1    
    42   20   21 2    
    43   20   22 1    
    44   22   23 1    
    45   22   24 1    
    46   22  145 1    
    47   23  146 1    
    48   23  147 1    
    49   23  148 1    
    50   24   25 am   BACKBONE|DICT|INTERRES
    51   24  149 1    
    52   25   26 2    
    53   25   27 1    
    54   27   28 1    
    55   27   29 1    
    56   27  150 1    
    57   28  151 1    
    58   28  152 1    
    59   28  153 1    
    60   29   30 am   BACKBONE|DICT|INTERRES
    61   29  154 1    
    62   30   31 2    
    63   30   32 1    
    64   32   33 1    
    65   32   34 1    
    66   32  155 1    
    67   33  156 1    
    68   33  157 1    
    69   33  158 1    
    70   34   35 am   BACKBONE|DICT|INTERRES
    71   34  159 1    
    72   35   36 2    
    73   35   37 1    
    74   37   38 1    
    75   37   39 1    
    76   37  160 1    
    77   38  161 1    
    78   38  162 1    
    79   38  163 1    
    80   39   40 am   BACKBONE|DICT|INTERRES
    81   39  164 1    
    82   40   41 2    
    83   40   42 1    
    84   42   43 1    
    85   42   44 1    
    86   42  165 1    
    87   43  166 1    
    88   43  167 1    
    89   43  168 1    
    90   44   45 am   BACKBONE|DICT|INTERRES
    91   44  169 1    
    92   45   46 2    
    93   45   47 1    
    94   47   48 1    
    95   47   49 1    
    96   47  170 1    
    97   48  171 1    
    98   48  172 1    
    99   48  173 1    
   100   49   50 am   BACKBONE|DICT|INTERRES
   101   49  174 1    
   102   50   51 2    
   103   50   52 1    
   104   52   53 1    
   105   52   54 1    
   106   52  175 1    
   107   53  176 1    
   108   53  177 1    
   109   53  178 1    
   110   54   55 am   BACKBONE|DICT|INTERRES
   111   54  179 1    
   112   55   56 2    
   113   55   57 1    
   114   57   58 1    
   115   57   59 1    
   116   57  180 1    
   117   58  181 1    
   118   58  182 1    
   119   58  183 1    
   120   59   60 am   BACKBONE|DICT|INTERRES
   121   59  184 1    
   122   60   61 2    
   123   60   62 1    
   124   62   63 1    
   125   62   64 1    
   126   62  185 1    
   127   63  186 1    
   128   63  187 1    
   129   63  188 1    
   130   64   65 am   BACKBONE|DICT|INTERRES
   131   64  189 1    
   132   65   66 2    
   133   67   68 2    
   134   67   69 am   BACKBONE|DICT|INTERRES
   135   69   70 1    
   136   69  190 1    
   137   70   71 1    
   138   70   72 1    
   139   70  191 1    
   140   71  192 1    
   141   71  193 1    
   142   71  194 1    
   143   72   73 2    
   144   72   74 am   BACKBONE|DICT|INTERRES
   145   74   75 1    
   146   74  195 1    
   147   75   76 1    
   148   75   77 1    
   149   75  196 1    
   150   76  197 1    
   151   76  198 1    
   152   76  199 1    
   153   77   78 2    
   154   77   79 am   BACKBONE|DICT|INTERRES
   155   79   80 1    
   156   79  200 1    
   157   80   81 1    
   158   80   82 1    
   159   80  201 1    
   160   81  202 1    
   161   81  203 1    
   162   81  204 1    
   163   82   83 2    
   164   82   84 am   BACKBONE|DICT|INTERRES
   165   84   85 1    
   166   84  205 1    
   167   85   86 1    
   168   85   87 1    
   169   85  206 1    
   170   86  207 1    
   171   86  208 1    
   172   86  209 1    
   173   87   88 2    
   174   87   89 am   BACKBONE|DICT|INTERRES
   175   89   90 1    
   176   89  210 1    
   177   90   91 1    
   178   90   92 1    
   179   90  211 1    
   180   91  212 1    
   181   91  213 1    
   182   91  214 1    
   183   92   93 2    
   184   92   94 am   BACKBONE|DICT|INTERRES
   185   94   95 1    
   186   94  215 1    
   187   95   96 1    
   188   95   97 1    
   189   95  216 1    
   190   96  217 1    
   191   96  218 1    
   192   96  219 1    
   193   97   98 2    
   194   97   99 am   BACKBONE|DICT|INTERRES
   195   99  100 1    
   196   99  220 1    
   197  100  101 1    
   198  100  102 1    
   199  100  221 1    
   200  101  222 1    
   201  101  223 1    
   202  101  224 1    
   203  102  103 2    
   204  102  104 am   BACKBONE|DICT|INTERRES
   205  104  105 1    
   206  104  225 1    
   207  105  106 1    
   208  105  107 1    
   209  105  226 1    
   210  106  227 1    
   211  106  228 1    
   212  106  229 1    
   213  107  108 2    
   214  107  109 am   BACKBONE|DICT|INTERRES
   215  109  110 1    
   216  109  230 1    
   217  110  111 1    
   218  110  112 1    
   219  110  231 1    
   220  111  232 1    
   221  111  233 1    
   222  111  234 1    
   223  112  113 2    
   224  112  114 am   BACKBONE|DICT|INTERRES
   225  114  115 1    
   226  114  235 1    
   227  115  116 1    
   228  115  117 1    
   229  115  236 1    
   230  116  237 1    
   231  116  238 1    
   232  116  239 1    
   233  117  118 2    
   234  117  119 am   BACKBONE|DICT|INTERRES
   235  119  120 1    
   236  119  240 1    
   237  120  121 1    
   238  120  124 1    
   239  120  241 1    
   240  121  122 am   BACKBONE|DICT|INTERRES
   241  121  123 2    
   242  122  242 1    
   243  122  243 1    
   244  124  125 1    
   245  124  244 1    
   246  124  245 1    
   247  125  126 1    
   248  126  246 1    
   249  126  247 1    
@<TRIPOS>SUBSTRUCTURE
     1 UNK         1 GROUP             0       ****    0 ROOT    
