@<TRIPOS>MOLECULE
3R540
247   249    1
SMALL
USER_CHARGES


@<TRIPOS>ATOM
      1 CA          1.0868  -11.0861  -45.3418 C.3       0 UNK        -0.1800 
      2 C           1.1277  -12.1870  -46.3918 C.2       0 UNK         0.5000 
      3 O           1.8850  -13.1446  -46.2510 O.2       0 UNK        -0.5000 
      4 N           0.3119  -12.0574  -47.4452 N.am      1 UNK        -0.5000 
      5 CA          0.2231  -13.0124  -48.5582 C.3       1 UNK         0.1400 
      6 C6         -0.4514  -12.3518  -49.7883 C.3       23 UNK        -0.0398 
      7 S7         -0.0529  -13.1884  -51.3613 S.3       23 UNK        -0.2404 
      8 C8         -1.6656  -13.9076  -51.8023 C.3       23 UNK        -0.0205 
      9 C9         -1.4976  -15.2360  -52.5207 C.ar      23 UNK        -0.0193 
     10 C10        -1.1854  -15.2741  -53.8816 C.ar      23 UNK        -0.1150 
     11 C11        -1.0397  -16.4980  -54.5419 C.ar      23 UNK        -0.0193 
     12 C12        -1.2118  -17.6892  -53.8290 C.ar      23 UNK        -0.1150 
     13 C13        -1.5118  -17.6642  -52.4628 C.ar      23 UNK        -0.0193 
     14 C14        -1.6613  -16.4324  -51.8197 C.ar      23 UNK        -0.1150 
     15 C15        -1.6969  -18.9647  -51.6929 C.3       23 UNK        -0.0205 
     16 S16        -0.4256  -19.2074  -50.4077 S.3       23 UNK        -0.2404 
     17 C17        -1.2965  -18.6377  -48.9077 C.3       23 UNK        -0.0398 
     18 CA         -1.9089  -19.8280  -48.1398 C.3       11 UNK         0.1400 
     19 N          -0.8961  -20.6969  -47.5381 N.am      11 UNK        -0.5000 
     20 C          -1.1402  -21.9478  -47.1279 C.2       10 UNK         0.5000 
     21 O          -2.2453  -22.4799  -47.1959 O.2       10 UNK        -0.5000 
     22 CA          0.0304  -22.7017  -46.4780 C.3       10 UNK         0.1400 
     23 CB          1.0677  -23.1196  -47.5319 C.3       10 UNK        -0.1800 
     24 N           0.6728  -21.8977  -45.4389 N.am      10 UNK        -0.5000 
     25 C           0.0692  -21.5132  -44.3050 C.2       9 UNK         0.5000 
     26 O          -1.0639  -21.8661  -43.9793 O.2       9 UNK        -0.5000 
     27 CA          0.8442  -20.5406  -43.3990 C.3       9 UNK         0.1400 
     28 CB          1.6481  -21.3122  -42.3419 C.3       9 UNK        -0.1800 
     29 N           1.7439  -19.6396  -44.1230 N.am      9 UNK        -0.5000 
     30 C           1.3742  -18.7184  -45.0252 C.2       8 UNK         0.5000 
     31 O           0.2118  -18.5685  -45.4067 O.2       8 UNK        -0.5000 
     32 CA          2.4981  -17.8148  -45.5668 C.3       8 UNK         0.1400 
     33 CB          1.9619  -16.5830  -46.3142 C.3       8 UNK        -0.1800 
     34 N           3.3553  -17.3722  -44.4663 N.am      8 UNK        -0.5000 
     35 C           4.5539  -17.8878  -44.1615 C.2       7 UNK         0.5000 
     36 O           5.0853  -18.7844  -44.8177 O.2       7 UNK        -0.5000 
     37 CA          5.2474  -17.3729  -42.8821 C.3       7 UNK         0.1400 
     38 CB          6.7861  -17.3517  -43.0005 C.3       7 UNK        -0.1800 
     39 N           4.7270  -16.0924  -42.3921 N.am      7 UNK        -0.5000 
     40 C           4.8499  -14.8789  -42.9541 C.2       6 UNK         0.5000 
     41 O           5.4714  -14.6697  -43.9963 O.2       6 UNK        -0.5000 
     42 CA          4.1572  -13.6982  -42.2394 C.3       6 UNK         0.1400 
     43 CB          3.2900  -12.8889  -43.2151 C.3       6 UNK        -0.1800 
     44 N           3.3063  -14.1458  -41.1363 N.am      6 UNK        -0.5000 
     45 C           3.6590  -14.1815  -39.8443 C.2       5 UNK         0.5000 
     46 O           4.7373  -13.7690  -39.4168 O.2       5 UNK        -0.5000 
     47 CA          2.6447  -14.8101  -38.8655 C.3       5 UNK         0.1400 
     48 CB          1.8239  -13.7145  -38.1683 C.3       5 UNK        -0.1800 
     49 N           1.7250  -15.7560  -39.5056 N.am      5 UNK        -0.5000 
     50 C           2.0812  -16.9251  -40.0576 C.2       4 UNK         0.5000 
     51 O           3.2321  -17.3603  -40.0509 O.2       4 UNK        -0.5000 
     52 CA          0.9835  -17.6994  -40.8100 C.3       4 UNK         0.1400 
     53 CB          0.2955  -18.7151  -39.8871 C.3       4 UNK        -0.1800 
     54 N          -0.0264  -16.8250  -41.4132 N.am      4 UNK        -0.5000 
     55 C           0.2188  -15.9758  -42.4188 C.2       3 UNK         0.5000 
     56 O           1.3265  -15.8412  -42.9444 O.2       3 UNK        -0.5000 
     57 CA         -0.9502  -15.1025  -42.8844 C.3       3 UNK         0.1400 
     58 CB         -0.7485  -13.6467  -42.4356 C.3       3 UNK        -0.1800 
     59 N          -1.0243  -15.1607  -44.3399 N.am      3 UNK        -0.5000 
     60 C          -2.1518  -15.3360  -45.0385 C.2       2 UNK         0.5000 
     61 O          -3.2723  -15.3703  -44.5283 O.2       2 UNK        -0.5000 
     62 CA         -1.9926  -15.4709  -46.5600 C.3       2 UNK         0.1400 
     63 CB         -3.3321  -15.6122  -47.3104 C.3       2 UNK        -0.1800 
     64 N          -1.2583  -14.3208  -47.0776 N.am      2 UNK        -0.5000 
     65 C          -0.4634  -14.3412  -48.1546 C.2       1 UNK         0.5000 
     66 O          -0.2563  -15.3587  -48.8142 O.2       1 UNK        -0.5000 
     67 C          -2.9680  -19.3697  -47.1180 C.2       11 UNK         0.5000 
     68 O          -4.1298  -19.2136  -47.4960 O.2       11 UNK        -0.5000 
     69 N          -2.5766  -19.2173  -45.8439 N.am      12 UNK        -0.5000 
     70 CA         -3.4831  -18.9497  -44.7234 C.3       12 UNK         0.1400 
     71 CB         -2.6682  -18.7126  -43.4428 C.3       12 UNK        -0.1800 
     72 C          -4.5173  -20.0729  -44.5047 C.2       12 UNK         0.5000 
     73 O          -5.6546  -19.7852  -44.1295 O.2       12 UNK        -0.5000 
     74 N          -4.1316  -21.3240  -44.7937 N.am      13 UNK        -0.5000 
     75 CA         -4.9922  -22.5072  -44.7782 C.3       13 UNK         0.1400 
     76 CB         -4.1225  -23.7577  -44.5570 C.3       13 UNK        -0.1800 
     77 C          -5.8597  -22.5971  -46.0531 C.2       13 UNK         0.5000 
     78 O          -5.7762  -23.5768  -46.7972 O.2       13 UNK        -0.5000 
     79 N          -6.6751  -21.5572  -46.2812 N.am      14 UNK        -0.5000 
     80 CA         -7.6621  -21.4095  -47.3568 C.3       14 UNK         0.1400 
     81 CB         -8.8539  -22.3585  -47.1112 C.3       14 UNK        -0.1800 
     82 C          -7.0552  -21.5718  -48.7654 C.2       14 UNK         0.5000 
     83 O          -7.5567  -22.3627  -49.5661 O.2       14 UNK        -0.5000 
     84 N          -5.9576  -20.8471  -49.0280 N.am      15 UNK        -0.5000 
     85 CA         -5.1638  -20.8873  -50.2614 C.3       15 UNK         0.1400 
     86 CB         -5.9579  -20.3150  -51.4541 C.3       15 UNK        -0.1800 
     87 C          -4.5771  -22.2872  -50.5380 C.2       15 UNK         0.5000 
     88 O          -4.5933  -22.7473  -51.6801 O.2       15 UNK        -0.5000 
     89 N          -4.0967  -22.9451  -49.4729 N.am      16 UNK        -0.5000 
     90 CA         -3.5991  -24.3230  -49.4273 C.3       16 UNK         0.1400 
     91 CB         -2.2879  -24.4564  -50.2286 C.3       16 UNK        -0.1800 
     92 C          -4.6857  -25.3318  -49.8426 C.2       16 UNK         0.5000 
     93 O          -4.4589  -26.1610  -50.7228 O.2       16 UNK        -0.5000 
     94 N          -5.8688  -25.1988  -49.2248 N.am      17 UNK        -0.5000 
     95 CA         -7.1085  -25.9231  -49.5291 C.3       17 UNK         0.1400 
     96 CB         -6.9925  -27.4015  -49.1045 C.3       17 UNK        -0.1800 
     97 C          -7.5429  -25.7430  -51.0012 C.2       17 UNK         0.5000 
     98 O          -7.8547  -26.7180  -51.6877 O.2       17 UNK        -0.5000 
     99 N          -7.5221  -24.4816  -51.4530 N.am      18 UNK        -0.5000 
    100 CA        -7.8386  -23.9931  -52.7981 C.3       18 UNK         0.1400 
    101 CB        -9.3201  -24.2550  -53.1408 C.3       18 UNK        -0.1800 
    102 C         -6.8779  -24.4713  -53.9106 C.2       18 UNK         0.5000 
    103 O         -7.2256  -24.3675  -55.0885 O.2       18 UNK        -0.5000 
    104 N         -5.6821  -24.9575  -53.5464 N.am      19 UNK        -0.5000 
    105 CA        -4.6351  -25.3507  -54.4941 C.3       19 UNK         0.1400 
    106 CB        -3.6401  -26.2946  -53.8044 C.3       19 UNK        -0.1800 
    107 C         -3.8912  -24.1459  -55.1026 C.2       19 UNK         0.5000 
    108 O         -3.3403  -24.2790  -56.1960 O.2       19 UNK        -0.5000 
    109 N         -3.8906  -23.0078  -54.3900 N.am      20 UNK        -0.5000 
    110 CA        -3.2358  -21.7406  -54.7232 C.3       20 UNK         0.1400 
    111 CB        -3.8641  -21.1011  -55.9784 C.3       20 UNK        -0.1800 
    112 C         -1.7067  -21.8991  -54.8188 C.2       20 UNK         0.5000 
    113 O         -1.1210  -21.7097  -55.8873 O.2       20 UNK        -0.5000 
    114 N         -1.0915  -22.2610  -53.6841 N.am      21 UNK        -0.5000 
    115 CA         0.3476  -22.4793  -53.4941 C.3       21 UNK         0.1400 
    116 CB         0.5520  -23.2255  -52.1630 C.3       21 UNK        -0.1800 
    117 C          1.1873  -21.1811  -53.5771 C.2       21 UNK         0.5000 
    118 O          1.8605  -20.8085  -52.6160 O.2       21 UNK        -0.5000 
    119 N          1.1197  -20.5141  -54.7329 N.am      22 UNK        -0.5000 
    120 CA         1.7804  -19.2388  -55.0529 C.3       22 UNK         0.1400 
    121 C          3.3363  -19.2968  -55.1367 C.2       22 UNK         0.5000 
    122 N          3.9510  -20.4667  -55.2649 N.am      22 UNK        -0.7600 
    123 O          3.9995  -18.2653  -55.0785 O.2       22 UNK        -0.5000 
    124 C124        1.1627  -18.6295  -56.3421 C.3       23 UNK        -0.0398 
    125 S125        1.0652  -16.8062  -56.3251 S.3       23 UNK        -0.2404 
    126 C126       -0.7105  -16.5235  -56.0271 C.3       23 UNK        -0.0205 
    127 H127        0.4380  -10.2629  -45.6418 H         1 UNK         0.0600 
    128 H128        2.0877  -10.6866  -45.1786 H         1 UNK         0.0600 
    129 H129        0.7187  -11.4816  -44.3961 H         1 UNK         0.0600 
    130 H130       -0.2873  -11.2463  -47.5086 H         1 UNK         0.3000 
    131 H131        1.2484  -13.2658  -48.8378 H         1 UNK         0.0600 
    132 H132       -1.5306  -12.2660  -49.6505 H         1 UNK         0.0800 
    133 H133       -0.0908  -11.3278  -49.8959 H         1 UNK         0.0800 
    134 H134       -2.2145  -13.2064  -52.4325 H         1 UNK         0.0800 
    135 H135       -2.2711  -14.0548  -50.9066 H         1 UNK         0.0800 
    136 H136       -1.0533  -14.3484  -54.4243 H         1 UNK         0.1150 
    137 H137       -1.1058  -18.6356  -54.3392 H         1 UNK         0.1150 
    138 H138       -1.8952  -16.3967  -50.7670 H         1 UNK         0.1150 
    139 H139       -2.6946  -18.9854  -51.2556 H         1 UNK         0.0800 
    140 H140       -1.6488  -19.8135  -52.3740 H         1 UNK         0.0800 
    141 H141       -2.0671  -17.9203  -49.1887 H         1 UNK         0.0800 
    142 H142       -0.5909  -18.0939  -48.2781 H         1 UNK         0.0800 
    143 H143       -2.4443  -20.4382  -48.8678 H         1 UNK         0.0600 
    144 H144        0.0249  -20.3043  -47.4137 H         1 UNK         0.3000 
    145 H145       -0.3693  -23.6057  -46.0134 H         1 UNK         0.0600 
    146 H146        1.5272  -22.2572  -48.0165 H         1 UNK         0.0600 
    147 H147        1.8633  -23.7164  -47.0856 H         1 UNK         0.0600 
    148 H148        0.6069  -23.7265  -48.3125 H         1 UNK         0.0600 
    149 H149        1.6082  -21.5671  -45.6231 H         1 UNK         0.3000 
    150 H150        0.1096  -19.9215  -42.8825 H         1 UNK         0.0600 
    151 H151        0.9964  -21.9575  -41.7513 H         1 UNK         0.0600 
    152 H152        2.1475  -20.6362  -41.6479 H         1 UNK         0.0600 
    153 H153        2.4099  -21.9449  -42.7991 H         1 UNK         0.0600 
    154 H154        2.7244  -19.7033  -43.8917 H         1 UNK         0.3000 
    155 H155        3.0680  -18.4104  -46.2822 H         1 UNK         0.0600 
    156 H156        1.3469  -16.8771  -47.1650 H         1 UNK         0.0600 
    157 H157        2.7773  -15.9721  -46.7015 H         1 UNK         0.0600 
    158 H158        1.3551  -15.9497  -45.6694 H         1 UNK         0.0600 
    159 H159        2.9450  -16.6781  -43.8493 H         1 UNK         0.3000 
    160 H160        4.9988  -18.0998  -42.1078 H         1 UNK         0.0600 
    161 H161        7.2475  -16.9837  -42.0842 H         1 UNK         0.0600 
    162 H162        7.1232  -16.7222  -43.8241 H         1 UNK         0.0600 
    163 H163        7.1780  -18.3538  -43.1784 H         1 UNK         0.0600 
    164 H164        4.1968  -16.1596  -41.5318 H         1 UNK         0.3000 
    165 H165        4.9443  -13.0419  -41.8632 H         1 UNK         0.0600 
    166 H166        2.5109  -13.5076  -43.6602 H         1 UNK         0.0600 
    167 H167        2.8077  -12.0496  -42.7142 H         1 UNK         0.0600 
    168 H168        3.8872  -12.4797  -44.0308 H         1 UNK         0.0600 
    169 H169        2.4156  -14.5401  -41.4074 H         1 UNK         0.3000 
    170 H170        3.2125  -15.3515  -38.1060 H         1 UNK         0.0600 
    171 H171        1.2190  -13.1506  -38.8796 H         1 UNK         0.0600 
    172 H172        1.1551  -14.1384  -37.4190 H         1 UNK         0.0600 
    173 H173        2.4749  -13.0048  -37.6559 H         1 UNK         0.0600 
    174 H174        0.7561  -15.4784  -39.5573 H         1 UNK         0.3000 
    175 H175        1.4758  -18.2461  -41.6155 H         1 UNK         0.0600 
    176 H176       -0.2281  -18.2238  -39.0662 H         1 UNK         0.0600 
    177 H177       -0.4288  -19.3190  -40.4341 H         1 UNK         0.0600 
    178 H178        1.0230  -19.4003  -39.4497 H         1 UNK         0.0600 
    179 H179       -0.9560  -16.8747  -41.0216 H         1 UNK         0.3000 
    180 H180       -1.8703  -15.4851  -42.4375 H         1 UNK         0.0600 
    181 H181        0.1771  -13.2280  -42.8305 H         1 UNK         0.0600 
    182 H182       -0.7038  -13.5743  -41.3483 H         1 UNK         0.0600 
    183 H183       -1.5708  -13.0145  -42.7706 H         1 UNK         0.0600 
    184 H184       -0.1320  -15.1688  -44.8160 H         1 UNK         0.3000 
    185 H185       -1.4097  -16.3802  -46.7204 H         1 UNK         0.0600 
    186 H186       -3.1738  -15.7837  -48.3750 H         1 UNK         0.0600 
    187 H187       -3.9121  -16.4532  -46.9304 H         1 UNK         0.0600 
    188 H188       -3.9452  -14.7167  -47.2044 H         1 UNK         0.0600 
    189 H189       -1.3567  -13.4582  -46.5605 H         1 UNK         0.3000 
    190 H190       -1.5872  -19.2914  -45.6262 H         1 UNK         0.3000 
    191 H191       -4.0303  -18.0343  -44.9558 H         1 UNK         0.0600 
    192 H192       -2.2295  -19.6360  -43.0673 H         1 UNK         0.0600 
    193 H193       -1.8609  -18.0007  -43.6078 H         1 UNK         0.0600 
    194 H194       -3.3023  -18.3103  -42.6521 H         1 UNK         0.0600 
    195 H195       -3.1810  -21.4745  -45.1073 H         1 UNK         0.3000 
    196 H196       -5.6757  -22.4326  -43.9299 H         1 UNK         0.0600 
    197 H197       -3.5399  -23.6749  -43.6392 H         1 UNK         0.0600 
    198 H198       -3.4259  -23.9203  -45.3790 H         1 UNK         0.0600 
    199 H199       -4.7404  -24.6522  -44.4708 H         1 UNK         0.0600 
    200 H200       -6.6245  -20.7884  -45.6205 H         1 UNK         0.3000 
    201 H201       -8.0354  -20.3862  -47.2997 H         1 UNK         0.0600 
    202 H202       -9.6415  -22.1971  -47.8482 H         1 UNK         0.0600 
    203 H203       -9.2930  -22.1932  -46.1275 H         1 UNK         0.0600 
    204 H204       -8.5570  -23.4061  -47.1736 H         1 UNK         0.0600 
    205 H205       -5.5842  -20.2441  -48.2995 H         1 UNK         0.3000 
    206 H206       -4.3165  -20.2247  -50.1007 H         1 UNK         0.0600 
    207 H207       -6.8162  -20.9356  -51.7090 H         1 UNK         0.0600 
    208 H208       -5.3317  -20.2426  -52.3440 H         1 UNK         0.0600 
    209 H209       -6.3245  -19.3121  -51.2356 H         1 UNK         0.0600 
    210 H210       -4.1309  -22.4916  -48.5693 H         1 UNK         0.3000 
    211 H211       -3.3720  -24.5416  -48.3832 H         1 UNK         0.0600 
    212 H212       -1.5351  -23.7611  -49.8586 H         1 UNK         0.0600 
    213 H213       -1.8744  -25.4613  -50.1377 H         1 UNK         0.0600 
    214 H214       -2.4350  -24.2575  -51.2896 H         1 UNK         0.0600 
    215 H215       -5.9389  -24.4972  -48.4911 H         1 UNK         0.3000 
    216 H216       -7.8886  -25.4636  -48.9204 H         1 UNK         0.0600 
    217 H217       -7.9451  -27.9181  -49.2267 H         1 UNK         0.0600 
    218 H218       -6.2512  -27.9377  -49.6978 H         1 UNK         0.0600 
    219 H219       -6.7089  -27.4881  -48.0557 H         1 UNK         0.0600 
    220 H220       -7.2970  -23.7508  -50.7804 H         1 UNK         0.3000 
    221 H221       -7.7066  -22.9121  -52.7495 H         1 UNK         0.0600 
    222 H222       -9.5221  -25.3171  -53.2811 H         1 UNK         0.0600 
    223 H223       -9.9774  -23.8887  -52.3521 H         1 UNK         0.0600 
    224 H224       -9.6069  -23.7447  -54.0609 H         1 UNK         0.0600 
    225 H225       -5.4516  -25.0065  -52.5618 H         1 UNK         0.3000 
    226 H226       -5.1008  -25.9006  -55.3146 H         1 UNK         0.0600 
    227 H227       -4.1472  -27.1576  -53.3723 H         1 UNK         0.0600 
    228 H228       -2.9038  -26.6716  -54.5152 H         1 UNK         0.0600 
    229 H229       -3.0942  -25.7903  -53.0074 H         1 UNK         0.0600 
    230 H230       -4.3294  -23.0314  -53.4708 H         1 UNK         0.3000 
    231 H231       -3.4282  -21.0662  -53.8876 H         1 UNK         0.0600 
    232 H232       -3.4355  -20.1161  -56.1671 H         1 UNK         0.0600 
    233 H233       -4.9392  -20.9701  -55.8555 H         1 UNK         0.0600 
    234 H234       -3.7005  -21.7038  -56.8721 H         1 UNK         0.0600 
    235 H235       -1.6641  -22.4086  -52.8664 H         1 UNK         0.3000 
    236 H236        0.6964  -23.1338  -54.2955 H         1 UNK         0.0600 
    237 H237        0.0206  -24.1771  -52.1581 H         1 UNK         0.0600 
    238 H238        1.6068  -23.4468  -51.9948 H         1 UNK         0.0600 
    239 H239        0.2009  -22.6366  -51.3144 H         1 UNK         0.0600 
    240 H240        0.5025  -20.8960  -55.4450 H         1 UNK         0.3000 
    241 H241        1.5537  -18.5736  -54.2174 H         1 UNK         0.0600 
    242 H242        4.9575  -20.4965  -55.3129 H         1 UNK         0.3800 
    243 H243        3.4215  -21.3223  -55.3095 H         1 UNK         0.3800 
    244 H244        1.7197  -18.9394  -57.2283 H         1 UNK         0.0800 
    245 H245        0.1560  -19.0172  -56.5022 H         1 UNK         0.0800 
    246 H246       -1.3147  -17.2757  -56.5359 H         1 UNK         0.0800 
    247 H247       -0.9845  -15.5703  -56.4819 H         1 UNK         0.0800 
@<TRIPOS>BOND
     1    1    2 1    
     2    1  127 1    
     3    1  128 1    
     4    1  129 1    
     5    2    3 2    
     6    2    4 am   BACKBONE|DICT|INTERRES
     7    4    5 1    
     8    4  130 1    
     9    5    6 1    
    10    5   65 1    
    11    5  131 1    
    12    6    7 1    
    13    6  132 1    
    14    6  133 1    
    15    7    8 1    
    16    8    9 1    
    17    8  134 1    
    18    8  135 1    
    19    9   10 ar   
    20    9   14 ar   
    21   10   11 ar   
    22   10  136 1    
    23   11   12 ar   
    24   11  126 1    
    25   12   13 ar   
    26   12  137 1    
    27   13   14 ar   
    28   13   15 1    
    29   14  138 1    
    30   15   16 1    
    31   15  139 1    
    32   15  140 1    
    33   16   17 1    
    34   17   18 1    
    35   17  141 1    
    36   17  142 1    
    37   18   19 1    
    38   18   67 1    
    39   18  143 1    
    40   19   20 am   BACKBONE|DICT|INTERRES
    41   19  144 1    
    42   20   21 2    
    43   20   22 1    
    44   22   23 1    
    45   22   24 1    
    46   22  145 1    
    47   23  146 1    
    48   23  147 1    
    49   23  148 1    
    50   24   25 am   BACKBONE|DICT|INTERRES
    51   24  149 1    
    52   25   26 2    
    53   25   27 1    
    54   27   28 1    
    55   27   29 1    
    56   27  150 1    
    57   28  151 1    
    58   28  152 1    
    59   28  153 1    
    60   29   30 am   BACKBONE|DICT|INTERRES
    61   29  154 1    
    62   30   31 2    
    63   30   32 1    
    64   32   33 1    
    65   32   34 1    
    66   32  155 1    
    67   33  156 1    
    68   33  157 1    
    69   33  158 1    
    70   34   35 am   BACKBONE|DICT|INTERRES
    71   34  159 1    
    72   35   36 2    
    73   35   37 1    
    74   37   38 1    
    75   37   39 1    
    76   37  160 1    
    77   38  161 1    
    78   38  162 1    
    79   38  163 1    
    80   39   40 am   BACKBONE|DICT|INTERRES
    81   39  164 1    
    82   40   41 2    
    83   40   42 1    
    84   42   43 1    
    85   42   44 1    
    86   42  165 1    
    87   43  166 1    
    88   43  167 1    
    89   43  168 1    
    90   44   45 am   BACKBONE|DICT|INTERRES
    91   44  169 1    
    92   45   46 2    
    93   45   47 1    
    94   47   48 1    
    95   47   49 1    
    96   47  170 1    
    97   48  171 1    
    98   48  172 1    
    99   48  173 1    
   100   49   50 am   BACKBONE|DICT|INTERRES
   101   49  174 1    
   102   50   51 2    
   103   50   52 1    
   104   52   53 1    
   105   52   54 1    
   106   52  175 1    
   107   53  176 1    
   108   53  177 1    
   109   53  178 1    
   110   54   55 am   BACKBONE|DICT|INTERRES
   111   54  179 1    
   112   55   56 2    
   113   55   57 1    
   114   57   58 1    
   115   57   59 1    
   116   57  180 1    
   117   58  181 1    
   118   58  182 1    
   119   58  183 1    
   120   59   60 am   BACKBONE|DICT|INTERRES
   121   59  184 1    
   122   60   61 2    
   123   60   62 1    
   124   62   63 1    
   125   62   64 1    
   126   62  185 1    
   127   63  186 1    
   128   63  187 1    
   129   63  188 1    
   130   64   65 am   BACKBONE|DICT|INTERRES
   131   64  189 1    
   132   65   66 2    
   133   67   68 2    
   134   67   69 am   BACKBONE|DICT|INTERRES
   135   69   70 1    
   136   69  190 1    
   137   70   71 1    
   138   70   72 1    
   139   70  191 1    
   140   71  192 1    
   141   71  193 1    
   142   71  194 1    
   143   72   73 2    
   144   72   74 am   BACKBONE|DICT|INTERRES
   145   74   75 1    
   146   74  195 1    
   147   75   76 1    
   148   75   77 1    
   149   75  196 1    
   150   76  197 1    
   151   76  198 1    
   152   76  199 1    
   153   77   78 2    
   154   77   79 am   BACKBONE|DICT|INTERRES
   155   79   80 1    
   156   79  200 1    
   157   80   81 1    
   158   80   82 1    
   159   80  201 1    
   160   81  202 1    
   161   81  203 1    
   162   81  204 1    
   163   82   83 2    
   164   82   84 am   BACKBONE|DICT|INTERRES
   165   84   85 1    
   166   84  205 1    
   167   85   86 1    
   168   85   87 1    
   169   85  206 1    
   170   86  207 1    
   171   86  208 1    
   172   86  209 1    
   173   87   88 2    
   174   87   89 am   BACKBONE|DICT|INTERRES
   175   89   90 1    
   176   89  210 1    
   177   90   91 1    
   178   90   92 1    
   179   90  211 1    
   180   91  212 1    
   181   91  213 1    
   182   91  214 1    
   183   92   93 2    
   184   92   94 am   BACKBONE|DICT|INTERRES
   185   94   95 1    
   186   94  215 1    
   187   95   96 1    
   188   95   97 1    
   189   95  216 1    
   190   96  217 1    
   191   96  218 1    
   192   96  219 1    
   193   97   98 2    
   194   97   99 am   BACKBONE|DICT|INTERRES
   195   99  100 1    
   196   99  220 1    
   197  100  101 1    
   198  100  102 1    
   199  100  221 1    
   200  101  222 1    
   201  101  223 1    
   202  101  224 1    
   203  102  103 2    
   204  102  104 am   BACKBONE|DICT|INTERRES
   205  104  105 1    
   206  104  225 1    
   207  105  106 1    
   208  105  107 1    
   209  105  226 1    
   210  106  227 1    
   211  106  228 1    
   212  106  229 1    
   213  107  108 2    
   214  107  109 am   BACKBONE|DICT|INTERRES
   215  109  110 1    
   216  109  230 1    
   217  110  111 1    
   218  110  112 1    
   219  110  231 1    
   220  111  232 1    
   221  111  233 1    
   222  111  234 1    
   223  112  113 2    
   224  112  114 am   BACKBONE|DICT|INTERRES
   225  114  115 1    
   226  114  235 1    
   227  115  116 1    
   228  115  117 1    
   229  115  236 1    
   230  116  237 1    
   231  116  238 1    
   232  116  239 1    
   233  117  118 2    
   234  117  119 am   BACKBONE|DICT|INTERRES
   235  119  120 1    
   236  119  240 1    
   237  120  121 1    
   238  120  124 1    
   239  120  241 1    
   240  121  122 am   BACKBONE|DICT|INTERRES
   241  121  123 2    
   242  122  242 1    
   243  122  243 1    
   244  124  125 1    
   245  124  244 1    
   246  124  245 1    
   247  125  126 1    
   248  126  246 1    
   249  126  247 1    
@<TRIPOS>SUBSTRUCTURE
     1 UNK         1 GROUP             0       ****    0 ROOT    
