@<TRIPOS>MOLECULE
3R540
247   249    1
SMALL
USER_CHARGES


@<TRIPOS>ATOM
      1 CA          1.7446  -12.7832  -54.1386 C.3       0 UNK        -0.1800 
      2 C           2.2879  -12.9620  -52.7277 C.2       0 UNK         0.5000 
      3 O           3.4865  -12.7873  -52.5052 O.2       0 UNK        -0.5000 
      4 N           1.4140  -13.3174  -51.7784 N.am      1 UNK        -0.5000 
      5 CA          1.7362  -13.4738  -50.3575 C.3       1 UNK         0.1400 
      6 C6          0.6172  -14.2526  -49.6196 C.3       23 UNK        -0.0398 
      7 S7          1.1535  -14.9444  -48.0118 S.3       23 UNK        -0.2404 
      8 C8         -0.2971  -15.9357  -47.5245 C.3       23 UNK        -0.0205 
      9 C9         -0.6226  -17.0012  -48.5602 C.ar      23 UNK        -0.0193 
     10 C10        -1.7362  -16.8592  -49.3929 C.ar      23 UNK        -0.1150 
     11 C11        -1.9852  -17.7823  -50.4139 C.ar      23 UNK        -0.0193 
     12 C12        -1.1267  -18.8747  -50.5737 C.ar      23 UNK        -0.1150 
     13 C13        -0.0240  -19.0401  -49.7297 C.ar      23 UNK        -0.0193 
     14 C14         0.2209  -18.1021  -48.7228 C.ar      23 UNK        -0.1150 
     15 C15         0.9216  -20.2154  -49.9217 C.3       23 UNK        -0.0205 
     16 S16         0.2719  -21.7401  -49.1770 S.3       23 UNK        -0.2404 
     17 C17         0.1589  -21.2758  -47.4176 C.3       23 UNK        -0.0398 
     18 CA          0.1635  -22.5149  -46.4939 C.3       11 UNK         0.1400 
     19 N           0.7757  -22.2233  -45.1961 N.am      11 UNK        -0.5000 
     20 C           1.2661  -23.1613  -44.3747 C.2       10 UNK         0.5000 
     21 O           1.2268  -24.3677  -44.6159 O.2       10 UNK        -0.5000 
     22 CA          1.8811  -22.6724  -43.0526 C.3       10 UNK         0.1400 
     23 CB          3.2874  -22.0993  -43.2842 C.3       10 UNK        -0.1800 
     24 N           1.0426  -21.6773  -42.3857 N.am      10 UNK        -0.5000 
     25 C          -0.1714  -21.9371  -41.8798 C.2       9 UNK         0.5000 
     26 O          -0.6838  -23.0570  -41.8740 O.2       9 UNK        -0.5000 
     27 CA         -0.9593  -20.7457  -41.3069 C.3       9 UNK         0.1400 
     28 CB         -0.5393  -20.4737  -39.8549 C.3       9 UNK        -0.1800 
     29 N          -0.8234  -19.5216  -42.1004 N.am      9 UNK        -0.5000 
     30 C          -1.2354  -19.3885  -43.3700 C.2       8 UNK         0.5000 
     31 O          -1.7649  -20.2917  -44.0136 O.2       8 UNK        -0.5000 
     32 CA         -0.9625  -18.0424  -44.0624 C.3       8 UNK         0.1400 
     33 CB         -1.9203  -16.9504  -43.5644 C.3       8 UNK        -0.1800 
     34 N           0.4179  -17.6002  -43.8904 N.am      8 UNK        -0.5000 
     35 C           1.4922  -18.2712  -44.3281 C.2       7 UNK         0.5000 
     36 O           1.4377  -19.3230  -44.9668 O.2       7 UNK        -0.5000 
     37 CA          2.8582  -17.6893  -43.9345 C.3       7 UNK         0.1400 
     38 CB          3.2236  -16.4979  -44.8347 C.3       7 UNK        -0.1800 
     39 N           2.8885  -17.2818  -42.5282 N.am      7 UNK        -0.5000 
     40 C           2.8104  -18.1310  -41.4926 C.2       6 UNK         0.5000 
     41 O           2.7278  -19.3528  -41.6124 O.2       6 UNK        -0.5000 
     42 CA          2.7818  -17.5068  -40.0862 C.3       6 UNK         0.1400 
     43 CB          4.2009  -17.1459  -39.6223 C.3       6 UNK        -0.1800 
     44 N           1.9295  -16.3200  -40.0142 N.am      6 UNK        -0.5000 
     45 C           0.5977  -16.3339  -40.1655 C.2       5 UNK         0.5000 
     46 O          -0.0598  -17.3538  -40.3642 O.2       5 UNK        -0.5000 
     47 CA         -0.1137  -14.9699  -40.1412 C.3       5 UNK         0.1400 
     48 CB         -0.4152  -14.5414  -38.6974 C.3       5 UNK        -0.1800 
     49 N           0.6401  -13.9115  -40.8184 N.am      5 UNK        -0.5000 
     50 C           0.9749  -13.9323  -42.1145 C.2       4 UNK         0.5000 
     51 O           0.7369  -14.8776  -42.8714 O.2       4 UNK        -0.5000 
     52 CA          1.7387  -12.7094  -42.6471 C.3       4 UNK         0.1400 
     53 CB          3.2511  -12.9803  -42.6512 C.3       4 UNK        -0.1800 
     54 N           1.3087  -12.3950  -44.0056 N.am      4 UNK        -0.5000 
     55 C           0.1234  -11.8589  -44.3264 C.2       3 UNK         0.5000 
     56 O          -0.6903  -11.4588  -43.4916 O.2       3 UNK        -0.5000 
     57 CA         -0.2100  -11.7831  -45.8307 C.3       3 UNK         0.1400 
     58 CB         -1.2029  -10.6544  -46.1781 C.3       3 UNK        -0.1800 
     59 N           0.9809  -11.7294  -46.6861 N.am      3 UNK        -0.5000 
     60 C           1.8853  -10.7409  -46.7853 C.2       2 UNK         0.5000 
     61 O           1.8328   -9.6914  -46.1438 O.2       2 UNK        -0.5000 
     62 CA          3.0649  -10.9723  -47.7559 C.3       2 UNK         0.1400 
     63 CB          4.3625  -11.2178  -46.9691 C.3       2 UNK        -0.1800 
     64 N           2.8481  -12.1028  -48.6634 N.am      2 UNK        -0.5000 
     65 C           1.9905  -12.1044  -49.6920 C.2       1 UNK         0.5000 
     66 O           1.3700  -11.1065  -50.0681 O.2       1 UNK        -0.5000 
     67 C          -1.2380  -23.1517  -46.3616 C.2       11 UNK         0.5000 
     68 O          -1.6238  -23.9470  -47.2201 O.2       11 UNK        -0.5000 
     69 N          -1.9713  -22.8416  -45.2812 N.am      12 UNK        -0.5000 
     70 CA         -3.2868  -23.4084  -44.9595 C.3       12 UNK         0.1400 
     71 CB         -3.8573  -22.7366  -43.7022 C.3       12 UNK        -0.1800 
     72 C          -3.2869  -24.9404  -44.7951 C.2       12 UNK         0.5000 
     73 O          -4.3025  -25.5730  -45.0842 O.2       12 UNK        -0.5000 
     74 N          -2.1403  -25.5210  -44.4115 N.am      13 UNK        -0.5000 
     75 CA         -1.9132  -26.9692  -44.3655 C.3       13 UNK         0.1400 
     76 CB         -0.5690  -27.2457  -43.6764 C.3       13 UNK        -0.1800 
     77 C          -1.9589  -27.6434  -45.7549 C.2       13 UNK         0.5000 
     78 O          -2.2350  -28.8404  -45.8358 O.2       13 UNK        -0.5000 
     79 N          -1.7190  -26.8615  -46.8162 N.am      14 UNK        -0.5000 
     80 CA         -1.8416  -27.2523  -48.2201 C.3       14 UNK         0.1400 
     81 CB         -0.5560  -26.8316  -48.9554 C.3       14 UNK        -0.1800 
     82 C          -3.0905  -26.6191  -48.8701 C.2       14 UNK         0.5000 
     83 O          -3.1615  -26.5496  -50.0978 O.2       14 UNK        -0.5000 
     84 N          -4.0368  -26.1305  -48.0512 N.am      15 UNK        -0.5000 
     85 CA         -5.2683  -25.4311  -48.4364 C.3       15 UNK         0.1400 
     86 CB         -6.2425  -26.3961  -49.1442 C.3       15 UNK        -0.1800 
     87 C          -4.9939  -24.1486  -49.2497 C.2       15 UNK         0.5000 
     88 O          -5.6644  -23.8984  -50.2519 O.2       15 UNK        -0.5000 
     89 N          -3.9755  -23.3854  -48.8245 N.am      16 UNK        -0.5000 
     90 CA         -3.4294  -22.1949  -49.4872 C.3       16 UNK         0.1400 
     91 CB         -4.4587  -21.0467  -49.5249 C.3       16 UNK        -0.1800 
     92 C          -2.8261  -22.5320  -50.8670 C.2       16 UNK         0.5000 
     93 O          -3.0007  -21.7750  -51.8203 O.2       16 UNK        -0.5000 
     94 N          -2.1475  -23.6890  -50.9334 N.am      17 UNK        -0.5000 
     95 CA         -1.5868  -24.3291  -52.1277 C.3       17 UNK         0.1400 
     96 CB         -0.4247  -23.4957  -52.7074 C.3       17 UNK        -0.1800 
     97 C          -2.6842  -24.6695  -53.1580 C.2       17 UNK         0.5000 
     98 O          -2.5474  -24.3568  -54.3418 O.2       17 UNK        -0.5000 
     99 N          -3.7649  -25.2921  -52.6607 N.am      18 UNK        -0.5000 
    100 CA        -5.0204  -25.5968  -53.3551 C.3       18 UNK         0.1400 
    101 CB        -4.8039  -26.6873  -54.4243 C.3       18 UNK        -0.1800 
    102 C         -5.6870  -24.3205  -53.9103 C.2       18 UNK         0.5000 
    103 O         -5.9345  -24.2142  -55.1136 O.2       18 UNK        -0.5000 
    104 N         -5.9125  -23.3517  -53.0123 N.am      19 UNK        -0.5000 
    105 CA        -6.4179  -21.9873  -53.2115 C.3       19 UNK         0.1400 
    106 CB        -7.8296  -21.9869  -53.8281 C.3       19 UNK        -0.1800 
    107 C         -5.4669  -21.0579  -53.9921 C.2       19 UNK         0.5000 
    108 O         -5.2872  -19.9099  -53.5851 O.2       19 UNK        -0.5000 
    109 N         -4.8996  -21.5584  -55.1000 N.am      20 UNK        -0.5000 
    110 CA        -3.8972  -20.9366  -55.9766 C.3       20 UNK         0.1400 
    111 CB        -2.5672  -20.7603  -55.2148 C.3       20 UNK        -0.1800 
    112 C         -4.3464  -19.6193  -56.6471 C.2       20 UNK         0.5000 
    113 O         -3.4968  -18.8638  -57.1240 O.2       20 UNK        -0.5000 
    114 N         -5.6603  -19.3452  -56.6457 N.am      21 UNK        -0.5000 
    115 CA        -6.3479  -18.0940  -57.0000 C.3       21 UNK         0.1400 
    116 CB        -6.1126  -17.7015  -58.4713 C.3       21 UNK        -0.1800 
    117 C         -6.0239  -16.9295  -56.0395 C.2       21 UNK         0.5000 
    118 O         -6.9437  -16.3043  -55.5111 O.2       21 UNK        -0.5000 
    119 N         -4.7284  -16.6901  -55.8068 N.am      22 UNK        -0.5000 
    120 CA        -4.1526  -15.7440  -54.8395 C.3       22 UNK         0.1400 
    121 C         -4.3722  -14.2344  -55.1700 C.2       22 UNK         0.5000 
    122 N         -4.7468  -13.8759  -56.3922 N.am      22 UNK        -0.7600 
    123 O         -4.1747  -13.3682  -54.3223 O.2       22 UNK        -0.5000 
    124 C124       -4.5035  -16.1192  -53.3676 C.3       23 UNK        -0.0398 
    125 S125       -3.0511  -16.0159  -52.2661 S.3       23 UNK        -0.2404 
    126 C126       -3.1707  -17.5887  -51.3505 C.3       23 UNK        -0.0205 
    127 H127        0.6746  -12.9864  -54.1904 H         1 UNK         0.0600 
    128 H128        2.2524  -13.4606  -54.8252 H         1 UNK         0.0600 
    129 H129        1.9134  -11.7615  -54.4787 H         1 UNK         0.0600 
    130 H130        0.4383  -13.4139  -52.0205 H         1 UNK         0.3000 
    131 H131        2.6561  -14.0604  -50.3001 H         1 UNK         0.0600 
    132 H132       -0.2722  -13.6361  -49.4745 H         1 UNK         0.0800 
    133 H133        0.3047  -15.0883  -50.2464 H         1 UNK         0.0800 
    134 H134       -0.0918  -16.4115  -46.5652 H         1 UNK         0.0800 
    135 H135       -1.1498  -15.2742  -47.3644 H         1 UNK         0.0800 
    136 H136       -2.3896  -16.0060  -49.2764 H         1 UNK         0.1150 
    137 H137       -1.3115  -19.5961  -51.3580 H         1 UNK         0.1150 
    138 H138        1.0835  -18.2113  -48.0801 H         1 UNK         0.1150 
    139 H139        1.0800  -20.3851  -50.9877 H         1 UNK         0.0800 
    140 H140        1.9031  -19.9944  -49.4993 H         1 UNK         0.0800 
    141 H141       -0.7148  -20.6432  -47.2486 H         1 UNK         0.0800 
    142 H142        1.0275  -20.6531  -47.2016 H         1 UNK         0.0800 
    143 H143        0.7978  -23.2714  -46.9623 H         1 UNK         0.0600 
    144 H144        0.8640  -21.2438  -44.9410 H         1 UNK         0.3000 
    145 H145        1.9734  -23.5352  -42.3896 H         1 UNK         0.0600 
    146 H146        3.7685  -21.8457  -42.3395 H         1 UNK         0.0600 
    147 H147        3.9271  -22.8236  -43.7900 H         1 UNK         0.0600 
    148 H148        3.2607  -21.1980  -43.8976 H         1 UNK         0.0600 
    149 H149        1.4236  -20.7400  -42.3044 H         1 UNK         0.3000 
    150 H150       -2.0159  -21.0215  -41.3068 H         1 UNK         0.0600 
    151 H151       -0.6322  -21.3728  -39.2444 H         1 UNK         0.0600 
    152 H152       -1.1673  -19.7073  -39.4006 H         1 UNK         0.0600 
    153 H153        0.4968  -20.1386  -39.7931 H         1 UNK         0.0600 
    154 H154       -0.4167  -18.7202  -41.6244 H         1 UNK         0.3000 
    155 H155       -1.1349  -18.1817  -45.1317 H         1 UNK         0.0600 
    156 H156       -2.9598  -17.2482  -43.7066 H         1 UNK         0.0600 
    157 H157       -1.7700  -16.0179  -44.1091 H         1 UNK         0.0600 
    158 H158       -1.7789  -16.7425  -42.5037 H         1 UNK         0.0600 
    159 H159        0.5582  -16.7233  -43.3955 H         1 UNK         0.3000 
    160 H160        3.6091  -18.4691  -44.0784 H         1 UNK         0.0600 
    161 H161        2.5050  -15.6829  -44.7447 H         1 UNK         0.0600 
    162 H162        3.2436  -16.7964  -45.8837 H         1 UNK         0.0600 
    163 H163        4.2105  -16.1053  -44.5898 H         1 UNK         0.0600 
    164 H164        2.8950  -16.2906  -42.3419 H         1 UNK         0.3000 
    165 H165        2.3788  -18.2544  -39.3995 H         1 UNK         0.0600 
    166 H166        4.1984  -16.7797  -38.5955 H         1 UNK         0.0600 
    167 H167        4.8546  -18.0186  -39.6532 H         1 UNK         0.0600 
    168 H168        4.6496  -16.3769  -40.2523 H         1 UNK         0.0600 
    169 H169        2.3875  -15.4342  -39.8591 H         1 UNK         0.3000 
    170 H170       -1.0639  -15.0865  -40.6665 H         1 UNK         0.0600 
    171 H171       -0.9913  -15.3069  -38.1757 H         1 UNK         0.0600 
    172 H172        0.4988  -14.3724  -38.1267 H         1 UNK         0.0600 
    173 H173       -1.0018  -13.6228  -38.6728 H         1 UNK         0.0600 
    174 H174        0.8792  -13.1034  -40.2620 H         1 UNK         0.3000 
    175 H175        1.5364  -11.8487  -42.0061 H         1 UNK         0.0600 
    176 H176        3.5097  -13.8278  -43.2868 H         1 UNK         0.0600 
    177 H177        3.8048  -12.1126  -43.0106 H         1 UNK         0.0600 
    178 H178        3.6122  -13.2012  -41.6459 H         1 UNK         0.0600 
    179 H179        1.8976  -12.7272  -44.7534 H         1 UNK         0.3000 
    180 H180       -0.7010  -12.7279  -46.0685 H         1 UNK         0.0600 
    181 H181       -0.8239   -9.6746  -45.8867 H         1 UNK         0.0600 
    182 H182       -2.1545  -10.7999  -45.6656 H         1 UNK         0.0600 
    183 H183       -1.4127  -10.6295  -47.2475 H         1 UNK         0.0600 
    184 H184        1.1420  -12.5552  -47.2459 H         1 UNK         0.3000 
    185 H185        3.1870  -10.0645  -48.3504 H         1 UNK         0.0600 
    186 H186        4.5814  -10.3814  -46.3039 H         1 UNK         0.0600 
    187 H187        4.2980  -12.1168  -46.3546 H         1 UNK         0.0600 
    188 H188        5.2153  -11.3286  -47.6391 H         1 UNK         0.0600 
    189 H189        3.3177  -12.9641  -48.4211 H         1 UNK         0.3000 
    190 H190       -1.6361  -22.1123  -44.6578 H         1 UNK         0.3000 
    191 H191       -3.9529  -23.1761  -45.7925 H         1 UNK         0.0600 
    192 H192       -4.0144  -21.6701  -43.8611 H         1 UNK         0.0600 
    193 H193       -4.8237  -23.1646  -43.4324 H         1 UNK         0.0600 
    194 H194       -3.1950  -22.8571  -42.8453 H         1 UNK         0.0600 
    195 H195       -1.3477  -24.9300  -44.1986 H         1 UNK         0.3000 
    196 H196       -2.7056  -27.4123  -43.7589 H         1 UNK         0.0600 
    197 H197       -0.4086  -28.3172  -43.5511 H         1 UNK         0.0600 
    198 H198       -0.5303  -26.7926  -42.6855 H         1 UNK         0.0600 
    199 H199        0.2674  -26.8561  -44.2574 H         1 UNK         0.0600 
    200 H200       -1.5265  -25.8772  -46.6627 H         1 UNK         0.3000 
    201 H201       -1.9481  -28.3349  -48.3089 H         1 UNK         0.0600 
    202 H202        0.3250  -27.2717  -48.4881 H         1 UNK         0.0600 
    203 H203       -0.4268  -25.7485  -48.9564 H         1 UNK         0.0600 
    204 H204       -0.5683  -27.1636  -49.9942 H         1 UNK         0.0600 
    205 H205       -3.8952  -26.2231  -47.0521 H         1 UNK         0.3000 
    206 H206       -5.7423  -25.1063  -47.5092 H         1 UNK         0.0600 
    207 H207       -6.4353  -27.2778  -48.5331 H         1 UNK         0.0600 
    208 H208       -7.2035  -25.9151  -49.3298 H         1 UNK         0.0600 
    209 H209       -5.8555  -26.7336  -50.1059 H         1 UNK         0.0600 
    210 H210       -3.4185  -23.7246  -48.0473 H         1 UNK         0.3000 
    211 H211       -2.6022  -21.8543  -48.8664 H         1 UNK         0.0600 
    212 H212       -5.3065  -21.2771  -50.1686 H         1 UNK         0.0600 
    213 H213       -4.0033  -20.1315  -49.9036 H         1 UNK         0.0600 
    214 H214       -4.8420  -20.8291  -48.5283 H         1 UNK         0.0600 
    215 H215       -2.0883  -24.2360  -50.0867 H         1 UNK         0.3000 
    216 H216       -1.1718  -25.2831  -51.8000 H         1 UNK         0.0600 
    217 H217        0.0422  -24.0085  -53.5488 H         1 UNK         0.0600 
    218 H218        0.3496  -23.3300  -51.9584 H         1 UNK         0.0600 
    219 H219       -0.7574  -22.5206  -53.0621 H         1 UNK         0.0600 
    220 H220       -3.7353  -25.5530  -51.6788 H         1 UNK         0.3000 
    221 H221       -5.7001  -26.0009  -52.6035 H         1 UNK         0.0600 
    222 H222       -4.1490  -26.3479  -55.2273 H         1 UNK         0.0600 
    223 H223       -4.3621  -27.5831  -53.9879 H         1 UNK         0.0600 
    224 H224       -5.7514  -26.9800  -54.8779 H         1 UNK         0.0600 
    225 H225       -5.6707  -23.5586  -52.0440 H         1 UNK         0.3000 
    226 H226       -6.5053  -21.5669  -52.2091 H         1 UNK         0.0600 
    227 H227       -8.5173  -22.5908  -53.2361 H         1 UNK         0.0600 
    228 H228       -8.2351  -20.9751  -53.8650 H         1 UNK         0.0600 
    229 H229       -7.8337  -22.3749  -54.8468 H         1 UNK         0.0600 
    230 H230       -5.1509  -22.5158  -55.3344 H         1 UNK         0.3000 
    231 H231       -3.7241  -21.6455  -56.7871 H         1 UNK         0.0600 
    232 H232       -2.6520  -20.0192  -54.4190 H         1 UNK         0.0600 
    233 H233       -1.7665  -20.4381  -55.8811 H         1 UNK         0.0600 
    234 H234       -2.2497  -21.6978  -54.7610 H         1 UNK         0.0600 
    235 H235       -6.2499  -20.0372  -56.2062 H         1 UNK         0.3000 
    236 H236       -7.4128  -18.3044  -56.8882 H         1 UNK         0.0600 
    237 H237       -6.3845  -18.5154  -59.1434 H         1 UNK         0.0600 
    238 H238       -6.7222  -16.8388  -58.7426 H         1 UNK         0.0600 
    239 H239       -5.0736  -17.4374  -58.6685 H         1 UNK         0.0600 
    240 H240       -4.0625  -17.2811  -56.2980 H         1 UNK         0.3000 
    241 H241       -3.0794  -15.8839  -54.9723 H         1 UNK         0.0600 
    242 H242       -4.8791  -12.8996  -56.6056 H         1 UNK         0.3800 
    243 H243       -4.9054  -14.5720  -57.1029 H         1 UNK         0.3800 
    244 H244       -5.3049  -15.4931  -52.9720 H         1 UNK         0.0800 
    245 H245       -4.8871  -17.1393  -53.3188 H         1 UNK         0.0800 
    246 H246       -4.0938  -17.6014  -50.7696 H         1 UNK         0.0800 
    247 H247       -3.2369  -18.4158  -52.0605 H         1 UNK         0.0800 
@<TRIPOS>BOND
     1    1    2 1    
     2    1  127 1    
     3    1  128 1    
     4    1  129 1    
     5    2    3 2    
     6    2    4 am   BACKBONE|DICT|INTERRES
     7    4    5 1    
     8    4  130 1    
     9    5    6 1    
    10    5   65 1    
    11    5  131 1    
    12    6    7 1    
    13    6  132 1    
    14    6  133 1    
    15    7    8 1    
    16    8    9 1    
    17    8  134 1    
    18    8  135 1    
    19    9   10 ar   
    20    9   14 ar   
    21   10   11 ar   
    22   10  136 1    
    23   11   12 ar   
    24   11  126 1    
    25   12   13 ar   
    26   12  137 1    
    27   13   14 ar   
    28   13   15 1    
    29   14  138 1    
    30   15   16 1    
    31   15  139 1    
    32   15  140 1    
    33   16   17 1    
    34   17   18 1    
    35   17  141 1    
    36   17  142 1    
    37   18   19 1    
    38   18   67 1    
    39   18  143 1    
    40   19   20 am   BACKBONE|DICT|INTERRES
    41   19  144 1    
    42   20   21 2    
    43   20   22 1    
    44   22   23 1    
    45   22   24 1    
    46   22  145 1    
    47   23  146 1    
    48   23  147 1    
    49   23  148 1    
    50   24   25 am   BACKBONE|DICT|INTERRES
    51   24  149 1    
    52   25   26 2    
    53   25   27 1    
    54   27   28 1    
    55   27   29 1    
    56   27  150 1    
    57   28  151 1    
    58   28  152 1    
    59   28  153 1    
    60   29   30 am   BACKBONE|DICT|INTERRES
    61   29  154 1    
    62   30   31 2    
    63   30   32 1    
    64   32   33 1    
    65   32   34 1    
    66   32  155 1    
    67   33  156 1    
    68   33  157 1    
    69   33  158 1    
    70   34   35 am   BACKBONE|DICT|INTERRES
    71   34  159 1    
    72   35   36 2    
    73   35   37 1    
    74   37   38 1    
    75   37   39 1    
    76   37  160 1    
    77   38  161 1    
    78   38  162 1    
    79   38  163 1    
    80   39   40 am   BACKBONE|DICT|INTERRES
    81   39  164 1    
    82   40   41 2    
    83   40   42 1    
    84   42   43 1    
    85   42   44 1    
    86   42  165 1    
    87   43  166 1    
    88   43  167 1    
    89   43  168 1    
    90   44   45 am   BACKBONE|DICT|INTERRES
    91   44  169 1    
    92   45   46 2    
    93   45   47 1    
    94   47   48 1    
    95   47   49 1    
    96   47  170 1    
    97   48  171 1    
    98   48  172 1    
    99   48  173 1    
   100   49   50 am   BACKBONE|DICT|INTERRES
   101   49  174 1    
   102   50   51 2    
   103   50   52 1    
   104   52   53 1    
   105   52   54 1    
   106   52  175 1    
   107   53  176 1    
   108   53  177 1    
   109   53  178 1    
   110   54   55 am   BACKBONE|DICT|INTERRES
   111   54  179 1    
   112   55   56 2    
   113   55   57 1    
   114   57   58 1    
   115   57   59 1    
   116   57  180 1    
   117   58  181 1    
   118   58  182 1    
   119   58  183 1    
   120   59   60 am   BACKBONE|DICT|INTERRES
   121   59  184 1    
   122   60   61 2    
   123   60   62 1    
   124   62   63 1    
   125   62   64 1    
   126   62  185 1    
   127   63  186 1    
   128   63  187 1    
   129   63  188 1    
   130   64   65 am   BACKBONE|DICT|INTERRES
   131   64  189 1    
   132   65   66 2    
   133   67   68 2    
   134   67   69 am   BACKBONE|DICT|INTERRES
   135   69   70 1    
   136   69  190 1    
   137   70   71 1    
   138   70   72 1    
   139   70  191 1    
   140   71  192 1    
   141   71  193 1    
   142   71  194 1    
   143   72   73 2    
   144   72   74 am   BACKBONE|DICT|INTERRES
   145   74   75 1    
   146   74  195 1    
   147   75   76 1    
   148   75   77 1    
   149   75  196 1    
   150   76  197 1    
   151   76  198 1    
   152   76  199 1    
   153   77   78 2    
   154   77   79 am   BACKBONE|DICT|INTERRES
   155   79   80 1    
   156   79  200 1    
   157   80   81 1    
   158   80   82 1    
   159   80  201 1    
   160   81  202 1    
   161   81  203 1    
   162   81  204 1    
   163   82   83 2    
   164   82   84 am   BACKBONE|DICT|INTERRES
   165   84   85 1    
   166   84  205 1    
   167   85   86 1    
   168   85   87 1    
   169   85  206 1    
   170   86  207 1    
   171   86  208 1    
   172   86  209 1    
   173   87   88 2    
   174   87   89 am   BACKBONE|DICT|INTERRES
   175   89   90 1    
   176   89  210 1    
   177   90   91 1    
   178   90   92 1    
   179   90  211 1    
   180   91  212 1    
   181   91  213 1    
   182   91  214 1    
   183   92   93 2    
   184   92   94 am   BACKBONE|DICT|INTERRES
   185   94   95 1    
   186   94  215 1    
   187   95   96 1    
   188   95   97 1    
   189   95  216 1    
   190   96  217 1    
   191   96  218 1    
   192   96  219 1    
   193   97   98 2    
   194   97   99 am   BACKBONE|DICT|INTERRES
   195   99  100 1    
   196   99  220 1    
   197  100  101 1    
   198  100  102 1    
   199  100  221 1    
   200  101  222 1    
   201  101  223 1    
   202  101  224 1    
   203  102  103 2    
   204  102  104 am   BACKBONE|DICT|INTERRES
   205  104  105 1    
   206  104  225 1    
   207  105  106 1    
   208  105  107 1    
   209  105  226 1    
   210  106  227 1    
   211  106  228 1    
   212  106  229 1    
   213  107  108 2    
   214  107  109 am   BACKBONE|DICT|INTERRES
   215  109  110 1    
   216  109  230 1    
   217  110  111 1    
   218  110  112 1    
   219  110  231 1    
   220  111  232 1    
   221  111  233 1    
   222  111  234 1    
   223  112  113 2    
   224  112  114 am   BACKBONE|DICT|INTERRES
   225  114  115 1    
   226  114  235 1    
   227  115  116 1    
   228  115  117 1    
   229  115  236 1    
   230  116  237 1    
   231  116  238 1    
   232  116  239 1    
   233  117  118 2    
   234  117  119 am   BACKBONE|DICT|INTERRES
   235  119  120 1    
   236  119  240 1    
   237  120  121 1    
   238  120  124 1    
   239  120  241 1    
   240  121  122 am   BACKBONE|DICT|INTERRES
   241  121  123 2    
   242  122  242 1    
   243  122  243 1    
   244  124  125 1    
   245  124  244 1    
   246  124  245 1    
   247  125  126 1    
   248  126  246 1    
   249  126  247 1    
@<TRIPOS>SUBSTRUCTURE
     1 UNK         1 GROUP             0       ****    0 ROOT    
