@<TRIPOS>MOLECULE
3R540
247   249    1
SMALL
USER_CHARGES


@<TRIPOS>ATOM
      1 CA          4.4050  -10.7477  -49.4813 C.3       0 UNK        -0.1800 
      2 C           3.9106  -12.1528  -49.7954 C.2       0 UNK         0.5000 
      3 O           4.1952  -12.6762  -50.8732 O.2       0 UNK        -0.5000 
      4 N           3.1640  -12.7577  -48.8639 N.am      1 UNK        -0.5000 
      5 CA          2.6399  -14.1243  -48.9570 C.3       1 UNK         0.1400 
      6 C6          1.5632  -14.4004  -47.8755 C.3       23 UNK        -0.0398 
      7 S7          0.1508  -13.2364  -47.9325 S.3       23 UNK        -0.2404 
      8 C8         -0.7041  -13.6709  -49.4862 C.3       23 UNK        -0.0205 
      9 C9         -1.3474  -15.0458  -49.4164 C.ar      23 UNK        -0.0193 
     10 C10        -2.6735  -15.1905  -48.9980 C.ar      23 UNK        -0.1150 
     11 C11        -3.2462  -16.4617  -48.8860 C.ar      23 UNK        -0.0193 
     12 C12        -2.4729  -17.5892  -49.1687 C.ar      23 UNK        -0.1150 
     13 C13        -1.1492  -17.4538  -49.5956 C.ar      23 UNK        -0.0193 
     14 C14        -0.6056  -16.1795  -49.7524 C.ar      23 UNK        -0.1150 
     15 C15        -0.2852  -18.6787  -49.8410 C.3       23 UNK        -0.0205 
     16 S16         0.9818  -18.8946  -48.5455 S.3       23 UNK        -0.2404 
     17 C17        -0.0047  -18.9693  -47.0104 C.3       23 UNK        -0.0398 
     18 CA         -0.3530  -20.4094  -46.5690 C.3       11 UNK         0.1400 
     19 N          -0.6252  -20.4751  -45.1289 N.am      11 UNK        -0.5000 
     20 C          -0.9196  -21.5879  -44.4394 C.2       10 UNK         0.5000 
     21 O          -0.9723  -22.7131  -44.9346 O.2       10 UNK        -0.5000 
     22 CA         -1.2645  -21.4023  -42.9559 C.3       10 UNK         0.1400 
     23 CB          0.0138  -21.2809  -42.1204 C.3       10 UNK        -0.1800 
     24 N          -2.1066  -20.2224  -42.7597 N.am      10 UNK        -0.5000 
     25 C          -3.4239  -20.2042  -43.0104 C.2       9 UNK         0.5000 
     26 O          -4.0677  -21.2007  -43.3395 O.2       9 UNK        -0.5000 
     27 CA         -4.1424  -18.8450  -42.9030 C.3       9 UNK         0.1400 
     28 CB         -4.6143  -18.5969  -41.4625 C.3       9 UNK        -0.1800 
     29 N          -3.3194  -17.7159  -43.3392 N.am      9 UNK        -0.5000 
     30 C          -2.8707  -17.5316  -44.5888 C.2       8 UNK         0.5000 
     31 O          -3.1256  -18.2880  -45.5237 O.2       8 UNK        -0.5000 
     32 CA         -1.9399  -16.3267  -44.8254 C.3       8 UNK         0.1400 
     33 CB         -2.7496  -15.0982  -45.2635 C.3       8 UNK        -0.1800 
     34 N          -1.1202  -15.9711  -43.6638 N.am      8 UNK        -0.5000 
     35 C          -0.2451  -16.7790  -43.0492 C.2       7 UNK         0.5000 
     36 O          -0.0503  -17.9505  -43.3868 O.2       7 UNK        -0.5000 
     37 CA          0.5007  -16.1437  -41.8592 C.3       7 UNK         0.1400 
     38 CB         -0.4476  -15.8711  -40.6728 C.3       7 UNK        -0.1800 
     39 N           1.6885  -16.8950  -41.4474 N.am      7 UNK        -0.5000 
     40 C           1.7758  -18.0605  -40.7887 C.2       6 UNK         0.5000 
     41 O           0.8122  -18.6553  -40.3058 O.2       6 UNK        -0.5000 
     42 CA          3.1885  -18.6627  -40.6233 C.3       6 UNK         0.1400 
     43 CB          3.2758  -20.0557  -41.2680 C.3       6 UNK        -0.1800 
     44 N           4.2199  -17.8158  -41.2262 N.am      6 UNK        -0.5000 
     45 C           5.0463  -17.0015  -40.5563 C.2       5 UNK         0.5000 
     46 O           5.0783  -16.9191  -39.3281 O.2       5 UNK        -0.5000 
     47 CA          5.9898  -16.1133  -41.3961 C.3       5 UNK         0.1400 
     48 CB          7.3732  -16.7698  -41.5202 C.3       5 UNK        -0.1800 
     49 N           5.4844  -15.8156  -42.7396 N.am      5 UNK        -0.5000 
     50 C           4.3807  -15.1031  -43.0059 C.2       4 UNK         0.5000 
     51 O           3.6835  -14.5775  -42.1389 O.2       4 UNK        -0.5000 
     52 CA          3.9457  -15.0041  -44.4817 C.3       4 UNK         0.1400 
     53 CB          4.5308  -13.7279  -45.1070 C.3       4 UNK        -0.1800 
     54 N           4.2897  -16.1682  -45.3133 N.am      4 UNK        -0.5000 
     55 C           3.9722  -17.4463  -45.0429 C.2       3 UNK         0.5000 
     56 O           3.3715  -17.7904  -44.0258 O.2       3 UNK        -0.5000 
     57 CA          4.4059  -18.5075  -46.0691 C.3       3 UNK         0.1400 
     58 CB          3.6947  -19.8604  -45.8751 C.3       3 UNK        -0.1800 
     59 N           4.1677  -18.0161  -47.4233 N.am      3 UNK        -0.5000 
     60 C           5.0577  -18.0304  -48.4218 C.2       2 UNK         0.5000 
     61 O           6.1784  -18.5338  -48.3351 O.2       2 UNK        -0.5000 
     62 CA          4.6415  -17.3395  -49.7372 C.3       2 UNK         0.1400 
     63 CB          4.1552  -18.3746  -50.7639 C.3       2 UNK        -0.1800 
     64 N           3.6231  -16.2903  -49.5902 N.am      2 UNK        -0.5000 
     65 C           3.7821  -15.1624  -48.8823 C.2       1 UNK         0.5000 
     66 O           4.7694  -14.9384  -48.1776 O.2       1 UNK        -0.5000 
     67 C          -1.5075  -20.9948  -47.4113 C.2       11 UNK         0.5000 
     68 O          -1.2526  -21.7457  -48.3531 O.2       11 UNK        -0.5000 
     69 N          -2.7530  -20.6852  -47.0206 N.am      12 UNK        -0.5000 
     70 CA         -3.9911  -21.1997  -47.6072 C.3       12 UNK         0.1400 
     71 CB         -5.1909  -20.6242  -46.8418 C.3       12 UNK        -0.1800 
     72 C          -4.0570  -22.7375  -47.6599 C.2       12 UNK         0.5000 
     73 O          -4.5036  -23.2886  -48.6664 O.2       12 UNK        -0.5000 
     74 N          -3.5760  -23.3972  -46.5997 N.am      13 UNK        -0.5000 
     75 CA         -3.4607  -24.8500  -46.5285 C.3       13 UNK         0.1400 
     76 CB         -3.4806  -25.2911  -45.0564 C.3       13 UNK        -0.1800 
     77 C          -2.1920  -25.3531  -47.2384 C.2       13 UNK         0.5000 
     78 O          -2.2774  -26.2767  -48.0476 O.2       13 UNK        -0.5000 
     79 N          -1.0419  -24.7420  -46.9204 N.am      14 UNK        -0.5000 
     80 CA          0.2900  -25.1724  -47.3516 C.3       14 UNK         0.1400 
     81 CB          1.3558  -24.3581  -46.6018 C.3       14 UNK        -0.1800 
     82 C           0.5211  -25.0905  -48.8703 C.2       14 UNK         0.5000 
     83 O           1.0926  -26.0179  -49.4451 O.2       14 UNK        -0.5000 
     84 N           0.0713  -23.9939  -49.4920 N.am      15 UNK        -0.5000 
     85 CA          0.1988  -23.7503  -50.9308 C.3       15 UNK         0.1400 
     86 CB          0.4386  -22.2472  -51.1531 C.3       15 UNK        -0.1800 
     87 C          -1.0415  -24.2153  -51.7183 C.2       15 UNK         0.5000 
     88 O          -1.0478  -24.0972  -52.9437 O.2       15 UNK        -0.5000 
     89 N          -2.0796  -24.6857  -51.0072 N.am      16 UNK        -0.5000 
     90 CA         -3.4271  -25.0095  -51.4969 C.3       16 UNK         0.1400 
     91 CB         -3.3994  -26.1780  -52.5027 C.3       16 UNK        -0.1800 
     92 C          -4.1875  -23.7767  -52.0348 C.2       16 UNK         0.5000 
     93 O          -5.1389  -23.9162  -52.8064 O.2       16 UNK        -0.5000 
     94 N          -3.7827  -22.5822  -51.5813 N.am      17 UNK        -0.5000 
     95 CA         -4.3685  -21.2921  -51.9379 C.3       17 UNK         0.1400 
     96 CB         -3.4374  -20.1654  -51.4687 C.3       17 UNK        -0.1800 
     97 C          -5.8237  -21.1027  -51.4614 C.2       17 UNK         0.5000 
     98 O          -6.5220  -20.2460  -52.0011 O.2       17 UNK        -0.5000 
     99 N          -6.2786  -21.9392  -50.5159 N.am      18 UNK        -0.5000 
    100 CA        -7.6834  -22.0868  -50.1309 C.3       18 UNK         0.1400 
    101 CB        -7.7887  -23.0668  -48.9510 C.3       18 UNK        -0.1800 
    102 C         -8.5803  -22.5739  -51.2875 C.2       18 UNK         0.5000 
    103 O         -9.7485  -22.1877  -51.3431 O.2       18 UNK        -0.5000 
    104 N         -8.0264  -23.4049  -52.1840 N.am      19 UNK        -0.5000 
    105 CA        -8.6971  -23.8617  -53.3987 C.3       19 UNK         0.1400 
    106 CB        -8.1422  -25.2311  -53.8259 C.3       19 UNK        -0.1800 
    107 C         -8.5434  -22.8130  -54.5106 C.2       19 UNK         0.5000 
    108 O         -9.5494  -22.3139  -55.0165 O.2       19 UNK        -0.5000 
    109 N         -7.2912  -22.4739  -54.8423 N.am      20 UNK        -0.5000 
    110 CA        -6.9275  -21.4533  -55.8214 C.3       20 UNK         0.1400 
    111 CB        -7.2493  -21.9246  -57.2543 C.3       20 UNK        -0.1800 
    112 C         -5.4232  -21.1600  -55.6776 C.2       20 UNK         0.5000 
    113 O         -4.6301  -22.0812  -55.8686 O.2       20 UNK        -0.5000 
    114 N         -4.9895  -19.9363  -55.3537 N.am      21 UNK        -0.5000 
    115 CA        -5.7548  -18.7693  -54.9259 C.3       21 UNK         0.1400 
    116 CB        -6.2576  -17.9871  -56.1523 C.3       21 UNK        -0.1800 
    117 C         -4.8296  -17.8999  -54.0610 C.2       21 UNK         0.5000 
    118 O         -3.6199  -17.8775  -54.3040 O.2       21 UNK        -0.5000 
    119 N         -5.4077  -17.2065  -53.0752 N.am      22 UNK        -0.5000 
    120 CA        -4.7129  -16.2404  -52.2096 C.3       22 UNK         0.1400 
    121 C         -4.2458  -14.9763  -52.9831 C.2       22 UNK         0.5000 
    122 N         -3.0906  -14.4252  -52.6363 N.am      22 UNK        -0.7600 
    123 O         -4.9397  -14.4672  -53.8610 O.2       22 UNK        -0.5000 
    124 C124       -5.5930  -15.8380  -50.9989 C.3       23 UNK        -0.0398 
    125 S125       -5.7678  -17.2014  -49.7972 S.3       23 UNK        -0.2404 
    126 C126       -4.6928  -16.6244  -48.4420 C.3       23 UNK        -0.0205 
    127 H127        4.0708  -10.4101  -48.4999 H         1 UNK         0.0600 
    128 H128        4.0354  -10.0439  -50.2270 H         1 UNK         0.0600 
    129 H129        5.4946  -10.7218  -49.4964 H         1 UNK         0.0600 
    130 H130        2.9628  -12.2728  -48.0019 H         1 UNK         0.3000 
    131 H131        2.1765  -14.2272  -49.9394 H         1 UNK         0.0600 
    132 H132        1.1886  -15.4218  -47.9357 H         1 UNK         0.0800 
    133 H133        2.0028  -14.3201  -46.8810 H         1 UNK         0.0800 
    134 H134       -1.4697  -12.9181  -49.6804 H         1 UNK         0.0800 
    135 H135       -0.0131  -13.6134  -50.3274 H         1 UNK         0.0800 
    136 H136       -3.2543  -14.3137  -48.7484 H         1 UNK         0.1150 
    137 H137       -2.9051  -18.5699  -49.0401 H         1 UNK         0.1150 
    138 H138        0.4159  -16.0768  -50.0866 H         1 UNK         0.1150 
    139 H139       -0.8978  -19.5756  -49.9013 H         1 UNK         0.0800 
    140 H140        0.2096  -18.5855  -50.8086 H         1 UNK         0.0800 
    141 H141        0.5990  -18.4863  -46.2406 H         1 UNK         0.0800 
    142 H142       -0.8992  -18.3553  -47.0918 H         1 UNK         0.0800 
    143 H143        0.5225  -21.0381  -46.7395 H         1 UNK         0.0600 
    144 H144       -0.5806  -19.6004  -44.6181 H         1 UNK         0.3000 
    145 H145       -1.8047  -22.2894  -42.6180 H         1 UNK         0.0600 
    146 H146       -0.2151  -21.1679  -41.0607 H         1 UNK         0.0600 
    147 H147        0.6380  -22.1688  -42.2279 H         1 UNK         0.0600 
    148 H148        0.6088  -20.4221  -42.4301 H         1 UNK         0.0600 
    149 H149       -1.6308  -19.3577  -42.5366 H         1 UNK         0.3000 
    150 H150       -5.0217  -18.8863  -43.5496 H         1 UNK         0.0600 
    151 H151       -5.2485  -19.4130  -41.1135 H         1 UNK         0.0600 
    152 H152       -5.1988  -17.6795  -41.3910 H         1 UNK         0.0600 
    153 H153       -3.7740  -18.5154  -40.7717 H         1 UNK         0.0600 
    154 H154       -3.0546  -17.0462  -42.6326 H         1 UNK         0.3000 
    155 H155       -1.2614  -16.5878  -45.6384 H         1 UNK         0.0600 
    156 H156       -2.0939  -14.2851  -45.5762 H         1 UNK         0.0600 
    157 H157       -3.3891  -14.7288  -44.4611 H         1 UNK         0.0600 
    158 H158       -3.3935  -15.3351  -46.1101 H         1 UNK         0.0600 
    159 H159       -1.2259  -15.0258  -43.3247 H         1 UNK         0.3000 
    160 H160        0.8813  -15.1818  -42.2056 H         1 UNK         0.0600 
    161 H161       -0.9738  -16.7710  -40.3532 H         1 UNK         0.0600 
    162 H162       -1.2057  -15.1333  -40.9369 H         1 UNK         0.0600 
    163 H163        0.0972  -15.4777  -39.8144 H         1 UNK         0.0600 
    164 H164        2.5590  -16.5075  -41.7842 H         1 UNK         0.3000 
    165 H165        3.3677  -18.7746  -39.5523 H         1 UNK         0.0600 
    166 H166        3.0489  -20.0197  -42.3343 H         1 UNK         0.0600 
    167 H167        4.2724  -20.4818  -41.1521 H         1 UNK         0.0600 
    168 H168        2.5739  -20.7472  -40.8013 H         1 UNK         0.0600 
    169 H169        4.2231  -17.7994  -42.2417 H         1 UNK         0.3000 
    170 H170        6.1063  -15.1664  -40.8649 H         1 UNK         0.0600 
    171 H171        7.7955  -16.9806  -40.5368 H         1 UNK         0.0600 
    172 H172        7.3231  -17.7134  -42.0650 H         1 UNK         0.0600 
    173 H173        8.0751  -16.1173  -42.0401 H         1 UNK         0.0600 
    174 H174        5.9948  -16.2129  -43.5144 H         1 UNK         0.3000 
    175 H175        2.8574  -14.9174  -44.4856 H         1 UNK         0.0600 
    176 H176        5.6108  -13.8039  -45.2384 H         1 UNK         0.0600 
    177 H177        4.0899  -13.5188  -46.0795 H         1 UNK         0.0600 
    178 H178        4.3370  -12.8566  -44.4796 H         1 UNK         0.0600 
    179 H179        4.7720  -15.9650  -46.1811 H         1 UNK         0.3000 
    180 H180        5.4741  -18.6627  -45.9065 H         1 UNK         0.0600 
    181 H181        2.6123  -19.7594  -45.9363 H         1 UNK         0.0600 
    182 H182        3.9277  -20.2889  -44.8997 H         1 UNK         0.0600 
    183 H183        4.0066  -20.5824  -46.6297 H         1 UNK         0.0600 
    184 H184        3.2664  -17.5938  -47.5938 H         1 UNK         0.3000 
    185 H185        5.5377  -16.8637  -50.1410 H         1 UNK         0.0600 
    186 H186        3.9527  -17.9099  -51.7289 H         1 UNK         0.0600 
    187 H187        4.9098  -19.1447  -50.9289 H         1 UNK         0.0600 
    188 H188        3.2454  -18.8762  -50.4350 H         1 UNK         0.0600 
    189 H189        2.7858  -16.4154  -50.1391 H         1 UNK         0.3000 
    190 H190       -2.8660  -19.9987  -46.2786 H         1 UNK         0.3000 
    191 H191       -4.0516  -20.8315  -48.6286 H         1 UNK         0.0600 
    192 H192       -6.1303  -20.8997  -47.3184 H         1 UNK         0.0600 
    193 H193       -5.1591  -19.5359  -46.8163 H         1 UNK         0.0600 
    194 H194       -5.2227  -20.9812  -45.8123 H         1 UNK         0.0600 
    195 H195       -3.1771  -22.8685  -45.8360 H         1 UNK         0.3000 
    196 H196       -4.3241  -25.3014  -47.0224 H         1 UNK         0.0600 
    197 H197       -3.4052  -26.3761  -44.9736 H         1 UNK         0.0600 
    198 H198       -4.4089  -24.9915  -44.5699 H         1 UNK         0.0600 
    199 H199       -2.6540  -24.8603  -44.4903 H         1 UNK         0.0600 
    200 H200       -1.0666  -23.9821  -46.2431 H         1 UNK         0.3000 
    201 H201        0.4025  -26.2189  -47.0607 H         1 UNK         0.0600 
    202 H202        1.2571  -24.4774  -45.5227 H         1 UNK         0.0600 
    203 H203        1.2813  -23.2946  -46.8287 H         1 UNK         0.0600 
    204 H204        2.3608  -24.6826  -46.8745 H         1 UNK         0.0600 
    205 H205       -0.3950  -23.2660  -48.9529 H         1 UNK         0.3000 
    206 H206        1.0623  -24.2902  -51.3245 H         1 UNK         0.0600 
    207 H207        1.2668  -21.8799  -50.5465 H         1 UNK         0.0600 
    208 H208        0.6820  -22.0403  -52.1958 H         1 UNK         0.0600 
    209 H209       -0.4455  -21.6608  -50.9046 H         1 UNK         0.0600 
    210 H210       -1.9524  -24.7715  -50.0076 H         1 UNK         0.3000 
    211 H211       -3.9869  -25.3449  -50.6226 H         1 UNK         0.0600 
    212 H212       -2.9337  -25.8927  -53.4461 H         1 UNK         0.0600 
    213 H213       -4.4099  -26.5190  -52.7310 H         1 UNK         0.0600 
    214 H214       -2.8529  -27.0312  -52.1009 H         1 UNK         0.0600 
    215 H215       -3.0235  -22.5688  -50.9168 H         1 UNK         0.3000 
    216 H216       -4.4024  -21.2489  -53.0248 H         1 UNK         0.0600 
    217 H217       -3.9490  -19.2036  -51.4337 H         1 UNK         0.0600 
    218 H218       -2.5922  -20.0553  -52.1484 H         1 UNK         0.0600 
    219 H219       -3.0306  -20.3620  -50.4809 H         1 UNK         0.0600 
    220 H220       -5.6238  -22.5834  -50.0821 H         1 UNK         0.3000 
    221 H221       -8.0493  -21.1100  -49.8083 H         1 UNK         0.0600 
    222 H222       -7.3953  -24.0505  -49.2109 H         1 UNK         0.0600 
    223 H223       -7.2410  -22.7120  -48.0805 H         1 UNK         0.0600 
    224 H224       -8.8270  -23.1993  -48.6441 H         1 UNK         0.0600 
    225 H225       -7.0427  -23.6362  -52.1012 H         1 UNK         0.3000 
    226 H226       -9.7631  -23.9888  -53.1971 H         1 UNK         0.0600 
    227 H227       -8.2831  -25.9734  -53.0403 H         1 UNK         0.0600 
    228 H228       -8.6579  -25.5968  -54.7146 H         1 UNK         0.0600 
    229 H229       -7.0785  -25.1927  -54.0601 H         1 UNK         0.0600 
    230 H230       -6.5129  -22.9288  -54.3768 H         1 UNK         0.3000 
    231 H231       -7.5239  -20.5649  -55.6218 H         1 UNK         0.0600 
    232 H232       -6.9125  -21.1917  -57.9884 H         1 UNK         0.0600 
    233 H233       -8.3203  -22.0580  -57.4046 H         1 UNK         0.0600 
    234 H234       -6.7596  -22.8713  -57.4861 H         1 UNK         0.0600 
    235 H235       -3.9918  -19.7821  -55.2777 H         1 UNK         0.3000 
    236 H236       -6.6005  -19.0766  -54.3103 H         1 UNK         0.0600 
    237 H237       -6.9170  -18.5882  -56.7775 H         1 UNK         0.0600 
    238 H238       -6.8190  -17.1036  -55.8459 H         1 UNK         0.0600 
    239 H239       -5.4291  -17.6477  -56.7753 H         1 UNK         0.0600 
    240 H240       -6.4022  -17.2941  -52.9281 H         1 UNK         0.3000 
    241 H241       -3.8157  -16.7336  -51.8295 H         1 UNK         0.0600 
    242 H242       -2.5122  -14.8268  -51.9151 H         1 UNK         0.3800 
    243 H243       -2.7804  -13.5965  -53.1191 H         1 UNK         0.3800 
    244 H244       -5.1797  -14.9695  -50.4835 H         1 UNK         0.0800 
    245 H245       -6.5868  -15.5347  -51.3317 H         1 UNK         0.0800 
    246 H246       -4.7356  -17.3418  -47.6223 H         1 UNK         0.0800 
    247 H247       -5.0862  -15.6870  -48.0463 H         1 UNK         0.0800 
@<TRIPOS>BOND
     1    1    2 1    
     2    1  127 1    
     3    1  128 1    
     4    1  129 1    
     5    2    3 2    
     6    2    4 am   BACKBONE|DICT|INTERRES
     7    4    5 1    
     8    4  130 1    
     9    5    6 1    
    10    5   65 1    
    11    5  131 1    
    12    6    7 1    
    13    6  132 1    
    14    6  133 1    
    15    7    8 1    
    16    8    9 1    
    17    8  134 1    
    18    8  135 1    
    19    9   10 ar   
    20    9   14 ar   
    21   10   11 ar   
    22   10  136 1    
    23   11   12 ar   
    24   11  126 1    
    25   12   13 ar   
    26   12  137 1    
    27   13   14 ar   
    28   13   15 1    
    29   14  138 1    
    30   15   16 1    
    31   15  139 1    
    32   15  140 1    
    33   16   17 1    
    34   17   18 1    
    35   17  141 1    
    36   17  142 1    
    37   18   19 1    
    38   18   67 1    
    39   18  143 1    
    40   19   20 am   BACKBONE|DICT|INTERRES
    41   19  144 1    
    42   20   21 2    
    43   20   22 1    
    44   22   23 1    
    45   22   24 1    
    46   22  145 1    
    47   23  146 1    
    48   23  147 1    
    49   23  148 1    
    50   24   25 am   BACKBONE|DICT|INTERRES
    51   24  149 1    
    52   25   26 2    
    53   25   27 1    
    54   27   28 1    
    55   27   29 1    
    56   27  150 1    
    57   28  151 1    
    58   28  152 1    
    59   28  153 1    
    60   29   30 am   BACKBONE|DICT|INTERRES
    61   29  154 1    
    62   30   31 2    
    63   30   32 1    
    64   32   33 1    
    65   32   34 1    
    66   32  155 1    
    67   33  156 1    
    68   33  157 1    
    69   33  158 1    
    70   34   35 am   BACKBONE|DICT|INTERRES
    71   34  159 1    
    72   35   36 2    
    73   35   37 1    
    74   37   38 1    
    75   37   39 1    
    76   37  160 1    
    77   38  161 1    
    78   38  162 1    
    79   38  163 1    
    80   39   40 am   BACKBONE|DICT|INTERRES
    81   39  164 1    
    82   40   41 2    
    83   40   42 1    
    84   42   43 1    
    85   42   44 1    
    86   42  165 1    
    87   43  166 1    
    88   43  167 1    
    89   43  168 1    
    90   44   45 am   BACKBONE|DICT|INTERRES
    91   44  169 1    
    92   45   46 2    
    93   45   47 1    
    94   47   48 1    
    95   47   49 1    
    96   47  170 1    
    97   48  171 1    
    98   48  172 1    
    99   48  173 1    
   100   49   50 am   BACKBONE|DICT|INTERRES
   101   49  174 1    
   102   50   51 2    
   103   50   52 1    
   104   52   53 1    
   105   52   54 1    
   106   52  175 1    
   107   53  176 1    
   108   53  177 1    
   109   53  178 1    
   110   54   55 am   BACKBONE|DICT|INTERRES
   111   54  179 1    
   112   55   56 2    
   113   55   57 1    
   114   57   58 1    
   115   57   59 1    
   116   57  180 1    
   117   58  181 1    
   118   58  182 1    
   119   58  183 1    
   120   59   60 am   BACKBONE|DICT|INTERRES
   121   59  184 1    
   122   60   61 2    
   123   60   62 1    
   124   62   63 1    
   125   62   64 1    
   126   62  185 1    
   127   63  186 1    
   128   63  187 1    
   129   63  188 1    
   130   64   65 am   BACKBONE|DICT|INTERRES
   131   64  189 1    
   132   65   66 2    
   133   67   68 2    
   134   67   69 am   BACKBONE|DICT|INTERRES
   135   69   70 1    
   136   69  190 1    
   137   70   71 1    
   138   70   72 1    
   139   70  191 1    
   140   71  192 1    
   141   71  193 1    
   142   71  194 1    
   143   72   73 2    
   144   72   74 am   BACKBONE|DICT|INTERRES
   145   74   75 1    
   146   74  195 1    
   147   75   76 1    
   148   75   77 1    
   149   75  196 1    
   150   76  197 1    
   151   76  198 1    
   152   76  199 1    
   153   77   78 2    
   154   77   79 am   BACKBONE|DICT|INTERRES
   155   79   80 1    
   156   79  200 1    
   157   80   81 1    
   158   80   82 1    
   159   80  201 1    
   160   81  202 1    
   161   81  203 1    
   162   81  204 1    
   163   82   83 2    
   164   82   84 am   BACKBONE|DICT|INTERRES
   165   84   85 1    
   166   84  205 1    
   167   85   86 1    
   168   85   87 1    
   169   85  206 1    
   170   86  207 1    
   171   86  208 1    
   172   86  209 1    
   173   87   88 2    
   174   87   89 am   BACKBONE|DICT|INTERRES
   175   89   90 1    
   176   89  210 1    
   177   90   91 1    
   178   90   92 1    
   179   90  211 1    
   180   91  212 1    
   181   91  213 1    
   182   91  214 1    
   183   92   93 2    
   184   92   94 am   BACKBONE|DICT|INTERRES
   185   94   95 1    
   186   94  215 1    
   187   95   96 1    
   188   95   97 1    
   189   95  216 1    
   190   96  217 1    
   191   96  218 1    
   192   96  219 1    
   193   97   98 2    
   194   97   99 am   BACKBONE|DICT|INTERRES
   195   99  100 1    
   196   99  220 1    
   197  100  101 1    
   198  100  102 1    
   199  100  221 1    
   200  101  222 1    
   201  101  223 1    
   202  101  224 1    
   203  102  103 2    
   204  102  104 am   BACKBONE|DICT|INTERRES
   205  104  105 1    
   206  104  225 1    
   207  105  106 1    
   208  105  107 1    
   209  105  226 1    
   210  106  227 1    
   211  106  228 1    
   212  106  229 1    
   213  107  108 2    
   214  107  109 am   BACKBONE|DICT|INTERRES
   215  109  110 1    
   216  109  230 1    
   217  110  111 1    
   218  110  112 1    
   219  110  231 1    
   220  111  232 1    
   221  111  233 1    
   222  111  234 1    
   223  112  113 2    
   224  112  114 am   BACKBONE|DICT|INTERRES
   225  114  115 1    
   226  114  235 1    
   227  115  116 1    
   228  115  117 1    
   229  115  236 1    
   230  116  237 1    
   231  116  238 1    
   232  116  239 1    
   233  117  118 2    
   234  117  119 am   BACKBONE|DICT|INTERRES
   235  119  120 1    
   236  119  240 1    
   237  120  121 1    
   238  120  124 1    
   239  120  241 1    
   240  121  122 am   BACKBONE|DICT|INTERRES
   241  121  123 2    
   242  122  242 1    
   243  122  243 1    
   244  124  125 1    
   245  124  244 1    
   246  124  245 1    
   247  125  126 1    
   248  126  246 1    
   249  126  247 1    
@<TRIPOS>SUBSTRUCTURE
     1 UNK         1 GROUP             0       ****    0 ROOT    
