@<TRIPOS>MOLECULE
3R540
247   249    1
SMALL
USER_CHARGES


@<TRIPOS>ATOM
      1 CA          2.0670   -9.0730  -48.5965 C.3       0 UNK        -0.1800 
      2 C           2.0027  -10.3966  -47.8498 C.2       0 UNK         0.5000 
      3 O           2.6042  -10.5285  -46.7848 O.2       0 UNK        -0.5000 
      4 N           1.2593  -11.3718  -48.3876 N.am      1 UNK        -0.5000 
      5 CA          1.1191  -12.7342  -47.8484 C.3       1 UNK         0.1400 
      6 C6          0.4071  -13.6791  -48.8493 C.3       23 UNK        -0.0398 
      7 S7          1.3374  -13.8133  -50.4139 S.3       23 UNK        -0.2404 
      8 C8          0.1626  -14.7074  -51.4812 C.3       23 UNK        -0.0205 
      9 C9          0.0256  -16.1752  -51.1015 C.ar      23 UNK        -0.0193 
     10 C10         1.1391  -17.0194  -51.1412 C.ar      23 UNK        -0.1150 
     11 C11         1.0231  -18.3701  -50.8012 C.ar      23 UNK        -0.0193 
     12 C12        -0.2267  -18.8820  -50.4450 C.ar      23 UNK        -0.1150 
     13 C13        -1.3503  -18.0512  -50.4141 C.ar      23 UNK        -0.0193 
     14 C14        -1.2176  -16.6976  -50.7350 C.ar      23 UNK        -0.1150 
     15 C15        -2.7027  -18.6168  -50.0199 C.3       23 UNK        -0.0205 
     16 S16        -2.9755  -18.3904  -48.2408 S.3       23 UNK        -0.2404 
     17 C17        -3.9738  -19.8439  -47.7876 C.3       23 UNK        -0.0398 
     18 CA         -3.2214  -21.1996  -47.8421 C.3       11 UNK         0.1400 
     19 N          -1.8890  -21.1830  -47.2237 N.am      11 UNK        -0.5000 
     20 C          -1.0395  -22.2222  -47.2473 C.2       10 UNK         0.5000 
     21 O          -1.2775  -23.2733  -47.8437 O.2       10 UNK        -0.5000 
     22 CA          0.2561  -22.1225  -46.4209 C.3       10 UNK         0.1400 
     23 CB          1.4453  -21.7338  -47.3111 C.3       10 UNK        -0.1800 
     24 N           0.1606  -21.2194  -45.2711 N.am      10 UNK        -0.5000 
     25 C          -0.6744  -21.3865  -44.2338 C.2       9 UNK         0.5000 
     26 O          -1.4578  -22.3318  -44.1366 O.2       9 UNK        -0.5000 
     27 CA         -0.6790  -20.2907  -43.1524 C.3       9 UNK         0.1400 
     28 CB          0.4651  -20.5032  -42.1507 C.3       9 UNK        -0.1800 
     29 N          -0.5954  -18.9461  -43.7213 N.am      9 UNK        -0.5000 
     30 C          -1.5375  -18.3925  -44.4977 C.2       8 UNK         0.5000 
     31 O          -2.6201  -18.9267  -44.7398 O.2       8 UNK        -0.5000 
     32 CA         -1.1955  -17.0354  -45.1430 C.3       8 UNK         0.1400 
     33 CB         -1.5275  -15.8810  -44.1859 C.3       8 UNK        -0.1800 
     34 N           0.2002  -16.9464  -45.5872 N.am      8 UNK        -0.5000 
     35 C           0.7465  -17.7461  -46.5173 C.2       7 UNK         0.5000 
     36 O           0.1198  -18.6115  -47.1218 O.2       7 UNK        -0.5000 
     37 CA          2.2591  -17.6151  -46.7626 C.3       7 UNK         0.1400 
     38 CB          2.5808  -16.4102  -47.6552 C.3       7 UNK        -0.1800 
     39 N           3.0006  -17.5104  -45.5086 N.am      7 UNK        -0.5000 
     40 C           3.1684  -18.5212  -44.6433 C.2       6 UNK         0.5000 
     41 O           2.7740  -19.6680  -44.8535 O.2       6 UNK        -0.5000 
     42 CA          3.8474  -18.1887  -43.2974 C.3       6 UNK         0.1400 
     43 CB          5.3708  -18.3468  -43.4079 C.3       6 UNK        -0.1800 
     44 N           3.5365  -16.8394  -42.8209 N.am      6 UNK        -0.5000 
     45 C           2.3020  -16.4032  -42.5394 C.2       5 UNK         0.5000 
     46 O           1.3208  -17.1452  -42.5039 O.2       5 UNK        -0.5000 
     47 CA          2.1030  -14.8927  -42.3025 C.3       5 UNK         0.1400 
     48 CB          1.8695  -14.6103  -40.8112 C.3       5 UNK        -0.1800 
     49 N           3.1573  -13.9954  -42.7901 N.am      5 UNK        -0.5000 
     50 C           3.6579  -13.9198  -44.0316 C.2       4 UNK         0.5000 
     51 O           3.4606  -14.7618  -44.9069 O.2       4 UNK        -0.5000 
     52 CA          4.4832  -12.6572  -44.3453 C.3       4 UNK         0.1400 
     53 CB          5.1486  -12.7140  -45.7320 C.3       4 UNK        -0.1800 
     54 N           3.6182  -11.4806  -44.2883 N.am      4 UNK        -0.5000 
     55 C           3.2292  -10.8529  -43.1711 C.2       3 UNK         0.5000 
     56 O           3.6531  -11.1319  -42.0484 O.2       3 UNK        -0.5000 
     57 CA          2.1341   -9.7879  -43.3345 C.3       3 UNK         0.1400 
     58 CB          2.7042   -8.4890  -43.9259 C.3       3 UNK        -0.1800 
     59 N           1.0511  -10.2855  -44.1839 N.am      3 UNK        -0.5000 
     60 C           0.0601  -11.0833  -43.7591 C.2       2 UNK         0.5000 
     61 O          -0.0735  -11.4425  -42.5890 O.2       2 UNK        -0.5000 
     62 CA         -0.9581  -11.5590  -44.8144 C.3       2 UNK         0.1400 
     63 CB         -2.1196  -10.5606  -44.9303 C.3       2 UNK        -0.1800 
     64 N          -0.3558  -11.7478  -46.1343 N.am      2 UNK        -0.5000 
     65 C           0.4354  -12.7789  -46.4634 C.2       1 UNK         0.5000 
     66 O           0.6532  -13.7294  -45.7143 O.2       1 UNK        -0.5000 
     67 C          -4.1158  -22.3113  -47.2536 C.2       11 UNK         0.5000 
     68 O          -4.8543  -22.9548  -47.9975 O.2       11 UNK        -0.5000 
     69 N          -4.0090  -22.5359  -45.9380 N.am      12 UNK        -0.5000 
     70 CA         -4.7033  -23.6061  -45.2309 C.3       12 UNK         0.1400 
     71 CB         -4.9946  -23.1562  -43.7911 C.3       12 UNK        -0.1800 
     72 C          -3.8864  -24.9080  -45.2404 C.2       12 UNK         0.5000 
     73 O          -4.4460  -25.9694  -45.5107 O.2       12 UNK        -0.5000 
     74 N          -2.5884  -24.8111  -44.9234 N.am      13 UNK        -0.5000 
     75 CA         -1.7213  -25.9619  -44.6714 C.3       13 UNK         0.1400 
     76 CB         -0.4877  -25.5042  -43.8779 C.3       13 UNK        -0.1800 
     77 C          -1.2945  -26.7285  -45.9353 C.2       13 UNK         0.5000 
     78 O          -1.1960  -27.9551  -45.8785 O.2       13 UNK        -0.5000 
     79 N          -1.0282  -26.0112  -47.0347 N.am      14 UNK        -0.5000 
     80 CA         -0.5172  -26.5823  -48.2824 C.3       14 UNK         0.1400 
     81 CB          0.7422  -25.8184  -48.7257 C.3       14 UNK        -0.1800 
     82 C          -1.5869  -26.5618  -49.3822 C.2       14 UNK         0.5000 
     83 O          -1.7837  -27.5787  -50.0481 O.2       14 UNK        -0.5000 
     84 N          -2.2750  -25.4224  -49.5453 N.am      15 UNK        -0.5000 
     85 CA         -3.3147  -25.2338  -50.5640 C.3       15 UNK         0.1400 
     86 CB         -3.3249  -23.7704  -51.0308 C.3       15 UNK        -0.1800 
     87 C          -4.7141  -25.7037  -50.1123 C.2       15 UNK         0.5000 
     88 O          -5.6723  -25.5405  -50.8682 O.2       15 UNK        -0.5000 
     89 N          -4.8155  -26.2831  -48.9054 N.am      16 UNK        -0.5000 
     90 CA         -5.9854  -26.9733  -48.3430 C.3       16 UNK         0.1400 
     91 CB         -6.2632  -28.2679  -49.1361 C.3       16 UNK        -0.1800 
     92 C          -7.2454  -26.0915  -48.1987 C.2       16 UNK         0.5000 
     93 O          -8.3616  -26.6105  -48.2539 O.2       16 UNK        -0.5000 
     94 N          -7.0464  -24.7746  -48.0366 N.am      17 UNK        -0.5000 
     95 CA         -8.0623  -23.7157  -48.0049 C.3       17 UNK         0.1400 
     96 CB         -9.0209  -23.8882  -46.8082 C.3       17 UNK        -0.1800 
     97 C          -8.7960  -23.5322  -49.3523 C.2       17 UNK         0.5000 
     98 O          -9.8886  -22.9639  -49.3818 O.2       17 UNK        -0.5000 
     99 N          -8.1715  -23.9886  -50.4454 N.am      18 UNK        -0.5000 
    100 CA        -8.6587  -23.9021  -51.8199 C.3       18 UNK         0.1400 
    101 CB        -8.9967  -25.3197  -52.3164 C.3       18 UNK        -0.1800 
    102 C         -7.6150  -23.1931  -52.7041 C.2       18 UNK         0.5000 
    103 O         -7.4411  -23.5567  -53.8683 O.2       18 UNK        -0.5000 
    104 N         -6.9291  -22.1961  -52.1257 N.am      19 UNK        -0.5000 
    105 CA        -5.9241  -21.3552  -52.7758 C.3       19 UNK         0.1400 
    106 CB        -5.3319  -20.4080  -51.7196 C.3       19 UNK        -0.1800 
    107 C         -6.5211  -20.5513  -53.9563 C.2       19 UNK         0.5000 
    108 O         -7.5878  -19.9635  -53.7720 O.2       19 UNK        -0.5000 
    109 N         -5.8989  -20.4712  -55.1449 N.am      20 UNK        -0.5000 
    110 CA        -4.6347  -21.0506  -55.6210 C.3       20 UNK         0.1400 
    111 CB        -4.7378  -22.5782  -55.8218 C.3       20 UNK        -0.1800 
    112 C         -3.4110  -20.5963  -54.8035 C.2       20 UNK         0.5000 
    113 O         -2.6686  -21.4241  -54.2744 O.2       20 UNK        -0.5000 
    114 N         -3.2587  -19.2710  -54.6891 N.am      21 UNK        -0.5000 
    115 CA        -2.1159  -18.6039  -54.0638 C.3       21 UNK         0.1400 
    116 CB        -2.4254  -17.1020  -53.9642 C.3       21 UNK        -0.1800 
    117 C         -0.8054  -18.8329  -54.8430 C.2       21 UNK         0.5000 
    118 O         -0.8423  -19.0589  -56.0559 O.2       21 UNK        -0.5000 
    119 N          0.3247  -18.7587  -54.1318 N.am      22 UNK        -0.5000 
    120 CA         1.6772  -18.9411  -54.6817 C.3       22 UNK         0.1400 
    121 C          2.0694  -17.8448  -55.7125 C.2       22 UNK         0.5000 
    122 N          2.7940  -18.2033  -56.7638 N.am      22 UNK        -0.7600 
    123 O          1.7629  -16.6666  -55.5434 O.2       22 UNK        -0.5000 
    124 C124        2.7531  -19.0301  -53.5689 C.3       23 UNK        -0.0398 
    125 S125        2.3787  -20.2871  -52.2960 S.3       23 UNK        -0.2404 
    126 C126        2.2495  -19.2702  -50.7903 C.3       23 UNK        -0.0205 
    127 H127        3.0984   -8.8466  -48.8663 H         1 UNK         0.0600 
    128 H128        1.6945   -8.2676  -47.9637 H         1 UNK         0.0600 
    129 H129        1.4720   -9.0931  -49.5098 H         1 UNK         0.0600 
    130 H130        0.7982  -11.2081  -49.2714 H         1 UNK         0.3000 
    131 H131        2.1307  -13.1157  -47.6940 H         1 UNK         0.0600 
    132 H132       -0.6017  -13.3217  -49.0628 H         1 UNK         0.0800 
    133 H133        0.2958  -14.6814  -48.4317 H         1 UNK         0.0800 
    134 H134        0.5139  -14.6489  -52.5124 H         1 UNK         0.0800 
    135 H135       -0.8041  -14.2021  -51.4588 H         1 UNK         0.0800 
    136 H136        2.1020  -16.6123  -51.4156 H         1 UNK         0.1150 
    137 H137       -0.3213  -19.9242  -50.1731 H         1 UNK         0.1150 
    138 H138       -2.0858  -16.0545  -50.7027 H         1 UNK         0.1150 
    139 H139       -3.5001  -18.1202  -50.5743 H         1 UNK         0.0800 
    140 H140       -2.7471  -19.6718  -50.2878 H         1 UNK         0.0800 
    141 H141       -4.8532  -19.8719  -48.4336 H         1 UNK         0.0800 
    142 H142       -4.3477  -19.6589  -46.7787 H         1 UNK         0.0800 
    143 H143       -3.0621  -21.4447  -48.8915 H         1 UNK         0.0600 
    144 H144       -1.6105  -20.3271  -46.7595 H         1 UNK         0.3000 
    145 H145        0.4582  -23.1199  -46.0286 H         1 UNK         0.0600 
    146 H146        2.3743  -21.7066  -46.7417 H         1 UNK         0.0600 
    147 H147        1.5795  -22.4568  -48.1166 H         1 UNK         0.0600 
    148 H148        1.3057  -20.7586  -47.7737 H         1 UNK         0.0600 
    149 H149        0.7868  -20.4227  -45.2708 H         1 UNK         0.3000 
    150 H150       -1.6230  -20.3653  -42.6087 H         1 UNK         0.0600 
    151 H151        0.3918  -21.4838  -41.6787 H         1 UNK         0.0600 
    152 H152        0.4383  -19.7562  -41.3571 H         1 UNK         0.0600 
    153 H153        1.4408  -20.4437  -42.6323 H         1 UNK         0.0600 
    154 H154        0.2341  -18.4021  -43.5016 H         1 UNK         0.3000 
    155 H155       -1.8263  -16.9220  -46.0252 H         1 UNK         0.0600 
    156 H156       -0.8839  -15.8807  -43.3071 H         1 UNK         0.0600 
    157 H157       -2.5579  -15.9509  -43.8353 H         1 UNK         0.0600 
    158 H158       -1.4253  -14.9179  -44.6823 H         1 UNK         0.0600 
    159 H159        0.7754  -16.2382  -45.1530 H         1 UNK         0.3000 
    160 H160        2.5916  -18.5151  -47.2844 H         1 UNK         0.0600 
    161 H161        2.3017  -15.4729  -47.1768 H         1 UNK         0.0600 
    162 H162        2.0410  -16.4706  -48.5987 H         1 UNK         0.0600 
    163 H163        3.6442  -16.3628  -47.8888 H         1 UNK         0.0600 
    164 H164        3.3059  -16.5753  -45.2453 H         1 UNK         0.3000 
    165 H165        3.4804  -18.9002  -42.5550 H         1 UNK         0.0600 
    166 H166        5.8552  -18.1878  -42.4444 H         1 UNK         0.0600 
    167 H167        5.6351  -19.3510  -43.7423 H         1 UNK         0.0600 
    168 H168        5.7978  -17.6399  -44.1206 H         1 UNK         0.0600 
    169 H169        4.2833  -16.1612  -42.8489 H         1 UNK         0.3000 
    170 H170        1.1953  -14.6147  -42.8417 H         1 UNK         0.0600 
    171 H171        1.0638  -15.2296  -40.4144 H         1 UNK         0.0600 
    172 H172        2.7634  -14.8138  -40.2205 H         1 UNK         0.0600 
    173 H173        1.5864  -13.5700  -40.6475 H         1 UNK         0.0600 
    174 H174        3.3853  -13.2243  -42.1729 H         1 UNK         0.3000 
    175 H175        5.2708  -12.5710  -43.5939 H         1 UNK         0.0600 
    176 H176        4.4099  -12.7916  -46.5310 H         1 UNK         0.0600 
    177 H177        5.7469  -11.8221  -45.9179 H         1 UNK         0.0600 
    178 H178        5.8127  -13.5753  -45.8123 H         1 UNK         0.0600 
    179 H179        3.2109  -11.1854  -45.1733 H         1 UNK         0.3000 
    180 H180        1.7349   -9.5579  -42.3442 H         1 UNK         0.0600 
    181 H181        3.1245   -8.6419  -44.9203 H         1 UNK         0.0600 
    182 H182        3.4980   -8.0902  -43.2932 H         1 UNK         0.0600 
    183 H183        1.9340   -7.7215  -44.0033 H         1 UNK         0.0600 
    184 H184        1.1359  -10.0980  -45.1736 H         1 UNK         0.3000 
    185 H185       -1.3659  -12.5132  -44.4754 H         1 UNK         0.0600 
    186 H186       -2.6054  -10.4137  -43.9647 H         1 UNK         0.0600 
    187 H187       -1.7799   -9.5844  -45.2787 H         1 UNK         0.0600 
    188 H188       -2.8801  -10.9195  -45.6240 H         1 UNK         0.0600 
    189 H189       -0.4917  -11.0112  -46.8110 H         1 UNK         0.3000 
    190 H190       -3.3359  -22.0006  -45.4045 H         1 UNK         0.3000 
    191 H191       -5.6622  -23.8050  -45.7134 H         1 UNK         0.0600 
    192 H192       -4.0801  -22.9205  -43.2454 H         1 UNK         0.0600 
    193 H193       -5.5169  -23.9369  -43.2366 H         1 UNK         0.0600 
    194 H194       -5.6284  -22.2693  -43.7783 H         1 UNK         0.0600 
    195 H195       -2.2052  -23.8970  -44.6907 H         1 UNK         0.3000 
    196 H196       -2.2736  -26.6620  -44.0405 H         1 UNK         0.0600 
    197 H197        0.1516  -26.3514  -43.6262 H         1 UNK         0.0600 
    198 H198       -0.7763  -25.0258  -42.9418 H         1 UNK         0.0600 
    199 H199        0.1165  -24.7949  -44.4423 H         1 UNK         0.0600 
    200 H200       -1.1737  -25.0069  -47.0285 H         1 UNK         0.3000 
    201 H201       -0.2241  -27.6237  -48.1342 H         1 UNK         0.0600 
    202 H202        1.5079  -25.8397  -47.9502 H         1 UNK         0.0600 
    203 H203        0.5324  -24.7748  -48.9586 H         1 UNK         0.0600 
    204 H204        1.1733  -26.2694  -49.6202 H         1 UNK         0.0600 
    205 H205       -2.0409  -24.6180  -48.9694 H         1 UNK         0.3000 
    206 H206       -3.0580  -25.8375  -51.4369 H         1 UNK         0.0600 
    207 H207       -2.3263  -23.4296  -51.3049 H         1 UNK         0.0600 
    208 H208       -3.9581  -23.6540  -51.9101 H         1 UNK         0.0600 
    209 H209       -3.7113  -23.1047  -50.2652 H         1 UNK         0.0600 
    210 H210       -3.9787  -26.3209  -48.3415 H         1 UNK         0.3000 
    211 H211       -5.7116  -27.2720  -47.3318 H         1 UNK         0.0600 
    212 H212       -6.6153  -28.0547  -50.1460 H         1 UNK         0.0600 
    213 H213       -7.0248  -28.8750  -48.6453 H         1 UNK         0.0600 
    214 H214       -5.3657  -28.8814  -49.2161 H         1 UNK         0.0600 
    215 H215       -6.0896  -24.4302  -48.0388 H         1 UNK         0.3000 
    216 H216       -7.5164  -22.7859  -47.8428 H         1 UNK         0.0600 
    217 H217       -9.6536  -23.0084  -46.6857 H         1 UNK         0.0600 
    218 H218       -8.4694  -24.0210  -45.8774 H         1 UNK         0.0600 
    219 H219       -9.6812  -24.7463  -46.9343 H         1 UNK         0.0600 
    220 H220       -7.2711  -24.4487  -50.3427 H         1 UNK         0.3000 
    221 H221       -9.5666  -23.2980  -51.8680 H         1 UNK         0.0600 
    222 H222       -8.1112  -25.9562  -52.3400 H         1 UNK         0.0600 
    223 H223       -9.7333  -25.7969  -51.6698 H         1 UNK         0.0600 
    224 H224       -9.4155  -25.2960  -53.3230 H         1 UNK         0.0600 
    225 H225       -7.1598  -21.9622  -51.1722 H         1 UNK         0.3000 
    226 H226       -5.1301  -22.0135  -53.1114 H         1 UNK         0.0600 
    227 H227       -4.5582  -19.7743  -52.1522 H         1 UNK         0.0600 
    228 H228       -6.0916  -19.7505  -51.2950 H         1 UNK         0.0600 
    229 H229       -4.8759  -20.9652  -50.9015 H         1 UNK         0.0600 
    230 H230       -6.3650  -19.9106  -55.8435 H         1 UNK         0.3000 
    231 H231       -4.4839  -20.6272  -56.6154 H         1 UNK         0.0600 
    232 H232       -5.5923  -22.8320  -56.4491 H         1 UNK         0.0600 
    233 H233       -4.8362  -23.1372  -54.8939 H         1 UNK         0.0600 
    234 H234       -3.8476  -22.9573  -56.3250 H         1 UNK         0.0600 
    235 H235       -3.9189  -18.6704  -55.1606 H         1 UNK         0.3000 
    236 H236       -1.9941  -19.0103  -53.0581 H         1 UNK         0.0600 
    237 H237       -1.5764  -16.5493  -53.5616 H         1 UNK         0.0600 
    238 H238       -2.6530  -16.6733  -54.9408 H         1 UNK         0.0600 
    239 H239       -3.2755  -16.9172  -53.3072 H         1 UNK         0.0600 
    240 H240        0.2796  -18.5515  -53.1440 H         1 UNK         0.3000 
    241 H241        1.6687  -19.8991  -55.2056 H         1 UNK         0.0600 
    242 H242        3.0684  -17.4992  -57.4315 H         1 UNK         0.3800 
    243 H243        3.0639  -19.1625  -56.9206 H         1 UNK         0.3800 
    244 H244        3.7180  -19.2911  -54.0069 H         1 UNK         0.0800 
    245 H245        2.8997  -18.0578  -53.0984 H         1 UNK         0.0800 
    246 H246        2.2019  -19.9320  -49.9247 H         1 UNK         0.0800 
    247 H247        3.1593  -18.6804  -50.6672 H         1 UNK         0.0800 
@<TRIPOS>BOND
     1    1    2 1    
     2    1  127 1    
     3    1  128 1    
     4    1  129 1    
     5    2    3 2    
     6    2    4 am   BACKBONE|DICT|INTERRES
     7    4    5 1    
     8    4  130 1    
     9    5    6 1    
    10    5   65 1    
    11    5  131 1    
    12    6    7 1    
    13    6  132 1    
    14    6  133 1    
    15    7    8 1    
    16    8    9 1    
    17    8  134 1    
    18    8  135 1    
    19    9   10 ar   
    20    9   14 ar   
    21   10   11 ar   
    22   10  136 1    
    23   11   12 ar   
    24   11  126 1    
    25   12   13 ar   
    26   12  137 1    
    27   13   14 ar   
    28   13   15 1    
    29   14  138 1    
    30   15   16 1    
    31   15  139 1    
    32   15  140 1    
    33   16   17 1    
    34   17   18 1    
    35   17  141 1    
    36   17  142 1    
    37   18   19 1    
    38   18   67 1    
    39   18  143 1    
    40   19   20 am   BACKBONE|DICT|INTERRES
    41   19  144 1    
    42   20   21 2    
    43   20   22 1    
    44   22   23 1    
    45   22   24 1    
    46   22  145 1    
    47   23  146 1    
    48   23  147 1    
    49   23  148 1    
    50   24   25 am   BACKBONE|DICT|INTERRES
    51   24  149 1    
    52   25   26 2    
    53   25   27 1    
    54   27   28 1    
    55   27   29 1    
    56   27  150 1    
    57   28  151 1    
    58   28  152 1    
    59   28  153 1    
    60   29   30 am   BACKBONE|DICT|INTERRES
    61   29  154 1    
    62   30   31 2    
    63   30   32 1    
    64   32   33 1    
    65   32   34 1    
    66   32  155 1    
    67   33  156 1    
    68   33  157 1    
    69   33  158 1    
    70   34   35 am   BACKBONE|DICT|INTERRES
    71   34  159 1    
    72   35   36 2    
    73   35   37 1    
    74   37   38 1    
    75   37   39 1    
    76   37  160 1    
    77   38  161 1    
    78   38  162 1    
    79   38  163 1    
    80   39   40 am   BACKBONE|DICT|INTERRES
    81   39  164 1    
    82   40   41 2    
    83   40   42 1    
    84   42   43 1    
    85   42   44 1    
    86   42  165 1    
    87   43  166 1    
    88   43  167 1    
    89   43  168 1    
    90   44   45 am   BACKBONE|DICT|INTERRES
    91   44  169 1    
    92   45   46 2    
    93   45   47 1    
    94   47   48 1    
    95   47   49 1    
    96   47  170 1    
    97   48  171 1    
    98   48  172 1    
    99   48  173 1    
   100   49   50 am   BACKBONE|DICT|INTERRES
   101   49  174 1    
   102   50   51 2    
   103   50   52 1    
   104   52   53 1    
   105   52   54 1    
   106   52  175 1    
   107   53  176 1    
   108   53  177 1    
   109   53  178 1    
   110   54   55 am   BACKBONE|DICT|INTERRES
   111   54  179 1    
   112   55   56 2    
   113   55   57 1    
   114   57   58 1    
   115   57   59 1    
   116   57  180 1    
   117   58  181 1    
   118   58  182 1    
   119   58  183 1    
   120   59   60 am   BACKBONE|DICT|INTERRES
   121   59  184 1    
   122   60   61 2    
   123   60   62 1    
   124   62   63 1    
   125   62   64 1    
   126   62  185 1    
   127   63  186 1    
   128   63  187 1    
   129   63  188 1    
   130   64   65 am   BACKBONE|DICT|INTERRES
   131   64  189 1    
   132   65   66 2    
   133   67   68 2    
   134   67   69 am   BACKBONE|DICT|INTERRES
   135   69   70 1    
   136   69  190 1    
   137   70   71 1    
   138   70   72 1    
   139   70  191 1    
   140   71  192 1    
   141   71  193 1    
   142   71  194 1    
   143   72   73 2    
   144   72   74 am   BACKBONE|DICT|INTERRES
   145   74   75 1    
   146   74  195 1    
   147   75   76 1    
   148   75   77 1    
   149   75  196 1    
   150   76  197 1    
   151   76  198 1    
   152   76  199 1    
   153   77   78 2    
   154   77   79 am   BACKBONE|DICT|INTERRES
   155   79   80 1    
   156   79  200 1    
   157   80   81 1    
   158   80   82 1    
   159   80  201 1    
   160   81  202 1    
   161   81  203 1    
   162   81  204 1    
   163   82   83 2    
   164   82   84 am   BACKBONE|DICT|INTERRES
   165   84   85 1    
   166   84  205 1    
   167   85   86 1    
   168   85   87 1    
   169   85  206 1    
   170   86  207 1    
   171   86  208 1    
   172   86  209 1    
   173   87   88 2    
   174   87   89 am   BACKBONE|DICT|INTERRES
   175   89   90 1    
   176   89  210 1    
   177   90   91 1    
   178   90   92 1    
   179   90  211 1    
   180   91  212 1    
   181   91  213 1    
   182   91  214 1    
   183   92   93 2    
   184   92   94 am   BACKBONE|DICT|INTERRES
   185   94   95 1    
   186   94  215 1    
   187   95   96 1    
   188   95   97 1    
   189   95  216 1    
   190   96  217 1    
   191   96  218 1    
   192   96  219 1    
   193   97   98 2    
   194   97   99 am   BACKBONE|DICT|INTERRES
   195   99  100 1    
   196   99  220 1    
   197  100  101 1    
   198  100  102 1    
   199  100  221 1    
   200  101  222 1    
   201  101  223 1    
   202  101  224 1    
   203  102  103 2    
   204  102  104 am   BACKBONE|DICT|INTERRES
   205  104  105 1    
   206  104  225 1    
   207  105  106 1    
   208  105  107 1    
   209  105  226 1    
   210  106  227 1    
   211  106  228 1    
   212  106  229 1    
   213  107  108 2    
   214  107  109 am   BACKBONE|DICT|INTERRES
   215  109  110 1    
   216  109  230 1    
   217  110  111 1    
   218  110  112 1    
   219  110  231 1    
   220  111  232 1    
   221  111  233 1    
   222  111  234 1    
   223  112  113 2    
   224  112  114 am   BACKBONE|DICT|INTERRES
   225  114  115 1    
   226  114  235 1    
   227  115  116 1    
   228  115  117 1    
   229  115  236 1    
   230  116  237 1    
   231  116  238 1    
   232  116  239 1    
   233  117  118 2    
   234  117  119 am   BACKBONE|DICT|INTERRES
   235  119  120 1    
   236  119  240 1    
   237  120  121 1    
   238  120  124 1    
   239  120  241 1    
   240  121  122 am   BACKBONE|DICT|INTERRES
   241  121  123 2    
   242  122  242 1    
   243  122  243 1    
   244  124  125 1    
   245  124  244 1    
   246  124  245 1    
   247  125  126 1    
   248  126  246 1    
   249  126  247 1    
@<TRIPOS>SUBSTRUCTURE
     1 UNK         1 GROUP             0       ****    0 ROOT    
