@<TRIPOS>MOLECULE
3R540
247   249    1
SMALL
USER_CHARGES


@<TRIPOS>ATOM
      1 CA          6.8520  -14.5866  -48.8179 C.3       0 UNK        -0.1800 
      2 C           5.3333  -14.5464  -48.7294 C.2       0 UNK         0.5000 
      3 O           4.7085  -13.6837  -49.3469 O.2       0 UNK        -0.5000 
      4 N           4.7434  -15.4644  -47.9506 N.am      1 UNK        -0.5000 
      5 CA          3.3048  -15.6708  -47.7080 C.3       1 UNK         0.1400 
      6 C6          2.4596  -15.9240  -48.9865 C.3       23 UNK        -0.0398 
      7 S7          3.0951  -17.2988  -50.0064 S.3       23 UNK        -0.2404 
      8 C8          1.8850  -18.6264  -49.6788 C.3       23 UNK        -0.0205 
      9 C9          0.4641  -18.3416  -50.1648 C.ar      23 UNK        -0.0193 
     10 C10         0.2197  -17.6361  -51.3501 C.ar      23 UNK        -0.1150 
     11 C11        -1.0879  -17.4091  -51.7874 C.ar      23 UNK        -0.0193 
     12 C12        -2.1589  -17.9075  -51.0418 C.ar      23 UNK        -0.1150 
     13 C13        -1.9333  -18.6292  -49.8684 C.ar      23 UNK        -0.0193 
     14 C14        -0.6210  -18.8337  -49.4310 C.ar      23 UNK        -0.1150 
     15 C15        -3.1044  -19.1793  -49.0699 C.3       23 UNK        -0.0205 
     16 S16        -3.2681  -20.9769  -49.2870 S.3       23 UNK        -0.2404 
     17 C17        -3.6740  -21.5468  -47.6005 C.3       23 UNK        -0.0398 
     18 CA         -2.7157  -22.6737  -47.1543 C.3       11 UNK         0.1400 
     19 N          -1.3120  -22.2444  -47.1426 N.am      11 UNK        -0.5000 
     20 C          -0.2674  -23.0797  -47.1020 C.2       10 UNK         0.5000 
     21 O          -0.3827  -24.3045  -47.0575 O.2       10 UNK        -0.5000 
     22 CA          1.1384  -22.4523  -47.0629 C.3       10 UNK         0.1400 
     23 CB          1.6696  -22.2754  -48.4927 C.3       10 UNK        -0.1800 
     24 N           1.2326  -21.1697  -46.3542 N.am      10 UNK        -0.5000 
     25 C           0.8114  -20.9160  -45.1061 C.2       9 UNK         0.5000 
     26 O           0.1966  -21.7403  -44.4261 O.2       9 UNK        -0.5000 
     27 CA          1.1164  -19.5211  -44.5195 C.3       9 UNK         0.1400 
     28 CB          1.6268  -18.5043  -45.5634 C.3       9 UNK        -0.1800 
     29 N          -0.0824  -18.9962  -43.8676 N.am      9 UNK        -0.5000 
     30 C          -0.4157  -19.2109  -42.5852 C.2       8 UNK         0.5000 
     31 O           0.3279  -19.7696  -41.7772 O.2       8 UNK        -0.5000 
     32 CA         -1.8091  -18.7442  -42.1153 C.3       8 UNK         0.1400 
     33 CB         -1.7434  -17.9559  -40.7955 C.3       8 UNK        -0.1800 
     34 N          -2.4998  -17.9408  -43.1261 N.am      8 UNK        -0.5000 
     35 C          -3.4773  -18.4022  -43.9191 C.2       7 UNK         0.5000 
     36 O          -3.9254  -19.5471  -43.8616 O.2       7 UNK        -0.5000 
     37 CA         -4.0430  -17.4372  -44.9782 C.3       7 UNK         0.1400 
     38 CB         -5.2057  -16.6214  -44.3939 C.3       7 UNK        -0.1800 
     39 N          -3.0628  -16.5174  -45.5560 N.am      7 UNK        -0.5000 
     40 C          -1.9254  -16.8551  -46.1728 C.2       6 UNK         0.5000 
     41 O          -1.5177  -18.0130  -46.2497 O.2       6 UNK        -0.5000 
     42 CA         -1.0798  -15.7161  -46.7724 C.3       6 UNK         0.1400 
     43 CB         -1.6618  -15.1990  -48.1003 C.3       6 UNK        -0.1800 
     44 N          -0.8122  -14.6227  -45.8338 N.am      6 UNK        -0.5000 
     45 C          -1.6696  -13.7649  -45.2615 C.2       5 UNK         0.5000 
     46 O          -2.8656  -13.7016  -45.5524 O.2       5 UNK        -0.5000 
     47 CA         -1.1032  -12.8530  -44.1506 C.3       5 UNK         0.1400 
     48 CB         -2.1729  -12.4786  -43.1041 C.3       5 UNK        -0.1800 
     49 N           0.0894  -13.3852  -43.4771 N.am      5 UNK        -0.5000 
     50 C           0.2176  -14.5591  -42.8346 C.2       4 UNK         0.5000 
     51 O          -0.6751  -15.4068  -42.7815 O.2       4 UNK        -0.5000 
     52 CA          1.5808  -14.8261  -42.1642 C.3       4 UNK         0.1400 
     53 CB          1.9083  -16.3228  -42.0340 C.3       4 UNK        -0.1800 
     54 N           2.6506  -14.1636  -42.9101 N.am      4 UNK        -0.5000 
     55 C           3.5227  -13.2826  -42.4012 C.2       3 UNK         0.5000 
     56 O           3.5921  -13.0004  -41.2046 O.2       3 UNK        -0.5000 
     57 CA          4.4612  -12.5676  -43.3978 C.3       3 UNK         0.1400 
     58 CB          5.8337  -13.2571  -43.4300 C.3       3 UNK        -0.1800 
     59 N           3.9371  -12.4982  -44.7648 N.am      3 UNK        -0.5000 
     60 C           2.8010  -11.8920  -45.1384 C.2       2 UNK         0.5000 
     61 O           2.0790  -11.2595  -44.3675 O.2       2 UNK        -0.5000 
     62 CA          2.3560  -12.0817  -46.6013 C.3       2 UNK         0.1400 
     63 CB          2.7534  -10.8629  -47.4461 C.3       2 UNK        -0.1800 
     64 N           2.8793  -13.2934  -47.2393 N.am      2 UNK        -0.5000 
     65 C           2.6787  -14.5566  -46.8425 C.2       1 UNK         0.5000 
     66 O           2.0556  -14.8534  -45.8211 O.2       1 UNK        -0.5000 
     67 C          -3.1679  -23.3046  -45.8183 C.2       11 UNK         0.5000 
     68 O          -4.1580  -24.0361  -45.8136 O.2       11 UNK        -0.5000 
     69 N          -2.4314  -23.0497  -44.7282 N.am      12 UNK        -0.5000 
     70 CA         -2.6224  -23.6871  -43.4275 C.3       12 UNK         0.1400 
     71 CB         -2.6463  -22.6102  -42.3321 C.3       12 UNK        -0.1800 
     72 C          -1.5049  -24.7061  -43.1524 C.2       12 UNK         0.5000 
     73 O          -1.7950  -25.8189  -42.7138 O.2       12 UNK        -0.5000 
     74 N          -0.2500  -24.3089  -43.4060 N.am      13 UNK        -0.5000 
     75 CA          0.9526  -25.0679  -43.0613 C.3       13 UNK         0.1400 
     76 CB          2.1756  -24.1428  -43.1609 C.3       13 UNK        -0.1800 
     77 C           1.1618  -26.3293  -43.9163 C.2       13 UNK         0.5000 
     78 O           1.5830  -27.3554  -43.3806 O.2       13 UNK        -0.5000 
     79 N           0.8731  -26.2305  -45.2196 N.am      14 UNK        -0.5000 
     80 CA          1.0290  -27.3136  -46.1945 C.3       14 UNK         0.1400 
     81 CB          1.9514  -26.8233  -47.3247 C.3       14 UNK        -0.1800 
     82 C          -0.3238  -27.7805  -46.7630 C.2       14 UNK         0.5000 
     83 O          -0.3464  -28.7338  -47.5425 O.2       14 UNK        -0.5000 
     84 N          -1.4152  -27.0956  -46.3849 N.am      15 UNK        -0.5000 
     85 CA         -2.7818  -27.2446  -46.8971 C.3       15 UNK         0.1400 
     86 CB         -3.3788  -28.6073  -46.4875 C.3       15 UNK        -0.1800 
     87 C          -2.8756  -26.9660  -48.4142 C.2       15 UNK         0.5000 
     88 O          -3.6062  -27.6572  -49.1273 O.2       15 UNK        -0.5000 
     89 N          -2.1026  -25.9746  -48.8823 N.am      16 UNK        -0.5000 
     90 CA         -1.9996  -25.5762  -50.2858 C.3       16 UNK         0.1400 
     91 CB         -0.8857  -24.5260  -50.4252 C.3       16 UNK        -0.1800 
     92 C          -3.3176  -25.0263  -50.8644 C.2       16 UNK         0.5000 
     93 O          -4.1130  -24.4213  -50.1432 O.2       16 UNK        -0.5000 
     94 N          -3.4867  -25.1996  -52.1807 N.am      17 UNK        -0.5000 
     95 CA         -4.6208  -24.6958  -52.9624 C.3       17 UNK         0.1400 
     96 CB         -4.8514  -25.6414  -54.1531 C.3       17 UNK        -0.1800 
     97 C          -4.4249  -23.2424  -53.4457 C.2       17 UNK         0.5000 
     98 O          -5.2683  -22.7298  -54.1834 O.2       17 UNK        -0.5000 
     99 N          -3.3230  -22.5979  -53.0319 N.am      18 UNK        -0.5000 
    100 CA        -2.9007  -21.2511  -53.4289 C.3       18 UNK         0.1400 
    101 CB        -1.5232  -20.9580  -52.8167 C.3       18 UNK        -0.1800 
    102 C         -3.9086  -20.1296  -53.1043 C.2       18 UNK         0.5000 
    103 O         -3.8491  -19.0729  -53.7299 O.2       18 UNK        -0.5000 
    104 N         -4.8632  -20.3894  -52.2009 N.am      19 UNK        -0.5000 
    105 CA        -6.0072  -19.5265  -51.8934 C.3       19 UNK         0.1400 
    106 CB        -6.8140  -20.1640  -50.7517 C.3       19 UNK        -0.1800 
    107 C         -6.9218  -19.2390  -53.1061 C.2       19 UNK         0.5000 
    108 O         -7.6488  -18.2456  -53.0950 O.2       19 UNK        -0.5000 
    109 N         -6.8676  -20.0971  -54.1355 N.am      20 UNK        -0.5000 
    110 CA        -7.5208  -19.8787  -55.4253 C.3       20 UNK         0.1400 
    111 CB        -7.7181  -21.2379  -56.1141 C.3       20 UNK        -0.1800 
    112 C         -6.7313  -18.9227  -56.3452 C.2       20 UNK         0.5000 
    113 O         -7.3216  -18.3677  -57.2731 O.2       20 UNK        -0.5000 
    114 N         -5.4228  -18.7604  -56.1007 N.am      21 UNK        -0.5000 
    115 CA        -4.5142  -17.9519  -56.9141 C.3       21 UNK         0.1400 
    116 CB        -3.1507  -18.6564  -57.0074 C.3       21 UNK        -0.1800 
    117 C         -4.3455  -16.5255  -56.3642 C.2       21 UNK         0.5000 
    118 O         -4.1701  -15.5997  -57.1578 O.2       21 UNK        -0.5000 
    119 N         -4.4059  -16.3561  -55.0374 N.am      22 UNK        -0.5000 
    120 CA        -4.3182  -15.0548  -54.3606 C.3       22 UNK         0.1400 
    121 C         -5.1289  -15.0441  -53.0361 C.2       22 UNK         0.5000 
    122 N         -5.5633  -13.8770  -52.5794 N.am      22 UNK        -0.7600 
    123 O         -5.3505  -16.0747  -52.4066 O.2       22 UNK        -0.5000 
    124 C124       -2.8462  -14.5440  -54.2358 C.3       23 UNK        -0.0398 
    125 S125       -1.9419  -14.9602  -52.6998 S.3       23 UNK        -0.2404 
    126 C126       -1.3558  -16.6387  -53.0700 C.3       23 UNK        -0.0205 
    127 H127        7.2730  -15.3919  -48.2156 H         1 UNK         0.0600 
    128 H128        7.2731  -13.6440  -48.4682 H         1 UNK         0.0600 
    129 H129        7.1625  -14.7374  -49.8518 H         1 UNK         0.0600 
    130 H130        5.3397  -16.1220  -47.4678 H         1 UNK         0.3000 
    131 H131        3.2498  -16.5797  -47.1080 H         1 UNK         0.0600 
    132 H132        1.4220  -16.1306  -48.7251 H         1 UNK         0.0800 
    133 H133        2.4303  -15.0327  -49.6149 H         1 UNK         0.0800 
    134 H134        1.8877  -18.8343  -48.6094 H         1 UNK         0.0800 
    135 H135        2.2342  -19.5355  -50.1695 H         1 UNK         0.0800 
    136 H136        1.0463  -17.2626  -51.9370 H         1 UNK         0.1150 
    137 H137       -3.1699  -17.7324  -51.3834 H         1 UNK         0.1150 
    138 H138       -0.4497  -19.3882  -48.5197 H         1 UNK         0.1150 
    139 H139       -2.9705  -18.9326  -48.0213 H         1 UNK         0.0800 
    140 H140       -4.0370  -18.7019  -49.3737 H         1 UNK         0.0800 
    141 H141       -4.7047  -21.9056  -47.6185 H         1 UNK         0.0800 
    142 H142       -3.6496  -20.7208  -46.8883 H         1 UNK         0.0800 
    143 H143       -2.7990  -23.4690  -47.8965 H         1 UNK         0.0600 
    144 H144       -1.1436  -21.2500  -47.1665 H         1 UNK         0.3000 
    145 H145        1.7903  -23.1562  -46.5426 H         1 UNK         0.0600 
    146 H146        2.6892  -21.8897  -48.4938 H         1 UNK         0.0600 
    147 H147        1.6862  -23.2283  -49.0232 H         1 UNK         0.0600 
    148 H148        1.0484  -21.5903  -49.0712 H         1 UNK         0.0600 
    149 H149        1.7319  -20.4379  -46.8356 H         1 UNK         0.3000 
    150 H150        1.9056  -19.6518  -43.7767 H         1 UNK         0.0600 
    151 H151        2.6216  -18.7746  -45.9189 H         1 UNK         0.0600 
    152 H152        1.7026  -17.5042  -45.1403 H         1 UNK         0.0600 
    153 H153        0.9719  -18.4355  -46.4303 H         1 UNK         0.0600 
    154 H154       -0.7702  -18.5807  -44.4865 H         1 UNK         0.3000 
    155 H155       -2.3784  -19.6518  -41.9096 H         1 UNK         0.0600 
    156 H156       -1.1453  -17.0513  -40.8860 H         1 UNK         0.0600 
    157 H157       -1.3033  -18.5585  -40.0001 H         1 UNK         0.0600 
    158 H158       -2.7398  -17.6641  -40.4636 H         1 UNK         0.0600 
    159 H159       -2.1579  -16.9936  -43.2479 H         1 UNK         0.3000 
    160 H160       -4.4313  -18.0470  -45.7964 H         1 UNK         0.0600 
    161 H161       -4.8671  -15.9536  -43.6005 H         1 UNK         0.0600 
    162 H162       -5.9702  -17.2748  -43.9713 H         1 UNK         0.0600 
    163 H163       -5.6860  -16.0137  -45.1610 H         1 UNK         0.0600 
    164 H164       -3.2818  -15.5254  -45.5132 H         1 UNK         0.3000 
    165 H165       -0.1062  -16.1521  -46.9930 H         1 UNK         0.0600 
    166 H166       -2.6578  -14.7739  -47.9764 H         1 UNK         0.0600 
    167 H167       -1.0216  -14.4335  -48.5386 H         1 UNK         0.0600 
    168 H168       -1.7430  -16.0048  -48.8286 H         1 UNK         0.0600 
    169 H169        0.1494  -14.5963  -45.5083 H         1 UNK         0.3000 
    170 H170       -0.7883  -11.9343  -44.6471 H         1 UNK         0.0600 
    171 H171       -3.0082  -11.9500  -43.5649 H         1 UNK         0.0600 
    172 H172       -2.5773  -13.3617  -42.6081 H         1 UNK         0.0600 
    173 H173       -1.7613  -11.8223  -42.3373 H         1 UNK         0.0600 
    174 H174        0.8895  -12.7627  -43.4827 H         1 UNK         0.3000 
    175 H175        1.5047  -14.4109  -41.1576 H         1 UNK         0.0600 
    176 H176        1.9265  -16.8149  -43.0043 H         1 UNK         0.0600 
    177 H177        2.8808  -16.4730  -41.5654 H         1 UNK         0.0600 
    178 H178        1.1723  -16.8358  -41.4157 H         1 UNK         0.0600 
    179 H179        2.6524  -14.3335  -43.9107 H         1 UNK         0.3000 
    180 H180        4.5970  -11.5443  -43.0420 H         1 UNK         0.0600 
    181 H181        5.7612  -14.2791  -43.8044 H         1 UNK         0.0600 
    182 H182        6.2717  -13.3033  -42.4320 H         1 UNK         0.0600 
    183 H183        6.5339  -12.7145  -44.0654 H         1 UNK         0.0600 
    184 H184        4.4565  -12.9983  -45.4708 H         1 UNK         0.3000 
    185 H185        1.2669  -12.1581  -46.6003 H         1 UNK         0.0600 
    186 H186        3.8371  -10.7581  -47.5139 H         1 UNK         0.0600 
    187 H187        2.3603  -10.9411  -48.4599 H         1 UNK         0.0600 
    188 H188        2.3591   -9.9413  -47.0158 H         1 UNK         0.0600 
    189 H189        3.4458  -13.1612  -48.0744 H         1 UNK         0.3000 
    190 H190       -1.6164  -22.4520  -44.8165 H         1 UNK         0.3000 
    191 H191       -3.5750  -24.2197  -43.3929 H         1 UNK         0.0600 
    192 H192       -2.7832  -23.0571  -41.3467 H         1 UNK         0.0600 
    193 H193       -3.4679  -21.9115  -42.4890 H         1 UNK         0.0600 
    194 H194       -1.7184  -22.0379  -42.3077 H         1 UNK         0.0600 
    195 H195       -0.0958  -23.3642  -43.7535 H         1 UNK         0.3000 
    196 H196        0.8581  -25.3876  -42.0213 H         1 UNK         0.0600 
    197 H197        2.3206  -23.7737  -44.1765 H         1 UNK         0.0600 
    198 H198        2.0705  -23.2788  -42.5041 H         1 UNK         0.0600 
    199 H199        3.0869  -24.6657  -42.8677 H         1 UNK         0.0600 
    200 H200        0.5186  -25.3555  -45.5892 H         1 UNK         0.3000 
    201 H201        1.4952  -28.1864  -45.7334 H         1 UNK         0.0600 
    202 H202        1.5163  -25.9854  -47.8698 H         1 UNK         0.0600 
    203 H203        2.1426  -27.6180  -48.0468 H         1 UNK         0.0600 
    204 H204        2.9170  -26.5030  -46.9334 H         1 UNK         0.0600 
    205 H205       -1.2714  -26.3275  -45.7465 H         1 UNK         0.3000 
    206 H206       -3.3768  -26.4729  -46.4101 H         1 UNK         0.0600 
    207 H207       -3.2992  -28.7642  -45.4118 H         1 UNK         0.0600 
    208 H208       -4.4371  -28.6621  -46.7450 H         1 UNK         0.0600 
    209 H209       -2.8786  -29.4378  -46.9862 H         1 UNK         0.0600 
    210 H210       -1.5221  -25.4641  -48.2253 H         1 UNK         0.3000 
    211 H211       -1.7133  -26.4634  -50.8543 H         1 UNK         0.0600 
    212 H212       -0.6979  -24.2878  -51.4728 H         1 UNK         0.0600 
    213 H213        0.0526  -24.8871  -50.0037 H         1 UNK         0.0600 
    214 H214       -1.1456  -23.5941  -49.9218 H         1 UNK         0.0600 
    215 H215       -2.7778  -25.6950  -52.7032 H         1 UNK         0.3000 
    216 H216       -5.5192  -24.7092  -52.3418 H         1 UNK         0.0600 
    217 H217       -3.9965  -25.6519  -54.8304 H         1 UNK         0.0600 
    218 H218       -5.7252  -25.3398  -54.7324 H         1 UNK         0.0600 
    219 H219       -5.0266  -26.6634  -53.8166 H         1 UNK         0.0600 
    220 H220       -2.7037  -23.0909  -52.4077 H         1 UNK         0.3000 
    221 H221       -2.7879  -21.2598  -54.5148 H         1 UNK         0.0600 
    222 H222       -0.7845  -21.6949  -53.1318 H         1 UNK         0.0600 
    223 H223       -1.5547  -20.9607  -51.7274 H         1 UNK         0.0600 
    224 H224       -1.1566  -19.9808  -53.1320 H         1 UNK         0.0600 
    225 H225       -4.8239  -21.2747  -51.7175 H         1 UNK         0.3000 
    226 H226       -5.6142  -18.5709  -51.5438 H         1 UNK         0.0600 
    227 H227       -7.1973  -21.1461  -51.0314 H         1 UNK         0.0600 
    228 H228       -6.2062  -20.2832  -49.8550 H         1 UNK         0.0600 
    229 H229       -7.6680  -19.5417  -50.4816 H         1 UNK         0.0600 
    230 H230       -6.2724  -20.9161  -54.0630 H         1 UNK         0.3000 
    231 H231       -8.5060  -19.4392  -55.2562 H         1 UNK         0.0600 
    232 H232       -6.7645  -21.7221  -56.3282 H         1 UNK         0.0600 
    233 H233       -8.2482  -21.1238  -57.0605 H         1 UNK         0.0600 
    234 H234       -8.3048  -21.9144  -55.4923 H         1 UNK         0.0600 
    235 H235       -5.0182  -19.1763  -55.2691 H         1 UNK         0.3000 
    236 H236       -4.9097  -17.8697  -57.9288 H         1 UNK         0.0600 
    237 H237       -3.2545  -19.6663  -57.4044 H         1 UNK         0.0600 
    238 H238       -2.4790  -18.1131  -57.6731 H         1 UNK         0.0600 
    239 H239       -2.6585  -18.7260  -56.0373 H         1 UNK         0.0600 
    240 H240       -4.5378  -17.1564  -54.4278 H         1 UNK         0.3000 
    241 H241       -4.8430  -14.3483  -55.0075 H         1 UNK         0.0600 
    242 H242       -6.0817  -13.8570  -51.7153 H         1 UNK         0.3800 
    243 H243       -5.3842  -13.0137  -53.0684 H         1 UNK         0.3800 
    244 H244       -2.2507  -14.8561  -55.0947 H         1 UNK         0.0800 
    245 H245       -2.8590  -13.4547  -54.2877 H         1 UNK         0.0800 
    246 H246       -0.4591  -16.5819  -53.6885 H         1 UNK         0.0800 
    247 H247       -2.1021  -17.1716  -53.6576 H         1 UNK         0.0800 
@<TRIPOS>BOND
     1    1    2 1    
     2    1  127 1    
     3    1  128 1    
     4    1  129 1    
     5    2    3 2    
     6    2    4 am   BACKBONE|DICT|INTERRES
     7    4    5 1    
     8    4  130 1    
     9    5    6 1    
    10    5   65 1    
    11    5  131 1    
    12    6    7 1    
    13    6  132 1    
    14    6  133 1    
    15    7    8 1    
    16    8    9 1    
    17    8  134 1    
    18    8  135 1    
    19    9   10 ar   
    20    9   14 ar   
    21   10   11 ar   
    22   10  136 1    
    23   11   12 ar   
    24   11  126 1    
    25   12   13 ar   
    26   12  137 1    
    27   13   14 ar   
    28   13   15 1    
    29   14  138 1    
    30   15   16 1    
    31   15  139 1    
    32   15  140 1    
    33   16   17 1    
    34   17   18 1    
    35   17  141 1    
    36   17  142 1    
    37   18   19 1    
    38   18   67 1    
    39   18  143 1    
    40   19   20 am   BACKBONE|DICT|INTERRES
    41   19  144 1    
    42   20   21 2    
    43   20   22 1    
    44   22   23 1    
    45   22   24 1    
    46   22  145 1    
    47   23  146 1    
    48   23  147 1    
    49   23  148 1    
    50   24   25 am   BACKBONE|DICT|INTERRES
    51   24  149 1    
    52   25   26 2    
    53   25   27 1    
    54   27   28 1    
    55   27   29 1    
    56   27  150 1    
    57   28  151 1    
    58   28  152 1    
    59   28  153 1    
    60   29   30 am   BACKBONE|DICT|INTERRES
    61   29  154 1    
    62   30   31 2    
    63   30   32 1    
    64   32   33 1    
    65   32   34 1    
    66   32  155 1    
    67   33  156 1    
    68   33  157 1    
    69   33  158 1    
    70   34   35 am   BACKBONE|DICT|INTERRES
    71   34  159 1    
    72   35   36 2    
    73   35   37 1    
    74   37   38 1    
    75   37   39 1    
    76   37  160 1    
    77   38  161 1    
    78   38  162 1    
    79   38  163 1    
    80   39   40 am   BACKBONE|DICT|INTERRES
    81   39  164 1    
    82   40   41 2    
    83   40   42 1    
    84   42   43 1    
    85   42   44 1    
    86   42  165 1    
    87   43  166 1    
    88   43  167 1    
    89   43  168 1    
    90   44   45 am   BACKBONE|DICT|INTERRES
    91   44  169 1    
    92   45   46 2    
    93   45   47 1    
    94   47   48 1    
    95   47   49 1    
    96   47  170 1    
    97   48  171 1    
    98   48  172 1    
    99   48  173 1    
   100   49   50 am   BACKBONE|DICT|INTERRES
   101   49  174 1    
   102   50   51 2    
   103   50   52 1    
   104   52   53 1    
   105   52   54 1    
   106   52  175 1    
   107   53  176 1    
   108   53  177 1    
   109   53  178 1    
   110   54   55 am   BACKBONE|DICT|INTERRES
   111   54  179 1    
   112   55   56 2    
   113   55   57 1    
   114   57   58 1    
   115   57   59 1    
   116   57  180 1    
   117   58  181 1    
   118   58  182 1    
   119   58  183 1    
   120   59   60 am   BACKBONE|DICT|INTERRES
   121   59  184 1    
   122   60   61 2    
   123   60   62 1    
   124   62   63 1    
   125   62   64 1    
   126   62  185 1    
   127   63  186 1    
   128   63  187 1    
   129   63  188 1    
   130   64   65 am   BACKBONE|DICT|INTERRES
   131   64  189 1    
   132   65   66 2    
   133   67   68 2    
   134   67   69 am   BACKBONE|DICT|INTERRES
   135   69   70 1    
   136   69  190 1    
   137   70   71 1    
   138   70   72 1    
   139   70  191 1    
   140   71  192 1    
   141   71  193 1    
   142   71  194 1    
   143   72   73 2    
   144   72   74 am   BACKBONE|DICT|INTERRES
   145   74   75 1    
   146   74  195 1    
   147   75   76 1    
   148   75   77 1    
   149   75  196 1    
   150   76  197 1    
   151   76  198 1    
   152   76  199 1    
   153   77   78 2    
   154   77   79 am   BACKBONE|DICT|INTERRES
   155   79   80 1    
   156   79  200 1    
   157   80   81 1    
   158   80   82 1    
   159   80  201 1    
   160   81  202 1    
   161   81  203 1    
   162   81  204 1    
   163   82   83 2    
   164   82   84 am   BACKBONE|DICT|INTERRES
   165   84   85 1    
   166   84  205 1    
   167   85   86 1    
   168   85   87 1    
   169   85  206 1    
   170   86  207 1    
   171   86  208 1    
   172   86  209 1    
   173   87   88 2    
   174   87   89 am   BACKBONE|DICT|INTERRES
   175   89   90 1    
   176   89  210 1    
   177   90   91 1    
   178   90   92 1    
   179   90  211 1    
   180   91  212 1    
   181   91  213 1    
   182   91  214 1    
   183   92   93 2    
   184   92   94 am   BACKBONE|DICT|INTERRES
   185   94   95 1    
   186   94  215 1    
   187   95   96 1    
   188   95   97 1    
   189   95  216 1    
   190   96  217 1    
   191   96  218 1    
   192   96  219 1    
   193   97   98 2    
   194   97   99 am   BACKBONE|DICT|INTERRES
   195   99  100 1    
   196   99  220 1    
   197  100  101 1    
   198  100  102 1    
   199  100  221 1    
   200  101  222 1    
   201  101  223 1    
   202  101  224 1    
   203  102  103 2    
   204  102  104 am   BACKBONE|DICT|INTERRES
   205  104  105 1    
   206  104  225 1    
   207  105  106 1    
   208  105  107 1    
   209  105  226 1    
   210  106  227 1    
   211  106  228 1    
   212  106  229 1    
   213  107  108 2    
   214  107  109 am   BACKBONE|DICT|INTERRES
   215  109  110 1    
   216  109  230 1    
   217  110  111 1    
   218  110  112 1    
   219  110  231 1    
   220  111  232 1    
   221  111  233 1    
   222  111  234 1    
   223  112  113 2    
   224  112  114 am   BACKBONE|DICT|INTERRES
   225  114  115 1    
   226  114  235 1    
   227  115  116 1    
   228  115  117 1    
   229  115  236 1    
   230  116  237 1    
   231  116  238 1    
   232  116  239 1    
   233  117  118 2    
   234  117  119 am   BACKBONE|DICT|INTERRES
   235  119  120 1    
   236  119  240 1    
   237  120  121 1    
   238  120  124 1    
   239  120  241 1    
   240  121  122 am   BACKBONE|DICT|INTERRES
   241  121  123 2    
   242  122  242 1    
   243  122  243 1    
   244  124  125 1    
   245  124  244 1    
   246  124  245 1    
   247  125  126 1    
   248  126  246 1    
   249  126  247 1    
@<TRIPOS>SUBSTRUCTURE
     1 UNK         1 GROUP             0       ****    0 ROOT    
