@<TRIPOS>MOLECULE
3R540
247   249    1
SMALL
USER_CHARGES


@<TRIPOS>ATOM
      1 CA          4.8000  -17.5952  -46.4115 C.3       0 UNK        -0.1800 
      2 C           4.5138  -17.9603  -47.8674 C.2       0 UNK         0.5000 
      3 O           4.9270  -19.0309  -48.3067 O.2       0 UNK        -0.5000 
      4 N           3.8084  -17.1327  -48.6526 N.am      1 UNK        -0.5000 
      5 CA          3.3467  -15.7729  -48.3500 C.3       1 UNK         0.1400 
      6 C6          2.4274  -15.2299  -49.4757 C.3       23 UNK        -0.0398 
      7 S7          0.6592  -15.5764  -49.1901 S.3       23 UNK        -0.2404 
      8 C8          0.4953  -17.3406  -49.6144 C.3       23 UNK        -0.0205 
      9 C9         -0.9306  -17.6781  -50.0349 C.ar      23 UNK        -0.0193 
     10 C10        -1.1896  -18.1421  -51.3282 C.ar      23 UNK        -0.1150 
     11 C11        -2.4982  -18.4108  -51.7427 C.ar      23 UNK        -0.0193 
     12 C12        -3.5534  -18.2210  -50.8465 C.ar      23 UNK        -0.1150 
     13 C13        -3.3098  -17.7727  -49.5453 C.ar      23 UNK        -0.0193 
     14 C14        -1.9957  -17.5113  -49.1428 C.ar      23 UNK        -0.1150 
     15 C15        -4.4734  -17.5399  -48.5916 C.3       23 UNK        -0.0205 
     16 S16        -5.0561  -19.0830  -47.8188 S.3       23 UNK        -0.2404 
     17 C17        -3.6991  -19.4488  -46.6611 C.3       23 UNK        -0.0398 
     18 CA         -2.7153  -20.5086  -47.2125 C.3       11 UNK         0.1400 
     19 N          -1.3912  -20.3875  -46.5978 N.am      11 UNK        -0.5000 
     20 C          -0.3346  -21.1685  -46.8591 C.2       10 UNK         0.5000 
     21 O          -0.3341  -22.0614  -47.7061 O.2       10 UNK        -0.5000 
     22 CA          0.9178  -20.9683  -45.9915 C.3       10 UNK         0.1400 
     23 CB          1.8744  -19.9727  -46.6570 C.3       10 UNK        -0.1800 
     24 N           0.6289  -20.5343  -44.6226 N.am      10 UNK        -0.5000 
     25 C          -0.0894  -21.2232  -43.7239 C.2       9 UNK         0.5000 
     26 O          -0.6243  -22.3072  -43.9605 O.2       9 UNK        -0.5000 
     27 CA         -0.2796  -20.5693  -42.3438 C.3       9 UNK         0.1400 
     28 CB          1.0179  -20.6153  -41.5226 C.3       9 UNK        -0.1800 
     29 N          -0.7486  -19.1885  -42.4518 N.am      9 UNK        -0.5000 
     30 C          -1.9583  -18.8389  -42.9124 C.2       8 UNK         0.5000 
     31 O          -2.8319  -19.6473  -43.2289 O.2       8 UNK        -0.5000 
     32 CA         -2.2241  -17.3323  -43.0898 C.3       8 UNK         0.1400 
     33 CB         -2.6352  -16.6903  -41.7565 C.3       8 UNK        -0.1800 
     34 N          -1.0805  -16.6114  -43.6524 N.am      8 UNK        -0.5000 
     35 C          -0.5453  -16.8626  -44.8558 C.2       7 UNK         0.5000 
     36 O          -0.9722  -17.7145  -45.6315 O.2       7 UNK        -0.5000 
     37 CA          0.7122  -16.0723  -45.2414 C.3       7 UNK         0.1400 
     38 CB          0.3529  -14.6487  -45.6917 C.3       7 UNK        -0.1800 
     39 N           1.6950  -16.0135  -44.1626 N.am      7 UNK        -0.5000 
     40 C           2.2981  -17.0717  -43.6044 C.2       6 UNK         0.5000 
     41 O           2.1352  -18.2311  -43.9775 O.2       6 UNK        -0.5000 
     42 CA          3.2032  -16.7872  -42.3963 C.3       6 UNK         0.1400 
     43 CB          4.5763  -16.2627  -42.8457 C.3       6 UNK        -0.1800 
     44 N           2.5838  -15.8352  -41.4756 N.am      6 UNK        -0.5000 
     45 C           1.4963  -16.0965  -40.7362 C.2       5 UNK         0.5000 
     46 O           0.9212  -17.1857  -40.7226 O.2       5 UNK        -0.5000 
     47 CA          0.9410  -14.9290  -39.9000 C.3       5 UNK         0.1400 
     48 CB          1.6937  -14.8111  -38.5664 C.3       5 UNK        -0.1800 
     49 N           1.0060  -13.6493  -40.6096 N.am      5 UNK        -0.5000 
     50 C           0.2630  -13.3476  -41.6835 C.2       4 UNK         0.5000 
     51 O          -0.5671  -14.1115  -42.1760 O.2       4 UNK        -0.5000 
     52 CA          0.5263  -11.9815  -42.3465 C.3       4 UNK         0.1400 
     53 CB         -0.2304  -10.8673  -41.6079 C.3       4 UNK        -0.1800 
     54 N           1.9474  -11.6262  -42.4430 N.am      4 UNK        -0.5000 
     55 C           2.8708  -12.3565  -43.0815 C.2       3 UNK         0.5000 
     56 O           2.6359  -13.4566  -43.5853 O.2       3 UNK        -0.5000 
     57 CA          4.3020  -11.7873  -43.1372 C.3       3 UNK         0.1400 
     58 CB          5.0313  -12.0573  -41.8118 C.3       3 UNK        -0.1800 
     59 N           5.0710  -12.3968  -44.2247 N.am      3 UNK        -0.5000 
     60 C           4.8228  -12.2208  -45.5293 C.2       2 UNK         0.5000 
     61 O           4.0321  -11.3838  -45.9681 O.2       2 UNK        -0.5000 
     62 CA          5.5173  -13.1770  -46.5108 C.3       2 UNK         0.1400 
     63 CB          6.7136  -13.9508  -45.9118 C.3       2 UNK        -0.1800 
     64 N           4.4960  -14.1087  -46.9753 N.am      2 UNK        -0.5000 
     65 C           4.5438  -14.8304  -48.0994 C.2       1 UNK         0.5000 
     66 O           5.4704  -14.7871  -48.9111 O.2       1 UNK        -0.5000 
     67 C          -3.2961  -21.9334  -47.0808 C.2       11 UNK         0.5000 
     68 O          -3.8330  -22.4697  -48.0508 O.2       11 UNK        -0.5000 
     69 N          -3.1297  -22.5348  -45.8963 N.am      12 UNK        -0.5000 
     70 CA         -3.5036  -23.9157  -45.6193 C.3       12 UNK         0.1400 
     71 CB         -3.8651  -24.0537  -44.1322 C.3       12 UNK        -0.1800 
     72 C          -2.3782  -24.8900  -46.0039 C.2       12 UNK         0.5000 
     73 O          -2.6369  -25.8643  -46.7093 O.2       12 UNK        -0.5000 
     74 N          -1.1608  -24.6253  -45.5115 N.am      13 UNK        -0.5000 
     75 CA         -0.0417  -25.5674  -45.5302 C.3       13 UNK         0.1400 
     76 CB          1.0177  -25.1076  -44.5164 C.3       13 UNK        -0.1800 
     77 C           0.6027  -25.7831  -46.9100 C.2       13 UNK         0.5000 
     78 O           1.0184  -26.9052  -47.2023 O.2       13 UNK        -0.5000 
     79 N           0.7048  -24.7187  -47.7147 N.am      14 UNK        -0.5000 
     80 CA          1.3975  -24.7258  -49.0040 C.3       14 UNK         0.1400 
     81 CB          2.4332  -23.5890  -49.0336 C.3       14 UNK        -0.1800 
     82 C           0.4070  -24.5890  -50.1672 C.2       14 UNK         0.5000 
     83 O           0.5153  -25.3303  -51.1445 O.2       14 UNK        -0.5000 
     84 N          -0.5472  -23.6573  -50.0417 N.am      15 UNK        -0.5000 
     85 CA         -1.5473  -23.3597  -51.0684 C.3       15 UNK         0.1400 
     86 CB         -1.9476  -21.8813  -50.9765 C.3       15 UNK        -0.1800 
     87 C          -2.7830  -24.2781  -51.0159 C.2       15 UNK         0.5000 
     88 O          -3.6648  -24.1206  -51.8588 O.2       15 UNK        -0.5000 
     89 N          -2.8325  -25.2131  -50.0544 N.am      16 UNK        -0.5000 
     90 CA         -3.8392  -26.2719  -49.9059 C.3       16 UNK         0.1400 
     91 CB         -3.7122  -27.2936  -51.0558 C.3       16 UNK        -0.1800 
     92 C          -5.2749  -25.7321  -49.7336 C.2       16 UNK         0.5000 
     93 O          -6.1988  -26.2033  -50.3987 O.2       16 UNK        -0.5000 
     94 N          -5.4188  -24.7398  -48.8444 N.am      17 UNK        -0.5000 
     95 CA         -6.6340  -23.9724  -48.5506 C.3       17 UNK         0.1400 
     96 CB         -7.7710  -24.8746  -48.0252 C.3       17 UNK        -0.1800 
     97 C          -7.0390  -23.0846  -49.7433 C.2       17 UNK         0.5000 
     98 O          -8.2050  -23.0685  -50.1420 O.2       17 UNK        -0.5000 
     99 N          -6.0425  -22.3661  -50.2829 N.am      18 UNK        -0.5000 
    100 CA        -6.1191  -21.4541  -51.4284 C.3       18 UNK         0.1400 
    101 CB        -6.9396  -20.1965  -51.0736 C.3       18 UNK        -0.1800 
    102 C         -6.6200  -22.1372  -52.7183 C.2       18 UNK         0.5000 
    103 O         -7.4742  -21.5895  -53.4166 O.2       18 UNK        -0.5000 
    104 N         -6.0605  -23.3107  -53.0415 N.am      19 UNK        -0.5000 
    105 CA        -6.3757  -24.0781  -54.2514 C.3       19 UNK         0.1400 
    106 CB        -5.7202  -25.4639  -54.1598 C.3       19 UNK        -0.1800 
    107 C         -5.9500  -23.3590  -55.5476 C.2       19 UNK         0.5000 
    108 O         -6.5965  -23.5287  -56.5815 O.2       19 UNK        -0.5000 
    109 N         -4.8953  -22.5376  -55.4536 N.am      20 UNK        -0.5000 
    110 CA        -4.4159  -21.6485  -56.5144 C.3       20 UNK         0.1400 
    111 CB        -2.9063  -21.4315  -56.3204 C.3       20 UNK        -0.1800 
    112 C         -5.1633  -20.2964  -56.5580 C.2       20 UNK         0.5000 
    113 O         -4.8557  -19.4720  -57.4204 O.2       20 UNK        -0.5000 
    114 N         -6.1084  -20.0798  -55.6290 N.am      21 UNK        -0.5000 
    115 CA        -6.9279  -18.8853  -55.3934 C.3       21 UNK         0.1400 
    116 CB        -7.7925  -18.5294  -56.6186 C.3       21 UNK        -0.1800 
    117 C         -6.1255  -17.6735  -54.8862 C.2       21 UNK         0.5000 
    118 O         -6.4139  -17.1738  -53.7989 O.2       21 UNK        -0.5000 
    119 N         -5.1362  -17.2350  -55.6735 N.am      22 UNK        -0.5000 
    120 CA        -4.2386  -16.0942  -55.4111 C.3       22 UNK         0.1400 
    121 C         -4.9421  -14.7008  -55.3681 C.2       22 UNK         0.5000 
    122 N         -6.1427  -14.5498  -55.9143 N.am      22 UNK        -0.7600 
    123 O         -4.3833  -13.7288  -54.8663 O.2       22 UNK        -0.5000 
    124 C124       -3.2985  -16.3316  -54.1956 C.3       23 UNK        -0.0398 
    125 S125       -2.1994  -17.7687  -54.4427 S.3       23 UNK        -0.2404 
    126 C126       -2.7722  -18.9186  -53.1526 C.3       23 UNK        -0.0205 
    127 H127        3.9959  -17.0129  -45.9677 H         1 UNK         0.0600 
    128 H128        5.7261  -17.0255  -46.3382 H         1 UNK         0.0600 
    129 H129        4.9131  -18.4981  -45.8113 H         1 UNK         0.0600 
    130 H130        3.6644  -17.4196  -49.6090 H         1 UNK         0.3000 
    131 H131        2.7673  -15.8147  -47.4294 H         1 UNK         0.0600 
    132 H132        2.4978  -14.1426  -49.5497 H         1 UNK         0.0800 
    133 H133        2.7267  -15.6028  -50.4566 H         1 UNK         0.0800 
    134 H134        0.7724  -17.9472  -48.7521 H         1 UNK         0.0800 
    135 H135        1.1963  -17.5902  -50.4120 H         1 UNK         0.0800 
    136 H136       -0.3743  -18.2813  -52.0242 H         1 UNK         0.1150 
    137 H137       -4.5686  -18.4171  -51.1607 H         1 UNK         0.1150 
    138 H138       -1.7997  -17.1546  -48.1413 H         1 UNK         0.1150 
    139 H139       -4.2016  -16.8185  -47.8194 H         1 UNK         0.0800 
    140 H140       -5.3030  -17.0924  -49.1411 H         1 UNK         0.0800 
    141 H141       -4.1208  -19.7561  -45.7024 H         1 UNK         0.0800 
    142 H142       -3.1818  -18.5134  -46.4590 H         1 UNK         0.0800 
    143 H143       -2.5623  -20.3088  -48.2728 H         1 UNK         0.0600 
    144 H144       -1.2656  -19.6169  -45.9481 H         1 UNK         0.3000 
    145 H145        1.4249  -21.9328  -45.9300 H         1 UNK         0.0600 
    146 H146        2.8237  -19.9324  -46.1236 H         1 UNK         0.0600 
    147 H147        2.0927  -20.2589  -47.6867 H         1 UNK         0.0600 
    148 H148        1.4569  -18.9662  -46.6737 H         1 UNK         0.0600 
    149 H149        1.0491  -19.6507  -44.3393 H         1 UNK         0.3000 
    150 H150       -1.0375  -21.1431  -41.8063 H         1 UNK         0.0600 
    151 H151        1.3761  -21.6400  -41.4166 H         1 UNK         0.0600 
    152 H152        0.8613  -20.2191  -40.5191 H         1 UNK         0.0600 
    153 H153        1.8150  -20.0348  -41.9873 H         1 UNK         0.0600 
    154 H154       -0.0960  -18.4602  -42.1859 H         1 UNK         0.3000 
    155 H155       -3.0562  -17.2256  -43.7887 H         1 UNK         0.0600 
    156 H156       -1.8251  -16.7221  -41.0274 H         1 UNK         0.0600 
    157 H157       -3.4914  -17.2067  -41.3208 H         1 UNK         0.0600 
    158 H158       -2.9204  -15.6471  -41.8936 H         1 UNK         0.0600 
    159 H159       -0.6962  -15.8578  -43.0902 H         1 UNK         0.3000 
    160 H160        1.1686  -16.5963  -46.0812 H         1 UNK         0.0600 
    161 H161       -0.0562  -14.0583  -44.8724 H         1 UNK         0.0600 
    162 H162       -0.3950  -14.6661  -46.4852 H         1 UNK         0.0600 
    163 H163        1.2259  -14.1226  -46.0774 H         1 UNK         0.0600 
    164 H164        1.9256  -15.0853  -43.8120 H         1 UNK         0.3000 
    165 H165        3.3559  -17.7273  -41.8618 H         1 UNK         0.0600 
    166 H166        5.2230  -16.0664  -41.9905 H         1 UNK         0.0600 
    167 H167        5.0841  -16.9958  -43.4732 H         1 UNK         0.0600 
    168 H168        4.4938  -15.3416  -43.4221 H         1 UNK         0.0600 
    169 H169        2.9564  -14.8979  -41.4716 H         1 UNK         0.3000 
    170 H170       -0.1070  -15.1459  -39.6817 H         1 UNK         0.0600 
    171 H171        1.6477  -15.7476  -38.0088 H         1 UNK         0.0600 
    172 H172        2.7467  -14.5693  -38.7160 H         1 UNK         0.0600 
    173 H173        1.2576  -14.0368  -37.9350 H         1 UNK         0.0600 
    174 H174        1.6684  -12.9670  -40.2714 H         1 UNK         0.3000 
    175 H175        0.1355  -12.0356  -43.3647 H         1 UNK         0.0600 
    176 H176        0.1446  -10.7286  -40.5932 H         1 UNK         0.0600 
    177 H177       -0.1416   -9.9156  -42.1321 H         1 UNK         0.0600 
    178 H178       -1.2941  -11.0987  -41.5363 H         1 UNK         0.0600 
    179 H179        2.2170  -10.7410  -42.0386 H         1 UNK         0.3000 
    180 H180        4.2469  -10.7099  -43.3059 H         1 UNK         0.0600 
    181 H181        5.1043  -13.1253  -41.6015 H         1 UNK         0.0600 
    182 H182        4.5113  -11.5923  -40.9734 H         1 UNK         0.0600 
    183 H183        6.0424  -11.6498  -41.8290 H         1 UNK         0.0600 
    184 H184        5.7189  -13.1226  -43.9582 H         1 UNK         0.3000 
    185 H185        5.8702  -12.5761  -47.3516 H         1 UNK         0.0600 
    186 H186        7.4521  -13.2689  -45.4883 H         1 UNK         0.0600 
    187 H187        6.4039  -14.6438  -45.1287 H         1 UNK         0.0600 
    188 H188        7.2242  -14.5339  -46.6783 H         1 UNK         0.0600 
    189 H189        3.6777  -14.1575  -46.3830 H         1 UNK         0.3000 
    190 H190       -2.6206  -22.0476  -45.1699 H         1 UNK         0.3000 
    191 H191       -4.3915  -24.1782  -46.1973 H         1 UNK         0.0600 
    192 H192       -3.0333  -23.7771  -43.4830 H         1 UNK         0.0600 
    193 H193       -4.1434  -25.0805  -43.8916 H         1 UNK         0.0600 
    194 H194       -4.7129  -23.4185  -43.8749 H         1 UNK         0.0600 
    195 H195       -1.0287  -23.7853  -44.9514 H         1 UNK         0.3000 
    196 H196       -0.4204  -26.5359  -45.1959 H         1 UNK         0.0600 
    197 H197        1.8471  -25.8144  -44.4681 H         1 UNK         0.0600 
    198 H198        0.5972  -25.0312  -43.5135 H         1 UNK         0.0600 
    199 H199        1.4312  -24.1338  -44.7799 H         1 UNK         0.0600 
    200 H200        0.2884  -23.8367  -47.4332 H         1 UNK         0.3000 
    201 H201        1.9393  -25.6633  -49.1455 H         1 UNK         0.0600 
    202 H202        3.1579  -23.6971  -48.2266 H         1 UNK         0.0600 
    203 H203        1.9691  -22.6075  -48.9351 H         1 UNK         0.0600 
    204 H204        2.9887  -23.5939  -49.9721 H         1 UNK         0.0600 
    205 H205       -0.5576  -23.0707  -49.2097 H         1 UNK         0.3000 
    206 H206       -1.0950  -23.5081  -52.0511 H         1 UNK         0.0600 
    207 H207       -1.0803  -21.2278  -51.0707 H         1 UNK         0.0600 
    208 H208       -2.6449  -21.6172  -51.7706 H         1 UNK         0.0600 
    209 H209       -2.4345  -21.6563  -50.0330 H         1 UNK         0.0600 
    210 H210       -2.0778  -25.2305  -49.3835 H         1 UNK         0.3000 
    211 H211       -3.6022  -26.7991  -48.9816 H         1 UNK         0.0600 
    212 H212       -3.9621  -26.8522  -52.0207 H         1 UNK         0.0600 
    213 H213       -4.3796  -28.1422  -50.9015 H         1 UNK         0.0600 
    214 H214       -2.6980  -27.6875  -51.1213 H         1 UNK         0.0600 
    215 H215       -4.5755  -24.3600  -48.4292 H         1 UNK         0.3000 
    216 H216       -6.3748  -23.2883  -47.7416 H         1 UNK         0.0600 
    217 H217       -8.6089  -24.2729  -47.6715 H         1 UNK         0.0600 
    218 H218       -7.4341  -25.4856  -47.1878 H         1 UNK         0.0600 
    219 H219       -8.1564  -25.5423  -48.7958 H         1 UNK         0.0600 
    220 H220       -5.1298  -22.4572  -49.8526 H         1 UNK         0.3000 
    221 H221       -5.0970  -21.1316  -51.6297 H         1 UNK         0.0600 
    222 H222       -7.9914  -20.4316  -50.9086 H         1 UNK         0.0600 
    223 H223       -6.5618  -19.7171  -50.1734 H         1 UNK         0.0600 
    224 H224       -6.8911  -19.4581  -51.8750 H         1 UNK         0.0600 
    225 H225       -5.3171  -23.6841  -52.4525 H         1 UNK         0.3000 
    226 H226       -7.4584  -24.2147  -54.2887 H         1 UNK         0.0600 
    227 H227       -6.0548  -25.9988  -53.2707 H         1 UNK         0.0600 
    228 H228       -5.9776  -26.0764  -55.0247 H         1 UNK         0.0600 
    229 H229       -4.6327  -25.3929  -54.1188 H         1 UNK         0.0600 
    230 H230       -4.4168  -22.4845  -54.5661 H         1 UNK         0.3000 
    231 H231       -4.5662  -22.1311  -57.4823 H         1 UNK         0.0600 
    232 H232       -2.3661  -22.3782  -56.3413 H         1 UNK         0.0600 
    233 H233       -2.6888  -20.9422  -55.3718 H         1 UNK         0.0600 
    234 H234       -2.4926  -20.8067  -57.1130 H         1 UNK         0.0600 
    235 H235       -6.3023  -20.8342  -54.9817 H         1 UNK         0.3000 
    236 H236       -7.6149  -19.1571  -54.5907 H         1 UNK         0.0600 
    237 H237       -7.1924  -18.2295  -57.4777 H         1 UNK         0.0600 
    238 H238       -8.4092  -19.3757  -56.9213 H         1 UNK         0.0600 
    239 H239       -8.4662  -17.7030  -56.3895 H         1 UNK         0.0600 
    240 H240       -4.9541  -17.7617  -56.5229 H         1 UNK         0.3000 
    241 H241       -3.6005  -16.0317  -56.2931 H         1 UNK         0.0600 
    242 H242       -6.5873  -13.6453  -55.8943 H         1 UNK         0.3800 
    243 H243       -6.6105  -15.3300  -56.3466 H         1 UNK         0.3800 
    244 H244       -3.8753  -16.4434  -53.2771 H         1 UNK         0.0800 
    245 H245       -2.6489  -15.4698  -54.0360 H         1 UNK         0.0800 
    246 H246       -2.2511  -19.8660  -53.2860 H         1 UNK         0.0800 
    247 H247       -3.8337  -19.1234  -53.3002 H         1 UNK         0.0800 
@<TRIPOS>BOND
     1    1    2 1    
     2    1  127 1    
     3    1  128 1    
     4    1  129 1    
     5    2    3 2    
     6    2    4 am   BACKBONE|DICT|INTERRES
     7    4    5 1    
     8    4  130 1    
     9    5    6 1    
    10    5   65 1    
    11    5  131 1    
    12    6    7 1    
    13    6  132 1    
    14    6  133 1    
    15    7    8 1    
    16    8    9 1    
    17    8  134 1    
    18    8  135 1    
    19    9   10 ar   
    20    9   14 ar   
    21   10   11 ar   
    22   10  136 1    
    23   11   12 ar   
    24   11  126 1    
    25   12   13 ar   
    26   12  137 1    
    27   13   14 ar   
    28   13   15 1    
    29   14  138 1    
    30   15   16 1    
    31   15  139 1    
    32   15  140 1    
    33   16   17 1    
    34   17   18 1    
    35   17  141 1    
    36   17  142 1    
    37   18   19 1    
    38   18   67 1    
    39   18  143 1    
    40   19   20 am   BACKBONE|DICT|INTERRES
    41   19  144 1    
    42   20   21 2    
    43   20   22 1    
    44   22   23 1    
    45   22   24 1    
    46   22  145 1    
    47   23  146 1    
    48   23  147 1    
    49   23  148 1    
    50   24   25 am   BACKBONE|DICT|INTERRES
    51   24  149 1    
    52   25   26 2    
    53   25   27 1    
    54   27   28 1    
    55   27   29 1    
    56   27  150 1    
    57   28  151 1    
    58   28  152 1    
    59   28  153 1    
    60   29   30 am   BACKBONE|DICT|INTERRES
    61   29  154 1    
    62   30   31 2    
    63   30   32 1    
    64   32   33 1    
    65   32   34 1    
    66   32  155 1    
    67   33  156 1    
    68   33  157 1    
    69   33  158 1    
    70   34   35 am   BACKBONE|DICT|INTERRES
    71   34  159 1    
    72   35   36 2    
    73   35   37 1    
    74   37   38 1    
    75   37   39 1    
    76   37  160 1    
    77   38  161 1    
    78   38  162 1    
    79   38  163 1    
    80   39   40 am   BACKBONE|DICT|INTERRES
    81   39  164 1    
    82   40   41 2    
    83   40   42 1    
    84   42   43 1    
    85   42   44 1    
    86   42  165 1    
    87   43  166 1    
    88   43  167 1    
    89   43  168 1    
    90   44   45 am   BACKBONE|DICT|INTERRES
    91   44  169 1    
    92   45   46 2    
    93   45   47 1    
    94   47   48 1    
    95   47   49 1    
    96   47  170 1    
    97   48  171 1    
    98   48  172 1    
    99   48  173 1    
   100   49   50 am   BACKBONE|DICT|INTERRES
   101   49  174 1    
   102   50   51 2    
   103   50   52 1    
   104   52   53 1    
   105   52   54 1    
   106   52  175 1    
   107   53  176 1    
   108   53  177 1    
   109   53  178 1    
   110   54   55 am   BACKBONE|DICT|INTERRES
   111   54  179 1    
   112   55   56 2    
   113   55   57 1    
   114   57   58 1    
   115   57   59 1    
   116   57  180 1    
   117   58  181 1    
   118   58  182 1    
   119   58  183 1    
   120   59   60 am   BACKBONE|DICT|INTERRES
   121   59  184 1    
   122   60   61 2    
   123   60   62 1    
   124   62   63 1    
   125   62   64 1    
   126   62  185 1    
   127   63  186 1    
   128   63  187 1    
   129   63  188 1    
   130   64   65 am   BACKBONE|DICT|INTERRES
   131   64  189 1    
   132   65   66 2    
   133   67   68 2    
   134   67   69 am   BACKBONE|DICT|INTERRES
   135   69   70 1    
   136   69  190 1    
   137   70   71 1    
   138   70   72 1    
   139   70  191 1    
   140   71  192 1    
   141   71  193 1    
   142   71  194 1    
   143   72   73 2    
   144   72   74 am   BACKBONE|DICT|INTERRES
   145   74   75 1    
   146   74  195 1    
   147   75   76 1    
   148   75   77 1    
   149   75  196 1    
   150   76  197 1    
   151   76  198 1    
   152   76  199 1    
   153   77   78 2    
   154   77   79 am   BACKBONE|DICT|INTERRES
   155   79   80 1    
   156   79  200 1    
   157   80   81 1    
   158   80   82 1    
   159   80  201 1    
   160   81  202 1    
   161   81  203 1    
   162   81  204 1    
   163   82   83 2    
   164   82   84 am   BACKBONE|DICT|INTERRES
   165   84   85 1    
   166   84  205 1    
   167   85   86 1    
   168   85   87 1    
   169   85  206 1    
   170   86  207 1    
   171   86  208 1    
   172   86  209 1    
   173   87   88 2    
   174   87   89 am   BACKBONE|DICT|INTERRES
   175   89   90 1    
   176   89  210 1    
   177   90   91 1    
   178   90   92 1    
   179   90  211 1    
   180   91  212 1    
   181   91  213 1    
   182   91  214 1    
   183   92   93 2    
   184   92   94 am   BACKBONE|DICT|INTERRES
   185   94   95 1    
   186   94  215 1    
   187   95   96 1    
   188   95   97 1    
   189   95  216 1    
   190   96  217 1    
   191   96  218 1    
   192   96  219 1    
   193   97   98 2    
   194   97   99 am   BACKBONE|DICT|INTERRES
   195   99  100 1    
   196   99  220 1    
   197  100  101 1    
   198  100  102 1    
   199  100  221 1    
   200  101  222 1    
   201  101  223 1    
   202  101  224 1    
   203  102  103 2    
   204  102  104 am   BACKBONE|DICT|INTERRES
   205  104  105 1    
   206  104  225 1    
   207  105  106 1    
   208  105  107 1    
   209  105  226 1    
   210  106  227 1    
   211  106  228 1    
   212  106  229 1    
   213  107  108 2    
   214  107  109 am   BACKBONE|DICT|INTERRES
   215  109  110 1    
   216  109  230 1    
   217  110  111 1    
   218  110  112 1    
   219  110  231 1    
   220  111  232 1    
   221  111  233 1    
   222  111  234 1    
   223  112  113 2    
   224  112  114 am   BACKBONE|DICT|INTERRES
   225  114  115 1    
   226  114  235 1    
   227  115  116 1    
   228  115  117 1    
   229  115  236 1    
   230  116  237 1    
   231  116  238 1    
   232  116  239 1    
   233  117  118 2    
   234  117  119 am   BACKBONE|DICT|INTERRES
   235  119  120 1    
   236  119  240 1    
   237  120  121 1    
   238  120  124 1    
   239  120  241 1    
   240  121  122 am   BACKBONE|DICT|INTERRES
   241  121  123 2    
   242  122  242 1    
   243  122  243 1    
   244  124  125 1    
   245  124  244 1    
   246  124  245 1    
   247  125  126 1    
   248  126  246 1    
   249  126  247 1    
@<TRIPOS>SUBSTRUCTURE
     1 UNK         1 GROUP             0       ****    0 ROOT    
