@<TRIPOS>MOLECULE
3R540
247   249    1
SMALL
USER_CHARGES


@<TRIPOS>ATOM
      1 CA         -4.2343  -14.0042  -44.7861 C.3       0 UNK        -0.1800 
      2 C          -3.3497  -12.7652  -44.8009 C.2       0 UNK         0.5000 
      3 O          -3.7192  -11.7410  -44.2263 O.2       0 UNK        -0.5000 
      4 N          -2.1945  -12.8528  -45.4708 N.am      1 UNK        -0.5000 
      5 CA         -1.2018  -11.7835  -45.6099 C.3       1 UNK         0.1400 
      6 C6         -0.0780  -12.1430  -46.6180 C.3       23 UNK        -0.0398 
      7 S7         -0.6907  -12.7984  -48.2077 S.3       23 UNK        -0.2404 
      8 C8         -0.0126  -14.4852  -48.1364 C.3       23 UNK        -0.0205 
      9 C9         -0.6536  -15.3930  -49.1710 C.ar      23 UNK        -0.0193 
     10 C10        -0.0588  -15.5681  -50.4245 C.ar      23 UNK        -0.1150 
     11 C11        -0.6326  -16.4275  -51.3661 C.ar      23 UNK        -0.0193 
     12 C12        -1.8063  -17.1107  -51.0425 C.ar      23 UNK        -0.1150 
     13 C13        -2.4150  -16.9396  -49.7982 C.ar      23 UNK        -0.0193 
     14 C14        -1.8341  -16.0773  -48.8647 C.ar      23 UNK        -0.1150 
     15 C15        -3.6967  -17.6923  -49.4692 C.3       23 UNK        -0.0205 
     16 S16        -3.4667  -19.4982  -49.5201 S.3       23 UNK        -0.2404 
     17 C17        -2.2280  -19.7182  -48.2049 C.3       23 UNK        -0.0398 
     18 CA         -2.0060  -21.1936  -47.7964 C.3       11 UNK         0.1400 
     19 N          -0.7960  -21.3386  -46.9883 N.am      11 UNK        -0.5000 
     20 C          -0.2454  -22.4980  -46.6060 C.2       10 UNK         0.5000 
     21 O          -0.6606  -23.6018  -46.9558 O.2       10 UNK        -0.5000 
     22 CA          0.9481  -22.4068  -45.6369 C.3       10 UNK         0.1400 
     23 CB          2.2545  -22.1553  -46.4040 C.3       10 UNK        -0.1800 
     24 N           0.7692  -21.3725  -44.6144 N.am      10 UNK        -0.5000 
     25 C          -0.1832  -21.4006  -43.6699 C.2       9 UNK         0.5000 
     26 O          -0.9826  -22.3253  -43.5321 O.2       9 UNK        -0.5000 
     27 CA         -0.2903  -20.1740  -42.7469 C.3       9 UNK         0.1400 
     28 CB          0.7660  -20.2333  -41.6335 C.3       9 UNK        -0.1800 
     29 N          -0.1746  -18.9080  -43.4698 N.am      9 UNK        -0.5000 
     30 C          -1.0324  -18.4835  -44.4084 C.2       8 UNK         0.5000 
     31 O          -2.0400  -19.1030  -44.7481 O.2       8 UNK        -0.5000 
     32 CA         -0.6730  -17.1724  -45.1302 C.3       8 UNK         0.1400 
     33 CB         -0.9925  -15.9565  -44.2490 C.3       8 UNK        -0.1800 
     34 N           0.7305  -17.1290  -45.5409 N.am      8 UNK        -0.5000 
     35 C           1.3024  -17.9984  -46.3870 C.2       7 UNK         0.5000 
     36 O           0.6937  -18.9017  -46.9566 O.2       7 UNK        -0.5000 
     37 CA          2.8214  -17.8786  -46.5805 C.3       7 UNK         0.1400 
     38 CB          3.1590  -16.8125  -47.6329 C.3       7 UNK        -0.1800 
     39 N           3.5002  -17.5774  -45.3201 N.am      7 UNK        -0.5000 
     40 C           3.6180  -18.4463  -44.3051 C.2       6 UNK         0.5000 
     41 O           3.2126  -19.6082  -44.3497 O.2       6 UNK        -0.5000 
     42 CA          4.2544  -17.9117  -43.0085 C.3       6 UNK         0.1400 
     43 CB          5.7870  -17.9371  -43.1044 C.3       6 UNK        -0.1800 
     44 N           3.8087  -16.5550  -42.6846 N.am      6 UNK        -0.5000 
     45 C           2.5542  -16.2367  -42.3349 C.2       5 UNK         0.5000 
     46 O           1.6583  -17.0676  -42.1933 O.2       5 UNK        -0.5000 
     47 CA          2.2329  -14.7397  -42.1561 C.3       5 UNK         0.1400 
     48 CB          2.4379  -14.3123  -40.6958 C.3       5 UNK        -0.1800 
     49 N           3.0087  -13.8561  -43.0307 N.am      5 UNK        -0.5000 
     50 C           2.9848  -13.8881  -44.3694 C.2       4 UNK         0.5000 
     51 O           2.3256  -14.6986  -45.0234 O.2       4 UNK        -0.5000 
     52 CA          3.8266  -12.8165  -45.0734 C.3       4 UNK         0.1400 
     53 CB          3.8365  -12.9507  -46.6084 C.3       4 UNK        -0.1800 
     54 N           3.3290  -11.4986  -44.6896 N.am      4 UNK        -0.5000 
     55 C           4.0854  -10.4039  -44.5424 C.2       3 UNK         0.5000 
     56 O           5.3094  -10.4029  -44.6807 O.2       3 UNK        -0.5000 
     57 CA          3.3699   -9.0794  -44.2059 C.3       3 UNK         0.1400 
     58 CB          3.4876   -8.0949  -45.3810 C.3       3 UNK        -0.1800 
     59 N           1.9504   -9.2464  -43.8866 N.am      3 UNK        -0.5000 
     60 C           1.4630   -9.5675  -42.6806 C.2       2 UNK         0.5000 
     61 O           2.1644   -9.7786  -41.6912 O.2       2 UNK        -0.5000 
     62 CA         -0.0703   -9.6872  -42.5742 C.3       2 UNK         0.1400 
     63 CB         -0.6926   -8.3327  -42.2023 C.3       2 UNK        -0.1800 
     64 N          -0.6847  -10.1778  -43.8125 N.am      2 UNK        -0.5000 
     65 C          -0.5732  -11.4403  -44.2442 C.2       1 UNK         0.5000 
     66 O           0.0342  -12.3161  -43.6264 O.2       1 UNK        -0.5000 
     67 C          -3.2333  -21.7998  -47.0844 C.2       11 UNK         0.5000 
     68 O          -3.9153  -22.6468  -47.6637 O.2       11 UNK        -0.5000 
     69 N          -3.4564  -21.3849  -45.8298 N.am      12 UNK        -0.5000 
     70 CA         -4.5886  -21.7820  -44.9904 C.3       12 UNK         0.1400 
     71 CB         -4.6498  -20.8410  -43.7769 C.3       12 UNK        -0.1800 
     72 C          -4.5720  -23.2523  -44.5257 C.2       12 UNK         0.5000 
     73 O          -5.5992  -23.7376  -44.0496 O.2       12 UNK        -0.5000 
     74 N          -3.4270  -23.9372  -44.6541 N.am      13 UNK        -0.5000 
     75 CA         -3.2329  -25.3346  -44.2562 C.3       13 UNK         0.1400 
     76 CB         -1.7335  -25.6683  -44.3056 C.3       13 UNK        -0.1800 
     77 C          -4.0312  -26.3527  -45.0969 C.2       13 UNK         0.5000 
     78 O          -4.2074  -27.4881  -44.6522 O.2       13 UNK        -0.5000 
     79 N          -4.4937  -25.9458  -46.2841 N.am      14 UNK        -0.5000 
     80 CA         -5.2918  -26.7481  -47.2047 C.3       14 UNK         0.1400 
     81 CB         -4.3762  -27.7103  -47.9892 C.3       14 UNK        -0.1800 
     82 C          -6.1076  -25.8095  -48.1110 C.2       14 UNK         0.5000 
     83 O          -6.2831  -24.6347  -47.7796 O.2       14 UNK        -0.5000 
     84 N          -6.5937  -26.3297  -49.2448 N.am      15 UNK        -0.5000 
     85 CA         -7.3147  -25.5838  -50.2778 C.3       15 UNK         0.1400 
     86 CB         -8.0830  -26.5838  -51.1601 C.3       15 UNK        -0.1800 
     87 C          -6.3444  -24.7072  -51.0947 C.2       15 UNK         0.5000 
     88 O          -5.9625  -25.0816  -52.2048 O.2       15 UNK        -0.5000 
     89 N          -5.9069  -23.5940  -50.4891 N.am      16 UNK        -0.5000 
     90 CA         -4.9012  -22.6472  -50.9827 C.3       16 UNK         0.1400 
     91 CB         -5.4281  -21.8662  -52.2005 C.3       16 UNK        -0.1800 
     92 C          -3.5576  -23.3550  -51.2393 C.2       16 UNK         0.5000 
     93 O          -3.1124  -23.4743  -52.3850 O.2       16 UNK        -0.5000 
     94 N          -3.0053  -23.9134  -50.1518 N.am      17 UNK        -0.5000 
     95 CA         -1.8136  -24.7726  -50.0791 C.3       17 UNK         0.1400 
     96 CB         -0.5545  -23.9990  -50.5246 C.3       17 UNK        -0.1800 
     97 C          -1.9504  -26.1124  -50.8391 C.2       17 UNK         0.5000 
     98 O          -0.9492  -26.8031  -51.0291 O.2       17 UNK        -0.5000 
     99 N          -3.1763  -26.4402  -51.2812 N.am      18 UNK        -0.5000 
    100 CA        -3.5422  -27.5243  -52.2018 C.3       18 UNK         0.1400 
    101 CB        -3.2454  -28.9081  -51.5873 C.3       18 UNK        -0.1800 
    102 C         -2.9250  -27.3492  -53.6082 C.2       18 UNK         0.5000 
    103 O         -2.7939  -28.3285  -54.3446 O.2       18 UNK        -0.5000 
    104 N         -2.5502  -26.1093  -53.9513 N.am      19 UNK        -0.5000 
    105 CA        -1.8175  -25.7521  -55.1655 C.3       19 UNK         0.1400 
    106 CB        -0.3790  -25.3818  -54.7624 C.3       19 UNK        -0.1800 
    107 C         -2.4834  -24.5965  -55.9327 C.2       19 UNK         0.5000 
    108 O         -1.9351  -24.1671  -56.9487 O.2       19 UNK        -0.5000 
    109 N         -3.6267  -24.0980  -55.4333 N.am      20 UNK        -0.5000 
    110 CA        -4.3364  -22.8989  -55.8961 C.3       20 UNK         0.1400 
    111 CB        -4.9053  -23.0976  -57.3171 C.3       20 UNK        -0.1800 
    112 C         -3.4697  -21.6281  -55.7546 C.2       20 UNK         0.5000 
    113 O         -3.4396  -20.7908  -56.6608 O.2       20 UNK        -0.5000 
    114 N         -2.7561  -21.5315  -54.6211 N.am      21 UNK        -0.5000 
    115 CA        -1.8186  -20.4618  -54.2768 C.3       21 UNK         0.1400 
    116 CB        -1.2768  -20.7080  -52.8591 C.3       21 UNK        -0.1800 
    117 C         -2.4525  -19.0630  -54.3874 C.2       21 UNK         0.5000 
    118 O         -3.4680  -18.8042  -53.7391 O.2       21 UNK        -0.5000 
    119 N         -1.8497  -18.2079  -55.2245 N.am      22 UNK        -0.5000 
    120 CA        -2.3128  -16.8475  -55.5574 C.3       22 UNK         0.1400 
    121 C         -3.7025  -16.7850  -56.2719 C.2       22 UNK         0.5000 
    122 N         -4.2336  -17.8806  -56.8042 N.am      22 UNK        -0.7600 
    123 O         -4.2969  -15.7166  -56.3889 O.2       22 UNK        -0.5000 
    124 C124       -2.1923  -15.8609  -54.3571 C.3       23 UNK        -0.0398 
    125 S125       -0.4588  -15.4249  -53.9665 S.3       23 UNK        -0.2404 
    126 C126        0.0341  -16.6528  -52.7145 C.3       23 UNK        -0.0205 
    127 H127       -4.2817  -14.4193  -43.7794 H         1 UNK         0.0600 
    128 H128       -5.2466  -13.7467  -45.0977 H         1 UNK         0.0600 
    129 H129       -3.8616  -14.7770  -45.4590 H         1 UNK         0.0600 
    130 H130       -1.9585  -13.7158  -45.9349 H         1 UNK         0.3000 
    131 H131       -1.7251  -10.9035  -45.9898 H         1 UNK         0.0600 
    132 H132        0.5284  -11.2615  -46.8329 H         1 UNK         0.0800 
    133 H133        0.6051  -12.8736  -46.1823 H         1 UNK         0.0800 
    134 H134       -0.1659  -14.9062  -47.1428 H         1 UNK         0.0800 
    135 H135        1.0668  -14.4421  -48.2865 H         1 UNK         0.0800 
    136 H136        0.8545  -15.0420  -50.6646 H         1 UNK         0.1150 
    137 H137       -2.2481  -17.7907  -51.7538 H         1 UNK         0.1150 
    138 H138       -2.2985  -15.9388  -47.8991 H         1 UNK         0.1150 
    139 H139       -4.0787  -17.4066  -48.4879 H         1 UNK         0.0800 
    140 H140       -4.4646  -17.4151  -50.1927 H         1 UNK         0.0800 
    141 H141       -2.5021  -19.1067  -47.3447 H         1 UNK         0.0800 
    142 H142       -1.2945  -19.3028  -48.5863 H         1 UNK         0.0800 
    143 H143       -1.8439  -21.7657  -48.7097 H         1 UNK         0.0600 
    144 H144       -0.3404  -20.4738  -46.7084 H         1 UNK         0.3000 
    145 H145        1.0336  -23.3687  -45.1270 H         1 UNK         0.0600 
    146 H146        3.1128  -22.1580  -45.7320 H         1 UNK         0.0600 
    147 H147        2.4233  -22.9309  -47.1520 H         1 UNK         0.0600 
    148 H148        2.2394  -21.1966  -46.9227 H         1 UNK         0.0600 
    149 H149        1.4195  -20.5940  -44.6332 H         1 UNK         0.3000 
    150 H150       -1.2767  -20.1983  -42.2791 H         1 UNK         0.0600 
    151 H151        0.6914  -21.1657  -41.0727 H         1 UNK         0.0600 
    152 H152        0.6358  -19.4158  -40.9242 H         1 UNK         0.0600 
    153 H153        1.7782  -20.1695  -42.0337 H         1 UNK         0.0600 
    154 H154        0.6034  -18.3078  -43.2103 H         1 UNK         0.3000 
    155 H155       -1.2804  -17.1102  -46.0345 H         1 UNK         0.0600 
    156 H156       -0.5212  -16.0296  -43.2702 H         1 UNK         0.0600 
    157 H157       -2.0658  -15.8736  -44.0802 H         1 UNK         0.0600 
    158 H158       -0.6520  -15.0289  -44.7070 H         1 UNK         0.0600 
    159 H159        1.3047  -16.3882  -45.1503 H         1 UNK         0.3000 
    160 H160        3.1896  -18.8397  -46.9454 H         1 UNK         0.0600 
    161 H161        4.2341  -16.7488  -47.8009 H         1 UNK         0.0600 
    162 H162        2.8060  -15.8259  -47.3372 H         1 UNK         0.0600 
    163 H163        2.6923  -17.0505  -48.5897 H         1 UNK         0.0600 
    164 H164        3.7950  -16.6220  -45.1818 H         1 UNK         0.3000 
    165 H165        3.9528  -18.5727  -42.1930 H         1 UNK         0.0600 
    166 H166        6.2457  -17.6327  -42.1635 H         1 UNK         0.0600 
    167 H167        6.1465  -18.9421  -43.3297 H         1 UNK         0.0600 
    168 H168        6.1547  -17.2735  -43.8880 H         1 UNK         0.0600 
    169 H169        4.4877  -15.8136  -42.7721 H         1 UNK         0.3000 
    170 H170        1.1795  -14.5988  -42.4043 H         1 UNK         0.0600 
    171 H171        1.8505  -14.9359  -40.0204 H         1 UNK         0.0600 
    172 H172        3.4829  -14.3942  -40.3946 H         1 UNK         0.0600 
    173 H173        2.1219  -13.2803  -40.5403 H         1 UNK         0.0600 
    174 H174        3.5578  -13.1419  -42.5748 H         1 UNK         0.3000 
    175 H175        4.8505  -12.9440  -44.7156 H         1 UNK         0.0600 
    176 H176        2.8376  -12.8565  -47.0334 H         1 UNK         0.0600 
    177 H177        4.4656  -12.1873  -47.0661 H         1 UNK         0.0600 
    178 H178        4.2355  -13.9189  -46.9115 H         1 UNK         0.0600 
    179 H179        2.3408  -11.4388  -44.4877 H         1 UNK         0.3000 
    180 H180        3.8809   -8.6429  -43.3451 H         1 UNK         0.0600 
    181 H181        3.0038   -8.4802  -46.2794 H         1 UNK         0.0600 
    182 H182        4.5322   -7.9013  -45.6285 H         1 UNK         0.0600 
    183 H183        3.0313   -7.1349  -45.1385 H         1 UNK         0.0600 
    184 H184        1.2977   -9.0827  -44.6387 H         1 UNK         0.3000 
    185 H185       -0.2935  -10.3950  -41.7727 H         1 UNK         0.0600 
    186 H186       -0.2706   -7.9521  -41.2711 H         1 UNK         0.0600 
    187 H187       -0.5171   -7.5816  -42.9734 H         1 UNK         0.0600 
    188 H188       -1.7695   -8.4206  -42.0572 H         1 UNK         0.0600 
    189 H189       -1.2210   -9.5116  -44.3502 H         1 UNK         0.3000 
    190 H190       -2.8378  -20.6819  -45.4317 H         1 UNK         0.3000 
    191 H191       -5.4997  -21.6435  -45.5761 H         1 UNK         0.0600 
    192 H192       -3.7483  -20.9178  -43.1675 H         1 UNK         0.0600 
    193 H193       -5.5016  -21.0754  -43.1372 H         1 UNK         0.0600 
    194 H194       -4.7553  -19.8016  -44.0885 H         1 UNK         0.0600 
    195 H195       -2.6163  -23.4507  -45.0127 H         1 UNK         0.3000 
    196 H196       -3.5685  -25.4348  -43.2221 H         1 UNK         0.0600 
    197 H197       -1.5481  -26.6864  -43.9610 H         1 UNK         0.0600 
    198 H198       -1.1558  -25.0022  -43.6653 H         1 UNK         0.0600 
    199 H199       -1.3385  -25.5903  -45.3186 H         1 UNK         0.0600 
    200 H200       -4.3849  -24.9733  -46.5479 H         1 UNK         0.3000 
    201 H201       -6.0128  -27.3328  -46.6300 H         1 UNK         0.0600 
    202 H202       -3.8036  -28.3493  -47.3170 H         1 UNK         0.0600 
    203 H203       -3.6648  -27.1660  -48.6085 H         1 UNK         0.0600 
    204 H204       -4.9500  -28.3743  -48.6354 H         1 UNK         0.0600 
    205 H205       -6.4064  -27.3001  -49.4497 H         1 UNK         0.3000 
    206 H206       -8.0454  -24.9261  -49.8020 H         1 UNK         0.0600 
    207 H207       -8.8130  -27.1441  -50.5757 H         1 UNK         0.0600 
    208 H208       -8.6288  -26.0668  -51.9504 H         1 UNK         0.0600 
    209 H209       -7.4148  -27.3016  -51.6378 H         1 UNK         0.0600 
    210 H210       -6.2010  -23.4524  -49.5279 H         1 UNK         0.3000 
    211 H211       -4.7361  -21.9325  -50.1789 H         1 UNK         0.0600 
    212 H212       -5.6579  -22.5258  -53.0349 H         1 UNK         0.0600 
    213 H213       -4.6948  -21.1350  -52.5420 H         1 UNK         0.0600 
    214 H214       -6.3362  -21.3184  -51.9499 H         1 UNK         0.0600 
    215 H215       -3.4582  -23.7308  -49.2599 H         1 UNK         0.3000 
    216 H216       -1.6930  -25.0324  -49.0268 H         1 UNK         0.0600 
    217 H217       -0.5629  -23.7954  -51.5952 H         1 UNK         0.0600 
    218 H218        0.3494  -24.5703  -50.3111 H         1 UNK         0.0600 
    219 H219       -0.4590  -23.0486  -50.0023 H         1 UNK         0.0600 
    220 H220       -3.9154  -25.7757  -51.1010 H         1 UNK         0.3000 
    221 H221       -4.6219  -27.4543  -52.3384 H         1 UNK         0.0600 
    222 H222       -2.1749  -29.0972  -51.5069 H         1 UNK         0.0600 
    223 H223       -3.6779  -29.0024  -50.5926 H         1 UNK         0.0600 
    224 H224       -3.6698  -29.7052  -52.1987 H         1 UNK         0.0600 
    225 H225       -2.6976  -25.3579  -53.2862 H         1 UNK         0.3000 
    226 H226       -1.7775  -26.5983  -55.8540 H         1 UNK         0.0600 
    227 H227        0.1060  -26.2036  -54.2349 H         1 UNK         0.0600 
    228 H228        0.2312  -25.1536  -55.6371 H         1 UNK         0.0600 
    229 H229       -0.3597  -24.5083  -54.1092 H         1 UNK         0.0600 
    230 H230       -3.9919  -24.5192  -54.5903 H         1 UNK         0.3000 
    231 H231       -5.1872  -22.7658  -55.2294 H         1 UNK         0.0600 
    232 H232       -5.5075  -24.0041  -57.3771 H         1 UNK         0.0600 
    233 H233       -4.1180  -23.1670  -58.0679 H         1 UNK         0.0600 
    234 H234       -5.5480  -22.2625  -57.5978 H         1 UNK         0.0600 
    235 H235       -2.8628  -22.2641  -53.9262 H         1 UNK         0.3000 
    236 H236       -0.9831  -20.5296  -54.9761 H         1 UNK         0.0600 
    237 H237       -0.5418  -19.9536  -52.5791 H         1 UNK         0.0600 
    238 H238       -2.0730  -20.6810  -52.1142 H         1 UNK         0.0600 
    239 H239       -0.7862  -21.6785  -52.7886 H         1 UNK         0.0600 
    240 H240       -1.0391  -18.5218  -55.7384 H         1 UNK         0.3000 
    241 H241       -1.6245  -16.4958  -56.3267 H         1 UNK         0.0600 
    242 H242       -3.7798  -18.7842  -56.7199 H         1 UNK         0.3800 
    243 H243       -5.1219  -17.8161  -57.2750 H         1 UNK         0.3800 
    244 H244       -2.6824  -14.9142  -54.5877 H         1 UNK         0.0800 
    245 H245       -2.7073  -16.2410  -53.4768 H         1 UNK         0.0800 
    246 H246       -0.1737  -17.6565  -53.0810 H         1 UNK         0.0800 
    247 H247        1.1170  -16.6027  -52.5920 H         1 UNK         0.0800 
@<TRIPOS>BOND
     1    1    2 1    
     2    1  127 1    
     3    1  128 1    
     4    1  129 1    
     5    2    3 2    
     6    2    4 am   BACKBONE|DICT|INTERRES
     7    4    5 1    
     8    4  130 1    
     9    5    6 1    
    10    5   65 1    
    11    5  131 1    
    12    6    7 1    
    13    6  132 1    
    14    6  133 1    
    15    7    8 1    
    16    8    9 1    
    17    8  134 1    
    18    8  135 1    
    19    9   10 ar   
    20    9   14 ar   
    21   10   11 ar   
    22   10  136 1    
    23   11   12 ar   
    24   11  126 1    
    25   12   13 ar   
    26   12  137 1    
    27   13   14 ar   
    28   13   15 1    
    29   14  138 1    
    30   15   16 1    
    31   15  139 1    
    32   15  140 1    
    33   16   17 1    
    34   17   18 1    
    35   17  141 1    
    36   17  142 1    
    37   18   19 1    
    38   18   67 1    
    39   18  143 1    
    40   19   20 am   BACKBONE|DICT|INTERRES
    41   19  144 1    
    42   20   21 2    
    43   20   22 1    
    44   22   23 1    
    45   22   24 1    
    46   22  145 1    
    47   23  146 1    
    48   23  147 1    
    49   23  148 1    
    50   24   25 am   BACKBONE|DICT|INTERRES
    51   24  149 1    
    52   25   26 2    
    53   25   27 1    
    54   27   28 1    
    55   27   29 1    
    56   27  150 1    
    57   28  151 1    
    58   28  152 1    
    59   28  153 1    
    60   29   30 am   BACKBONE|DICT|INTERRES
    61   29  154 1    
    62   30   31 2    
    63   30   32 1    
    64   32   33 1    
    65   32   34 1    
    66   32  155 1    
    67   33  156 1    
    68   33  157 1    
    69   33  158 1    
    70   34   35 am   BACKBONE|DICT|INTERRES
    71   34  159 1    
    72   35   36 2    
    73   35   37 1    
    74   37   38 1    
    75   37   39 1    
    76   37  160 1    
    77   38  161 1    
    78   38  162 1    
    79   38  163 1    
    80   39   40 am   BACKBONE|DICT|INTERRES
    81   39  164 1    
    82   40   41 2    
    83   40   42 1    
    84   42   43 1    
    85   42   44 1    
    86   42  165 1    
    87   43  166 1    
    88   43  167 1    
    89   43  168 1    
    90   44   45 am   BACKBONE|DICT|INTERRES
    91   44  169 1    
    92   45   46 2    
    93   45   47 1    
    94   47   48 1    
    95   47   49 1    
    96   47  170 1    
    97   48  171 1    
    98   48  172 1    
    99   48  173 1    
   100   49   50 am   BACKBONE|DICT|INTERRES
   101   49  174 1    
   102   50   51 2    
   103   50   52 1    
   104   52   53 1    
   105   52   54 1    
   106   52  175 1    
   107   53  176 1    
   108   53  177 1    
   109   53  178 1    
   110   54   55 am   BACKBONE|DICT|INTERRES
   111   54  179 1    
   112   55   56 2    
   113   55   57 1    
   114   57   58 1    
   115   57   59 1    
   116   57  180 1    
   117   58  181 1    
   118   58  182 1    
   119   58  183 1    
   120   59   60 am   BACKBONE|DICT|INTERRES
   121   59  184 1    
   122   60   61 2    
   123   60   62 1    
   124   62   63 1    
   125   62   64 1    
   126   62  185 1    
   127   63  186 1    
   128   63  187 1    
   129   63  188 1    
   130   64   65 am   BACKBONE|DICT|INTERRES
   131   64  189 1    
   132   65   66 2    
   133   67   68 2    
   134   67   69 am   BACKBONE|DICT|INTERRES
   135   69   70 1    
   136   69  190 1    
   137   70   71 1    
   138   70   72 1    
   139   70  191 1    
   140   71  192 1    
   141   71  193 1    
   142   71  194 1    
   143   72   73 2    
   144   72   74 am   BACKBONE|DICT|INTERRES
   145   74   75 1    
   146   74  195 1    
   147   75   76 1    
   148   75   77 1    
   149   75  196 1    
   150   76  197 1    
   151   76  198 1    
   152   76  199 1    
   153   77   78 2    
   154   77   79 am   BACKBONE|DICT|INTERRES
   155   79   80 1    
   156   79  200 1    
   157   80   81 1    
   158   80   82 1    
   159   80  201 1    
   160   81  202 1    
   161   81  203 1    
   162   81  204 1    
   163   82   83 2    
   164   82   84 am   BACKBONE|DICT|INTERRES
   165   84   85 1    
   166   84  205 1    
   167   85   86 1    
   168   85   87 1    
   169   85  206 1    
   170   86  207 1    
   171   86  208 1    
   172   86  209 1    
   173   87   88 2    
   174   87   89 am   BACKBONE|DICT|INTERRES
   175   89   90 1    
   176   89  210 1    
   177   90   91 1    
   178   90   92 1    
   179   90  211 1    
   180   91  212 1    
   181   91  213 1    
   182   91  214 1    
   183   92   93 2    
   184   92   94 am   BACKBONE|DICT|INTERRES
   185   94   95 1    
   186   94  215 1    
   187   95   96 1    
   188   95   97 1    
   189   95  216 1    
   190   96  217 1    
   191   96  218 1    
   192   96  219 1    
   193   97   98 2    
   194   97   99 am   BACKBONE|DICT|INTERRES
   195   99  100 1    
   196   99  220 1    
   197  100  101 1    
   198  100  102 1    
   199  100  221 1    
   200  101  222 1    
   201  101  223 1    
   202  101  224 1    
   203  102  103 2    
   204  102  104 am   BACKBONE|DICT|INTERRES
   205  104  105 1    
   206  104  225 1    
   207  105  106 1    
   208  105  107 1    
   209  105  226 1    
   210  106  227 1    
   211  106  228 1    
   212  106  229 1    
   213  107  108 2    
   214  107  109 am   BACKBONE|DICT|INTERRES
   215  109  110 1    
   216  109  230 1    
   217  110  111 1    
   218  110  112 1    
   219  110  231 1    
   220  111  232 1    
   221  111  233 1    
   222  111  234 1    
   223  112  113 2    
   224  112  114 am   BACKBONE|DICT|INTERRES
   225  114  115 1    
   226  114  235 1    
   227  115  116 1    
   228  115  117 1    
   229  115  236 1    
   230  116  237 1    
   231  116  238 1    
   232  116  239 1    
   233  117  118 2    
   234  117  119 am   BACKBONE|DICT|INTERRES
   235  119  120 1    
   236  119  240 1    
   237  120  121 1    
   238  120  124 1    
   239  120  241 1    
   240  121  122 am   BACKBONE|DICT|INTERRES
   241  121  123 2    
   242  122  242 1    
   243  122  243 1    
   244  124  125 1    
   245  124  244 1    
   246  124  245 1    
   247  125  126 1    
   248  126  246 1    
   249  126  247 1    
@<TRIPOS>SUBSTRUCTURE
     1 UNK         1 GROUP             0       ****    0 ROOT    
