@<TRIPOS>MOLECULE
3R540
247   249    1
SMALL
USER_CHARGES


@<TRIPOS>ATOM
      1 CA          0.7219   -9.5550  -50.5146 C.3       0 UNK        -0.1800 
      2 C           0.5638  -11.0301  -50.1735 C.2       0 UNK         0.5000 
      3 O           1.3580  -11.8533  -50.6284 O.2       0 UNK        -0.5000 
      4 N          -0.4554  -11.3666  -49.3768 N.am      1 UNK        -0.5000 
      5 CA         -0.7555  -12.7254  -48.9294 C.3       1 UNK         0.1400 
      6 C6         -1.4957  -13.5623  -50.0092 C.3       23 UNK        -0.0398 
      7 S7         -1.1754  -15.3503  -49.8441 S.3       23 UNK        -0.2404 
      8 C8          0.3881  -15.4709  -50.7668 C.3       23 UNK        -0.0205 
      9 C9          0.7867  -16.9171  -51.0009 C.ar      23 UNK        -0.0193 
     10 C10         0.3831  -17.5686  -52.1687 C.ar      23 UNK        -0.1150 
     11 C11         0.7498  -18.8954  -52.4003 C.ar      23 UNK        -0.0193 
     12 C12         1.5429  -19.5648  -51.4652 C.ar      23 UNK        -0.1150 
     13 C13         1.9460  -18.9285  -50.2865 C.ar      23 UNK        -0.0193 
     14 C14         1.5627  -17.6021  -50.0608 C.ar      23 UNK        -0.1150 
     15 C15         2.8096  -19.6580  -49.2627 C.3       23 UNK        -0.0205 
     16 S16         2.1779  -21.3114  -48.8196 S.3       23 UNK        -0.2404 
     17 C17         0.5390  -20.8969  -48.1417 C.3       23 UNK        -0.0398 
     18 CA         -0.0729  -22.0771  -47.3491 C.3       11 UNK         0.1400 
     19 N           0.6391  -22.3214  -46.0992 N.am      11 UNK        -0.5000 
     20 C           0.9347  -23.5213  -45.5878 C.2       10 UNK         0.5000 
     21 O           0.6274  -24.5856  -46.1284 O.2       10 UNK        -0.5000 
     22 CA          1.6966  -23.5221  -44.2433 C.3       10 UNK         0.1400 
     23 CB          2.3495  -24.8796  -43.9090 C.3       10 UNK        -0.1800 
     24 N           2.6661  -22.4264  -44.1385 N.am      10 UNK        -0.5000 
     25 C           3.7627  -22.2147  -44.8820 C.2       9 UNK         0.5000 
     26 O           4.1849  -23.0074  -45.7245 O.2       9 UNK        -0.5000 
     27 CA          4.5154  -20.8830  -44.6642 C.3       9 UNK         0.1400 
     28 CB          4.3456  -19.9663  -45.8852 C.3       9 UNK        -0.1800 
     29 N           4.0789  -20.1507  -43.4729 N.am      9 UNK        -0.5000 
     30 C           4.4414  -20.4395  -42.2161 C.2       8 UNK         0.5000 
     31 O           5.2492  -21.3215  -41.9230 O.2       8 UNK        -0.5000 
     32 CA          3.7549  -19.6322  -41.0959 C.3       8 UNK         0.1400 
     33 CB          4.5162  -18.3278  -40.8154 C.3       8 UNK        -0.1800 
     34 N           2.3513  -19.3284  -41.3894 N.am      8 UNK        -0.5000 
     35 C           1.3854  -20.2522  -41.5033 C.2       7 UNK         0.5000 
     36 O           1.5680  -21.4563  -41.3253 O.2       7 UNK        -0.5000 
     37 CA         -0.0061  -19.7633  -41.9415 C.3       7 UNK         0.1400 
     38 CB         -0.7972  -19.2370  -40.7350 C.3       7 UNK        -0.1800 
     39 N           0.0498  -18.7452  -42.9934 N.am      7 UNK        -0.5000 
     40 C           0.5511  -18.9529  -44.2200 C.2       6 UNK         0.5000 
     41 O           0.9966  -20.0339  -44.5945 O.2       6 UNK        -0.5000 
     42 CA          0.6392  -17.7494  -45.1725 C.3       6 UNK         0.1400 
     43 CB         -0.7078  -17.4674  -45.8440 C.3       6 UNK        -0.1800 
     44 N           1.1162  -16.5440  -44.5033 N.am      6 UNK        -0.5000 
     45 C           2.3353  -16.4113  -43.9645 C.2       5 UNK         0.5000 
     46 O           3.2069  -17.2795  -44.0154 O.2       5 UNK        -0.5000 
     47 CA          2.6007  -15.1071  -43.1964 C.3       5 UNK         0.1400 
     48 CB          2.9126  -13.9538  -44.1624 C.3       5 UNK        -0.1800 
     49 N           1.4696  -14.7425  -42.3427 N.am      5 UNK        -0.5000 
     50 C           1.0992  -15.4216  -41.2479 C.2       4 UNK         0.5000 
     51 O           1.6876  -16.4184  -40.8279 O.2       4 UNK        -0.5000 
     52 CA         -0.1619  -14.9188  -40.5215 C.3       4 UNK         0.1400 
     53 CB          0.1757  -13.7339  -39.6042 C.3       4 UNK        -0.1800 
     54 N          -1.2296  -14.5302  -41.4453 N.am      4 UNK        -0.5000 
     55 C          -1.8939  -15.3899  -42.2301 C.2       3 UNK         0.5000 
     56 O          -1.6812  -16.5997  -42.2515 O.2       3 UNK        -0.5000 
     57 CA         -2.9402  -14.7975  -43.1886 C.3       3 UNK         0.1400 
     58 CB         -4.2896  -14.6158  -42.4787 C.3       3 UNK        -0.1800 
     59 N          -2.5328  -13.5300  -43.7983 N.am      3 UNK        -0.5000 
     60 C          -1.4480  -13.3706  -44.5665 C.2       2 UNK         0.5000 
     61 O          -0.6099  -14.2528  -44.7682 O.2       2 UNK        -0.5000 
     62 CA         -1.2504  -11.9821  -45.1970 C.3       2 UNK         0.1400 
     63 CB         -0.2390  -11.1626  -44.3811 C.3       2 UNK        -0.1800 
     64 N          -0.7784  -12.0932  -46.5766 N.am      2 UNK        -0.5000 
     65 C          -1.4881  -12.6248  -47.5818 C.2       1 UNK         0.5000 
     66 O          -2.6693  -12.9602  -47.4798 O.2       1 UNK        -0.5000 
     67 C          -1.5565  -21.8005  -47.0501 C.2       11 UNK         0.5000 
     68 O          -1.8737  -20.9667  -46.2010 O.2       11 UNK        -0.5000 
     69 N          -2.4368  -22.4706  -47.8021 N.am      12 UNK        -0.5000 
     70 CA         -3.8927  -22.3016  -47.7699 C.3       12 UNK         0.1400 
     71 CB         -4.5204  -23.6035  -48.2873 C.3       12 UNK        -0.1800 
     72 C          -4.3964  -21.1127  -48.6160 C.2       12 UNK         0.5000 
     73 O          -5.5871  -20.7981  -48.5674 O.2       12 UNK        -0.5000 
     74 N          -3.4989  -20.4991  -49.3995 N.am      13 UNK        -0.5000 
     75 CA         -3.7938  -19.4923  -50.4197 C.3       13 UNK         0.1400 
     76 CB         -2.5055  -19.1832  -51.1921 C.3       13 UNK        -0.1800 
     77 C          -4.4309  -18.1949  -49.8896 C.2       13 UNK         0.5000 
     78 O          -5.2568  -17.6096  -50.5894 O.2       13 UNK        -0.5000 
     79 N          -4.0736  -17.7829  -48.6641 N.am      14 UNK        -0.5000 
     80 CA         -4.6364  -16.5960  -48.0090 C.3       14 UNK         0.1400 
     81 CB         -3.7712  -16.2060  -46.8042 C.3       14 UNK        -0.1800 
     82 C          -6.1018  -16.7906  -47.5766 C.2       14 UNK         0.5000 
     83 O          -6.8768  -15.8343  -47.6039 O.2       14 UNK        -0.5000 
     84 N          -6.4587  -18.0291  -47.2090 N.am      15 UNK        -0.5000 
     85 CA         -7.8323  -18.4419  -46.9139 C.3       15 UNK         0.1400 
     86 CB         -7.7918  -19.6593  -45.9759 C.3       15 UNK        -0.1800 
     87 C          -8.6250  -18.7784  -48.1925 C.2       15 UNK         0.5000 
     88 O          -9.8543  -18.8276  -48.1453 O.2       15 UNK        -0.5000 
     89 N          -7.9008  -19.0279  -49.2944 N.am      16 UNK        -0.5000 
     90 CA         -8.3668  -19.4844  -50.6066 C.3       16 UNK         0.1400 
     91 CB         -9.2783  -18.4324  -51.2711 C.3       16 UNK        -0.1800 
     92 C          -8.9967  -20.8925  -50.5595 C.2       16 UNK         0.5000 
     93 O          -9.8443  -21.2174  -51.3928 O.2       16 UNK        -0.5000 
     94 N          -8.5679  -21.7082  -49.5854 N.am      17 UNK        -0.5000 
     95 CA         -9.0537  -23.0732  -49.3753 C.3       17 UNK         0.1400 
     96 CB         -8.8068  -23.4759  -47.9133 C.3       17 UNK        -0.1800 
     97 C          -8.4254  -24.0847  -50.3534 C.2       17 UNK         0.5000 
     98 O          -9.0305  -25.1234  -50.6214 O.2       17 UNK        -0.5000 
     99 N          -7.2444  -23.7537  -50.8862 N.am      18 UNK        -0.5000 
    100 CA        -6.5255  -24.4800  -51.9255 C.3       18 UNK         0.1400 
    101 CB        -5.8554  -25.7407  -51.3449 C.3       18 UNK        -0.1800 
    102 C         -5.4935  -23.5268  -52.5467 C.2       18 UNK         0.5000 
    103 O         -5.2240  -22.4624  -51.9826 O.2       18 UNK        -0.5000 
    104 N         -4.9260  -23.9302  -53.6908 N.am      19 UNK        -0.5000 
    105 CA        -3.9087  -23.1736  -54.4299 C.3       19 UNK         0.1400 
    106 CB        -3.7680  -23.7688  -55.8396 C.3       19 UNK        -0.1800 
    107 C         -2.5341  -23.1271  -53.7340 C.2       19 UNK         0.5000 
    108 O         -1.7311  -22.2521  -54.0561 O.2       19 UNK        -0.5000 
    109 N         -2.2885  -24.0628  -52.8039 N.am      20 UNK        -0.5000 
    110 CA        -1.0651  -24.2185  -52.0130 C.3       20 UNK         0.1400 
    111 CB        -0.9123  -23.0310  -51.0350 C.3       20 UNK        -0.1800 
    112 C          0.1743  -24.4611  -52.9027 C.2       20 UNK         0.5000 
    113 O          0.0722  -25.1656  -53.9106 O.2       20 UNK        -0.5000 
    114 N          1.3173  -23.8663  -52.5330 N.am      21 UNK        -0.5000 
    115 CA         2.5962  -23.9540  -53.2463 C.3       21 UNK         0.1400 
    116 CB         3.6775  -23.2601  -52.4025 C.3       21 UNK        -0.1800 
    117 C          2.5713  -23.3710  -54.6757 C.2       21 UNK         0.5000 
    118 O          3.4537  -23.6919  -55.4729 O.2       21 UNK        -0.5000 
    119 N          1.5658  -22.5403  -54.9751 N.am      22 UNK        -0.5000 
    120 CA         1.3085  -21.9641  -56.3023 C.3       22 UNK         0.1400 
    121 C          0.5717  -22.9378  -57.2703 C.2       22 UNK         0.5000 
    122 N          0.0890  -24.0939  -56.8252 N.am      22 UNK        -0.7600 
    123 O          0.4443  -22.6420  -58.4552 O.2       22 UNK        -0.5000 
    124 C124        0.5606  -20.6070  -56.2128 C.3       23 UNK        -0.0398 
    125 S125        1.3417  -19.4177  -55.0640 S.3       23 UNK        -0.2404 
    126 C126        0.2435  -19.6239  -53.6308 C.3       23 UNK        -0.0205 
    127 H127       -0.0493   -8.9446  -50.0440 H         1 UNK         0.0600 
    128 H128        0.6585   -9.4106  -51.5931 H         1 UNK         0.0600 
    129 H129        1.6937   -9.1942  -50.1777 H         1 UNK         0.0600 
    130 H130       -1.0712  -10.6495  -49.0167 H         1 UNK         0.3000 
    131 H131        0.1975  -13.2132  -48.7123 H         1 UNK         0.0600 
    132 H132       -2.5724  -13.3867  -49.9933 H         1 UNK         0.0800 
    133 H133       -1.1786  -13.2594  -51.0076 H         1 UNK         0.0800 
    134 H134        1.1754  -14.9489  -50.2210 H         1 UNK         0.0800 
    135 H135        0.2911  -14.9594  -51.7257 H         1 UNK         0.0800 
    136 H136       -0.2309  -17.0485  -52.8905 H         1 UNK         0.1150 
    137 H137        1.8311  -20.5898  -51.6460 H         1 UNK         0.1150 
    138 H138        1.8708  -17.0971  -49.1559 H         1 UNK         0.1150 
    139 H139        3.8158  -19.7659  -49.6691 H         1 UNK         0.0800 
    140 H140        2.9072  -19.0647  -48.3529 H         1 UNK         0.0800 
    141 H141       -0.0973  -20.6179  -48.9837 H         1 UNK         0.0800 
    142 H142        0.6237  -20.0102  -47.5111 H         1 UNK         0.0800 
    143 H143       -0.0110  -22.9701  -47.9737 H         1 UNK         0.0600 
    144 H144        0.8620  -21.4907  -45.5508 H         1 UNK         0.3000 
    145 H145        0.9455  -23.3261  -43.4769 H         1 UNK         0.0600 
    146 H146        2.8726  -24.8398  -42.9535 H         1 UNK         0.0600 
    147 H147        1.5973  -25.6656  -43.8336 H         1 UNK         0.0600 
    148 H148        3.0650  -25.1864  -44.6721 H         1 UNK         0.0600 
    149 H149        2.4054  -21.6910  -43.4947 H         1 UNK         0.3000 
    150 H150        5.5763  -21.1196  -44.5614 H         1 UNK         0.0600 
    151 H151        4.6970  -20.4542  -46.7952 H         1 UNK         0.0600 
    152 H152        4.9135  -19.0430  -45.7697 H         1 UNK         0.0600 
    153 H153        3.3002  -19.6990  -46.0385 H         1 UNK         0.0600 
    154 H154        3.4501  -19.3703  -43.6282 H         1 UNK         0.3000 
    155 H155        3.7813  -20.2397  -40.1889 H         1 UNK         0.0600 
    156 H156        5.5590  -18.5297  -40.5676 H         1 UNK         0.0600 
    157 H157        4.0797  -17.7907  -39.9732 H         1 UNK         0.0600 
    158 H158        4.5066  -17.6608  -41.6775 H         1 UNK         0.0600 
    159 H159        2.1115  -18.3498  -41.5082 H         1 UNK         0.3000 
    160 H160       -0.5433  -20.6236  -42.3463 H         1 UNK         0.0600 
    161 H161       -1.8268  -19.0082  -41.0097 H         1 UNK         0.0600 
    162 H162       -0.3496  -18.3318  -40.3239 H         1 UNK         0.0600 
    163 H163       -0.8336  -19.9787  -39.9361 H         1 UNK         0.0600 
    164 H164       -0.3548  -17.8404  -42.7671 H         1 UNK         0.3000 
    165 H165        1.3574  -17.9999  -45.9561 H         1 UNK         0.0600 
    166 H166       -0.6111  -16.6722  -46.5834 H         1 UNK         0.0600 
    167 H167       -1.0850  -18.3500  -46.3608 H         1 UNK         0.0600 
    168 H168       -1.4582  -17.1626  -45.1145 H         1 UNK         0.0600 
    169 H169        0.4674  -15.7621  -44.4509 H         1 UNK         0.3000 
    170 H170        3.4735  -15.2641  -42.5590 H         1 UNK         0.0600 
    171 H171        3.1374  -13.0348  -43.6209 H         1 UNK         0.0600 
    172 H172        3.7812  -14.1887  -44.7788 H         1 UNK         0.0600 
    173 H173        2.0795  -13.7517  -44.8363 H         1 UNK         0.0600 
    174 H174        0.8960  -13.9725  -42.6522 H         1 UNK         0.3000 
    175 H175       -0.5332  -15.7354  -39.8985 H         1 UNK         0.0600 
    176 H176        0.9601  -14.0014  -38.8948 H         1 UNK         0.0600 
    177 H177        0.5258  -12.8702  -40.1708 H         1 UNK         0.0600 
    178 H178       -0.6938  -13.4249  -39.0237 H         1 UNK         0.0600 
    179 H179       -1.4625  -13.5495  -41.4954 H         1 UNK         0.3000 
    180 H180       -3.0795  -15.5181  -43.9963 H         1 UNK         0.0600 
    181 H181       -4.6232  -15.5520  -42.0288 H         1 UNK         0.0600 
    182 H182       -4.2305  -13.8718  -41.6833 H         1 UNK         0.0600 
    183 H183       -5.0638  -14.3002  -43.1784 H         1 UNK         0.0600 
    184 H184       -3.1627  -12.7507  -43.6736 H         1 UNK         0.3000 
    185 H185       -2.2056  -11.4528  -45.2046 H         1 UNK         0.0600 
    186 H186       -0.5713  -11.0464  -43.3487 H         1 UNK         0.0600 
    187 H187        0.7423  -11.6378  -44.3584 H         1 UNK         0.0600 
    188 H188       -0.1168  -10.1619  -44.7959 H         1 UNK         0.0600 
    189 H189        0.1836  -11.8377  -46.7440 H         1 UNK         0.3000 
    190 H190       -2.0939  -23.1680  -48.4460 H         1 UNK         0.3000 
    191 H191       -4.2188  -22.1384  -46.7406 H         1 UNK         0.0600 
    192 H192       -4.2489  -24.4526  -47.6598 H         1 UNK         0.0600 
    193 H193       -4.1954  -23.8176  -49.3055 H         1 UNK         0.0600 
    194 H194       -5.6071  -23.5445  -48.2998 H         1 UNK         0.0600 
    195 H195       -2.5496  -20.8319  -49.3680 H         1 UNK         0.3000 
    196 H196       -4.5065  -19.9370  -51.1174 H         1 UNK         0.0600 
    197 H197       -1.7249  -18.8029  -50.5319 H         1 UNK         0.0600 
    198 H198       -2.6786  -18.4305  -51.9624 H         1 UNK         0.0600 
    199 H199       -2.1231  -20.0733  -51.6917 H         1 UNK         0.0600 
    200 H200       -3.3864  -18.3150  -48.1513 H         1 UNK         0.3000 
    201 H201       -4.6095  -15.7674  -48.7204 H         1 UNK         0.0600 
    202 H202       -4.1877  -15.3397  -46.2882 H         1 UNK         0.0600 
    203 H203       -3.6961  -17.0180  -46.0806 H         1 UNK         0.0600 
    204 H204       -2.7669  -15.9294  -47.1220 H         1 UNK         0.0600 
    205 H205       -5.7652  -18.7633  -47.2376 H         1 UNK         0.3000 
    206 H206       -8.3531  -17.6309  -46.4005 H         1 UNK         0.0600 
    207 H207       -7.2680  -19.4254  -45.0490 H         1 UNK         0.0600 
    208 H208       -8.7995  -19.9789  -45.7071 H         1 UNK         0.0600 
    209 H209       -7.2917  -20.5112  -46.4382 H         1 UNK         0.0600 
    210 H210       -6.8957  -18.9919  -49.1924 H         1 UNK         0.3000 
    211 H211       -7.4720  -19.5790  -51.2236 H         1 UNK         0.0600 
    212 H212       -9.4931  -18.6996  -52.3063 H         1 UNK         0.0600 
    213 H213       -8.8023  -17.4518  -51.2828 H         1 UNK         0.0600 
    214 H214      -10.2336  -18.3369  -50.7545 H         1 UNK         0.0600 
    215 H215       -7.8410  -21.3745  -48.9653 H         1 UNK         0.3000 
    216 H216      -10.1325  -23.0889  -49.5447 H         1 UNK         0.0600 
    217 H217       -9.1383  -24.4983  -47.7269 H         1 UNK         0.0600 
    218 H218       -9.3578  -22.8275  -47.2317 H         1 UNK         0.0600 
    219 H219       -7.7533  -23.4173  -47.6452 H         1 UNK         0.0600 
    220 H220       -6.8239  -22.8627  -50.6507 H         1 UNK         0.3000 
    221 H221       -7.2329  -24.7680  -52.7058 H         1 UNK         0.0600 
    222 H222       -5.1360  -25.4960  -50.5649 H         1 UNK         0.0600 
    223 H223       -6.5912  -26.4201  -50.9148 H         1 UNK         0.0600 
    224 H224       -5.3240  -26.2967  -52.1178 H         1 UNK         0.0600 
    225 H225       -5.2047  -24.8143  -54.0919 H         1 UNK         0.3000 
    226 H226       -4.2552  -22.1426  -54.5280 H         1 UNK         0.0600 
    227 H227       -3.0382  -23.2108  -56.4285 H         1 UNK         0.0600 
    228 H228       -3.4350  -24.8070  -55.8064 H         1 UNK         0.0600 
    229 H229       -4.7140  -23.7344  -56.3801 H         1 UNK         0.0600 
    230 H230       -2.9990  -24.7630  -52.6537 H         1 UNK         0.3000 
    231 H231       -1.1970  -25.1246  -51.4203 H         1 UNK         0.0600 
    232 H232       -1.8409  -22.8601  -50.4932 H         1 UNK         0.0600 
    233 H233       -0.6616  -22.1032  -51.5496 H         1 UNK         0.0600 
    234 H234       -0.1321  -23.2248  -50.2996 H         1 UNK         0.0600 
    235 H235        1.3171  -23.3083  -51.6920 H         1 UNK         0.3000 
    236 H236        2.8545  -25.0112  -53.3331 H         1 UNK         0.0600 
    237 H237        3.7475  -23.6994  -51.4071 H         1 UNK         0.0600 
    238 H238        4.6589  -23.3580  -52.8685 H         1 UNK         0.0600 
    239 H239        3.4766  -22.1948  -52.2864 H         1 UNK         0.0600 
    240 H240        0.8601  -22.3628  -54.2760 H         1 UNK         0.3000 
    241 H241        2.2760  -21.7616  -56.7655 H         1 UNK         0.0600 
    242 H242       -0.3753  -24.7141  -57.4690 H         1 UNK         0.3800 
    243 H243        0.1774  -24.3585  -55.8511 H         1 UNK         0.3800 
    244 H244        0.5260  -20.1365  -57.1968 H         1 UNK         0.0800 
    245 H245       -0.4800  -20.7615  -55.9228 H         1 UNK         0.0800 
    246 H246        0.1518  -20.6831  -53.3978 H         1 UNK         0.0800 
    247 H247       -0.7595  -19.2786  -53.8863 H         1 UNK         0.0800 
@<TRIPOS>BOND
     1    1    2 1    
     2    1  127 1    
     3    1  128 1    
     4    1  129 1    
     5    2    3 2    
     6    2    4 am   BACKBONE|DICT|INTERRES
     7    4    5 1    
     8    4  130 1    
     9    5    6 1    
    10    5   65 1    
    11    5  131 1    
    12    6    7 1    
    13    6  132 1    
    14    6  133 1    
    15    7    8 1    
    16    8    9 1    
    17    8  134 1    
    18    8  135 1    
    19    9   10 ar   
    20    9   14 ar   
    21   10   11 ar   
    22   10  136 1    
    23   11   12 ar   
    24   11  126 1    
    25   12   13 ar   
    26   12  137 1    
    27   13   14 ar   
    28   13   15 1    
    29   14  138 1    
    30   15   16 1    
    31   15  139 1    
    32   15  140 1    
    33   16   17 1    
    34   17   18 1    
    35   17  141 1    
    36   17  142 1    
    37   18   19 1    
    38   18   67 1    
    39   18  143 1    
    40   19   20 am   BACKBONE|DICT|INTERRES
    41   19  144 1    
    42   20   21 2    
    43   20   22 1    
    44   22   23 1    
    45   22   24 1    
    46   22  145 1    
    47   23  146 1    
    48   23  147 1    
    49   23  148 1    
    50   24   25 am   BACKBONE|DICT|INTERRES
    51   24  149 1    
    52   25   26 2    
    53   25   27 1    
    54   27   28 1    
    55   27   29 1    
    56   27  150 1    
    57   28  151 1    
    58   28  152 1    
    59   28  153 1    
    60   29   30 am   BACKBONE|DICT|INTERRES
    61   29  154 1    
    62   30   31 2    
    63   30   32 1    
    64   32   33 1    
    65   32   34 1    
    66   32  155 1    
    67   33  156 1    
    68   33  157 1    
    69   33  158 1    
    70   34   35 am   BACKBONE|DICT|INTERRES
    71   34  159 1    
    72   35   36 2    
    73   35   37 1    
    74   37   38 1    
    75   37   39 1    
    76   37  160 1    
    77   38  161 1    
    78   38  162 1    
    79   38  163 1    
    80   39   40 am   BACKBONE|DICT|INTERRES
    81   39  164 1    
    82   40   41 2    
    83   40   42 1    
    84   42   43 1    
    85   42   44 1    
    86   42  165 1    
    87   43  166 1    
    88   43  167 1    
    89   43  168 1    
    90   44   45 am   BACKBONE|DICT|INTERRES
    91   44  169 1    
    92   45   46 2    
    93   45   47 1    
    94   47   48 1    
    95   47   49 1    
    96   47  170 1    
    97   48  171 1    
    98   48  172 1    
    99   48  173 1    
   100   49   50 am   BACKBONE|DICT|INTERRES
   101   49  174 1    
   102   50   51 2    
   103   50   52 1    
   104   52   53 1    
   105   52   54 1    
   106   52  175 1    
   107   53  176 1    
   108   53  177 1    
   109   53  178 1    
   110   54   55 am   BACKBONE|DICT|INTERRES
   111   54  179 1    
   112   55   56 2    
   113   55   57 1    
   114   57   58 1    
   115   57   59 1    
   116   57  180 1    
   117   58  181 1    
   118   58  182 1    
   119   58  183 1    
   120   59   60 am   BACKBONE|DICT|INTERRES
   121   59  184 1    
   122   60   61 2    
   123   60   62 1    
   124   62   63 1    
   125   62   64 1    
   126   62  185 1    
   127   63  186 1    
   128   63  187 1    
   129   63  188 1    
   130   64   65 am   BACKBONE|DICT|INTERRES
   131   64  189 1    
   132   65   66 2    
   133   67   68 2    
   134   67   69 am   BACKBONE|DICT|INTERRES
   135   69   70 1    
   136   69  190 1    
   137   70   71 1    
   138   70   72 1    
   139   70  191 1    
   140   71  192 1    
   141   71  193 1    
   142   71  194 1    
   143   72   73 2    
   144   72   74 am   BACKBONE|DICT|INTERRES
   145   74   75 1    
   146   74  195 1    
   147   75   76 1    
   148   75   77 1    
   149   75  196 1    
   150   76  197 1    
   151   76  198 1    
   152   76  199 1    
   153   77   78 2    
   154   77   79 am   BACKBONE|DICT|INTERRES
   155   79   80 1    
   156   79  200 1    
   157   80   81 1    
   158   80   82 1    
   159   80  201 1    
   160   81  202 1    
   161   81  203 1    
   162   81  204 1    
   163   82   83 2    
   164   82   84 am   BACKBONE|DICT|INTERRES
   165   84   85 1    
   166   84  205 1    
   167   85   86 1    
   168   85   87 1    
   169   85  206 1    
   170   86  207 1    
   171   86  208 1    
   172   86  209 1    
   173   87   88 2    
   174   87   89 am   BACKBONE|DICT|INTERRES
   175   89   90 1    
   176   89  210 1    
   177   90   91 1    
   178   90   92 1    
   179   90  211 1    
   180   91  212 1    
   181   91  213 1    
   182   91  214 1    
   183   92   93 2    
   184   92   94 am   BACKBONE|DICT|INTERRES
   185   94   95 1    
   186   94  215 1    
   187   95   96 1    
   188   95   97 1    
   189   95  216 1    
   190   96  217 1    
   191   96  218 1    
   192   96  219 1    
   193   97   98 2    
   194   97   99 am   BACKBONE|DICT|INTERRES
   195   99  100 1    
   196   99  220 1    
   197  100  101 1    
   198  100  102 1    
   199  100  221 1    
   200  101  222 1    
   201  101  223 1    
   202  101  224 1    
   203  102  103 2    
   204  102  104 am   BACKBONE|DICT|INTERRES
   205  104  105 1    
   206  104  225 1    
   207  105  106 1    
   208  105  107 1    
   209  105  226 1    
   210  106  227 1    
   211  106  228 1    
   212  106  229 1    
   213  107  108 2    
   214  107  109 am   BACKBONE|DICT|INTERRES
   215  109  110 1    
   216  109  230 1    
   217  110  111 1    
   218  110  112 1    
   219  110  231 1    
   220  111  232 1    
   221  111  233 1    
   222  111  234 1    
   223  112  113 2    
   224  112  114 am   BACKBONE|DICT|INTERRES
   225  114  115 1    
   226  114  235 1    
   227  115  116 1    
   228  115  117 1    
   229  115  236 1    
   230  116  237 1    
   231  116  238 1    
   232  116  239 1    
   233  117  118 2    
   234  117  119 am   BACKBONE|DICT|INTERRES
   235  119  120 1    
   236  119  240 1    
   237  120  121 1    
   238  120  124 1    
   239  120  241 1    
   240  121  122 am   BACKBONE|DICT|INTERRES
   241  121  123 2    
   242  122  242 1    
   243  122  243 1    
   244  124  125 1    
   245  124  244 1    
   246  124  245 1    
   247  125  126 1    
   248  126  246 1    
   249  126  247 1    
@<TRIPOS>SUBSTRUCTURE
     1 UNK         1 GROUP             0       ****    0 ROOT    
