@<TRIPOS>MOLECULE
3R540
247   249    1
SMALL
USER_CHARGES


@<TRIPOS>ATOM
      1 CA         -2.2081   -9.4308  -46.7084 C.3       0 UNK        -0.1800 
      2 C          -1.8086   -9.9144  -48.0954 C.2       0 UNK         0.5000 
      3 O          -1.1350   -9.1891  -48.8271 O.2       0 UNK        -0.5000 
      4 N          -2.2203  -11.1373  -48.4557 N.am      1 UNK        -0.5000 
      5 CA         -1.8971  -11.8033  -49.7257 C.3       1 UNK         0.1400 
      6 C6         -2.7890  -13.0559  -49.9175 C.3       23 UNK        -0.0398 
      7 S7         -2.8592  -13.6656  -51.6336 S.3       23 UNK        -0.2404 
      8 C8         -3.5501  -15.3350  -51.3725 C.3       23 UNK        -0.0205 
      9 C9         -2.6087  -16.2791  -50.6303 C.ar      23 UNK        -0.0193 
     10 C10        -1.2717  -16.4149  -51.0232 C.ar      23 UNK        -0.1150 
     11 C11        -0.4129  -17.2803  -50.3419 C.ar      23 UNK        -0.0193 
     12 C12        -0.9068  -18.0267  -49.2688 C.ar      23 UNK        -0.1150 
     13 C13        -2.2368  -17.9024  -48.8594 C.ar      23 UNK        -0.0193 
     14 C14        -3.0825  -17.0256  -49.5452 C.ar      23 UNK        -0.1150 
     15 C15        -2.7368  -18.6743  -47.6457 C.3       23 UNK        -0.0205 
     16 S16        -3.6893  -20.1449  -48.1237 S.3       23 UNK        -0.2404 
     17 C17        -3.6397  -21.1396  -46.5931 C.3       23 UNK        -0.0398 
     18 CA         -2.5453  -22.2296  -46.6830 C.3       11 UNK         0.1400 
     19 N          -1.1960  -21.6948  -46.4808 N.am      11 UNK        -0.5000 
     20 C          -0.0802  -22.3256  -46.8675 C.2       10 UNK         0.5000 
     21 O          -0.0741  -23.4200  -47.4279 O.2       10 UNK        -0.5000 
     22 CA          1.2529  -21.6429  -46.5275 C.3       10 UNK         0.1400 
     23 CB          1.5626  -20.5087  -47.5142 C.3       10 UNK        -0.1800 
     24 N           1.2888  -21.1432  -45.1517 N.am      10 UNK        -0.5000 
     25 C           1.3077  -21.9463  -44.0781 C.2       9 UNK         0.5000 
     26 O           1.2915  -23.1755  -44.1435 O.2       9 UNK        -0.5000 
     27 CA          1.3144  -21.2701  -42.6972 C.3       9 UNK         0.1400 
     28 CB          2.7450  -20.8793  -42.2971 C.3       9 UNK        -0.1800 
     29 N           0.4590  -20.0890  -42.6064 N.am      9 UNK        -0.5000 
     30 C          -0.8594  -20.0407  -42.8356 C.2       8 UNK         0.5000 
     31 O          -1.5100  -20.9971  -43.2572 O.2       8 UNK        -0.5000 
     32 CA         -1.5753  -18.6967  -42.5923 C.3       8 UNK         0.1400 
     33 CB         -2.8191  -18.8642  -41.6981 C.3       8 UNK        -0.1800 
     34 N          -0.7120  -17.6126  -42.1024 N.am      8 UNK        -0.5000 
     35 C          -0.0929  -17.4800  -40.9197 C.2       7 UNK         0.5000 
     36 O          -0.1551  -18.3083  -40.0119 O.2       7 UNK        -0.5000 
     37 CA          0.7801  -16.2200  -40.7364 C.3       7 UNK         0.1400 
     38 CB          2.2663  -16.5841  -40.8781 C.3       7 UNK        -0.1800 
     39 N           0.4618  -15.1596  -41.6971 N.am      7 UNK        -0.5000 
     40 C          -0.6202  -14.3704  -41.6281 C.2       6 UNK         0.5000 
     41 O          -1.4114  -14.3732  -40.6846 O.2       6 UNK        -0.5000 
     42 CA         -0.8927  -13.4720  -42.8495 C.3       6 UNK         0.1400 
     43 CB         -0.0262  -12.2040  -42.8111 C.3       6 UNK        -0.1800 
     44 N          -0.6685  -14.1757  -44.1135 N.am      6 UNK        -0.5000 
     45 C          -1.3850  -15.2230  -44.5488 C.2       5 UNK         0.5000 
     46 O          -2.3613  -15.6797  -43.9575 O.2       5 UNK        -0.5000 
     47 CA         -0.9016  -15.9036  -45.8371 C.3       5 UNK         0.1400 
     48 CB         -1.4147  -15.1338  -47.0612 C.3       5 UNK        -0.1800 
     49 N           0.5593  -15.9804  -45.8615 N.am      5 UNK        -0.5000 
     50 C           1.2771  -16.9861  -45.3384 C.2       4 UNK         0.5000 
     51 O           0.7793  -18.0276  -44.9101 O.2       4 UNK        -0.5000 
     52 CA          2.8083  -16.8128  -45.2644 C.3       4 UNK         0.1400 
     53 CB          3.5114  -17.7564  -46.2481 C.3       4 UNK        -0.1800 
     54 N           3.2547  -15.4432  -45.5196 N.am      4 UNK        -0.5000 
     55 C           3.1460  -14.4292  -44.6502 C.2       3 UNK         0.5000 
     56 O           2.6690  -14.5458  -43.5216 O.2       3 UNK        -0.5000 
     57 CA          3.5602  -13.0397  -45.1754 C.3       3 UNK         0.1400 
     58 CB          5.0754  -12.8342  -45.0348 C.3       3 UNK        -0.1800 
     59 N           3.1615  -12.8308  -46.5739 N.am      3 UNK        -0.5000 
     60 C           1.8885  -12.8345  -46.9885 C.2       2 UNK         0.5000 
     61 O           0.9311  -12.9557  -46.2180 O.2       2 UNK        -0.5000 
     62 CA          1.6388  -12.7785  -48.5024 C.3       2 UNK         0.1400 
     63 CB          1.9705  -14.1399  -49.1462 C.3       2 UNK        -0.1800 
     64 N           0.2308  -12.4557  -48.6957 N.am      2 UNK        -0.5000 
     65 C          -0.3891  -12.1387  -49.8379 C.2       1 UNK         0.5000 
     66 O           0.1787  -12.0691  -50.9288 O.2       1 UNK        -0.5000 
     67 C          -2.8295  -23.4289  -45.7601 C.2       11 UNK         0.5000 
     68 O          -3.5150  -24.3546  -46.1925 O.2       11 UNK        -0.5000 
     69 N          -2.2654  -23.4364  -44.5447 N.am      12 UNK        -0.5000 
     70 CA         -2.3089  -24.5782  -43.6309 C.3       12 UNK         0.1400 
     71 CB         -1.7437  -24.1709  -42.2618 C.3       12 UNK        -0.1800 
     72 C          -1.5660  -25.8056  -44.1927 C.2       12 UNK         0.5000 
     73 O          -2.1069  -26.9109  -44.1505 O.2       12 UNK        -0.5000 
     74 N          -0.3606  -25.5858  -44.7377 N.am      13 UNK        -0.5000 
     75 CA          0.4681  -26.6202  -45.3589 C.3       13 UNK         0.1400 
     76 CB          1.8838  -26.0708  -45.5917 C.3       13 UNK        -0.1800 
     77 C          -0.1253  -27.1595  -46.6734 C.2       13 UNK         0.5000 
     78 O          -0.1172  -28.3715  -46.8917 O.2       13 UNK        -0.5000 
     79 N          -0.6325  -26.2547  -47.5209 N.am      14 UNK        -0.5000 
     80 CA         -1.1969  -26.5704  -48.8350 C.3       14 UNK         0.1400 
     81 CB         -1.1275  -25.3117  -49.7127 C.3       14 UNK        -0.1800 
     82 C          -2.6416  -27.1041  -48.7884 C.2       14 UNK         0.5000 
     83 O          -3.1555  -27.5048  -49.8324 O.2       14 UNK        -0.5000 
     84 N          -3.2856  -27.0660  -47.6122 N.am      15 UNK        -0.5000 
     85 CA         -4.6939  -27.4023  -47.3676 C.3       15 UNK         0.1400 
     86 CB         -4.9523  -28.9078  -47.5853 C.3       15 UNK        -0.1800 
     87 C          -5.6420  -26.4921  -48.1776 C.2       15 UNK         0.5000 
     88 O          -6.5137  -26.9720  -48.9035 O.2       15 UNK        -0.5000 
     89 N          -5.4011  -25.1804  -48.0527 N.am      16 UNK        -0.5000 
     90 CA         -6.0815  -24.0449  -48.6840 C.3       16 UNK         0.1400 
     91 CB         -7.5889  -24.0394  -48.3617 C.3       16 UNK        -0.1800 
     92 C          -5.8167  -23.8728  -50.1935 C.2       16 UNK         0.5000 
     93 O          -6.2683  -22.8778  -50.7591 O.2       16 UNK        -0.5000 
     94 N          -5.0605  -24.7811  -50.8291 N.am      17 UNK        -0.5000 
     95 CA         -4.7307  -24.7181  -52.2597 C.3       17 UNK         0.1400 
     96 CB         -4.0931  -26.0434  -52.7000 C.3       17 UNK        -0.1800 
     97 C          -3.8280  -23.5247  -52.6374 C.2       17 UNK         0.5000 
     98 O          -3.8511  -23.0837  -53.7869 O.2       17 UNK        -0.5000 
     99 N          -3.0802  -22.9982  -51.6572 N.am      18 UNK        -0.5000 
    100 CA        -2.2428  -21.8050  -51.7861 C.3       18 UNK         0.1400 
    101 CB        -1.2539  -21.7471  -50.6119 C.3       18 UNK        -0.1800 
    102 C         -3.0394  -20.4893  -51.9003 C.2       18 UNK         0.5000 
    103 O         -2.4466  -19.4740  -52.2583 O.2       18 UNK        -0.5000 
    104 N         -4.3582  -20.5133  -51.6432 N.am      19 UNK        -0.5000 
    105 CA        -5.2445  -19.3460  -51.7240 C.3       19 UNK         0.1400 
    106 CB        -6.6475  -19.7304  -51.2352 C.3       19 UNK        -0.1800 
    107 C         -5.3143  -18.7000  -53.1229 C.2       19 UNK         0.5000 
    108 O         -5.6250  -17.5132  -53.2277 O.2       19 UNK        -0.5000 
    109 N         -4.9677  -19.4625  -54.1688 N.am      20 UNK        -0.5000 
    110 CA        -4.7639  -18.9965  -55.5404 C.3       20 UNK         0.1400 
    111 CB        -4.9276  -20.1965  -56.4904 C.3       20 UNK        -0.1800 
    112 C         -3.4007  -18.2838  -55.7095 C.2       20 UNK         0.5000 
    113 O         -2.6095  -18.6595  -56.5770 O.2       20 UNK        -0.5000 
    114 N         -3.1421  -17.2805  -54.8573 N.am      21 UNK        -0.5000 
    115 CA        -1.9589  -16.4092  -54.8180 C.3       21 UNK         0.1400 
    116 CB        -2.0020  -15.4198  -56.0003 C.3       21 UNK        -0.1800 
    117 C         -0.6137  -17.1659  -54.7246 C.2       21 UNK         0.5000 
    118 O          0.3796  -16.7231  -55.3045 O.2       21 UNK        -0.5000 
    119 N         -0.6112  -18.3068  -54.0218 N.am      22 UNK        -0.5000 
    120 CA         0.4885  -19.2826  -53.9429 C.3       22 UNK         0.1400 
    121 C          0.8694  -19.9510  -55.3043 C.2       22 UNK         0.5000 
    122 N          0.0386  -19.8896  -56.3391 N.am      22 UNK        -0.7600 
    123 O          1.9182  -20.5791  -55.4218 O.2       22 UNK        -0.5000 
    124 C124        1.7110  -18.7435  -53.1411 C.3       23 UNK        -0.0398 
    125 S125        1.5307  -19.0063  -51.3431 S.3       23 UNK        -0.2404 
    126 C126        1.0612  -17.3635  -50.7152 C.3       23 UNK        -0.0205 
    127 H127       -2.8070  -10.1708  -46.1769 H         1 UNK         0.0600 
    128 H128       -1.3184   -9.2244  -46.1134 H         1 UNK         0.0600 
    129 H129       -2.7904   -8.5125  -46.7839 H         1 UNK         0.0600 
    130 H130       -2.7871  -11.6694  -47.8112 H         1 UNK         0.3000 
    131 H131       -2.1319  -11.0959  -50.5242 H         1 UNK         0.0600 
    132 H132       -3.8156  -12.8275  -49.6276 H         1 UNK         0.0800 
    133 H133       -2.4653  -13.8614  -49.2601 H         1 UNK         0.0800 
    134 H134       -3.7887  -15.7714  -52.3407 H         1 UNK         0.0800 
    135 H135       -4.4994  -15.2408  -50.8431 H         1 UNK         0.0800 
    136 H136       -0.8914  -15.8287  -51.8463 H         1 UNK         0.1150 
    137 H137       -0.2449  -18.6933  -48.7420 H         1 UNK         0.1150 
    138 H138       -4.1104  -16.9245  -49.2272 H         1 UNK         0.1150 
    139 H139       -1.8904  -18.9746  -47.0275 H         1 UNK         0.0800 
    140 H140       -3.3596  -18.0285  -47.0252 H         1 UNK         0.0800 
    141 H141       -4.6286  -21.5876  -46.4796 H         1 UNK         0.0800 
    142 H142       -3.4956  -20.5013  -45.7197 H         1 UNK         0.0800 
    143 H143       -2.5842  -22.6457  -47.6916 H         1 UNK         0.0600 
    144 H144       -1.1135  -20.8330  -45.9636 H         1 UNK         0.3000 
    145 H145        2.0329  -22.3995  -46.6384 H         1 UNK         0.0600 
    146 H146        2.6326  -20.3091  -47.5507 H         1 UNK         0.0600 
    147 H147        1.2558  -20.7628  -48.5303 H         1 UNK         0.0600 
    148 H148        1.0583  -19.5858  -47.2323 H         1 UNK         0.0600 
    149 H149        1.2480  -20.1397  -45.0133 H         1 UNK         0.3000 
    150 H150        0.9431  -21.9973  -41.9728 H         1 UNK         0.0600 
    151 H151        3.1554  -20.1184  -42.9626 H         1 UNK         0.0600 
    152 H152        3.4110  -21.7425  -42.3336 H         1 UNK         0.0600 
    153 H153        2.7774  -20.4881  -41.2800 H         1 UNK         0.0600 
    154 H154        0.9013  -19.2363  -42.3011 H         1 UNK         0.3000 
    155 H155       -1.9224  -18.3743  -43.5745 H         1 UNK         0.0600 
    156 H156       -2.5619  -19.2474  -40.7104 H         1 UNK         0.0600 
    157 H157       -3.5291  -19.5629  -42.1423 H         1 UNK         0.0600 
    158 H158       -3.3388  -17.9149  -41.5672 H         1 UNK         0.0600 
    159 H159       -0.5811  -16.8598  -42.7617 H         1 UNK         0.3000 
    160 H160        0.6126  -15.8421  -39.7257 H         1 UNK         0.0600 
    161 H161        2.4908  -16.9805  -41.8687 H         1 UNK         0.0600 
    162 H162        2.5568  -17.3404  -40.1477 H         1 UNK         0.0600 
    163 H163        2.9024  -15.7138  -40.7152 H         1 UNK         0.0600 
    164 H164        1.1138  -15.0296  -42.4663 H         1 UNK         0.3000 
    165 H165       -1.9413  -13.1693  -42.8154 H         1 UNK         0.0600 
    166 H166       -0.2534  -11.5466  -43.6507 H         1 UNK         0.0600 
    167 H167       -0.2037  -11.6381  -41.8959 H         1 UNK         0.0600 
    168 H168        1.0376  -12.4392  -42.8507 H         1 UNK         0.0600 
    169 H169        0.0757  -13.8169  -44.7030 H         1 UNK         0.3000 
    170 H170       -1.3145  -16.9126  -45.8705 H         1 UNK         0.0600 
    171 H171       -1.2688  -14.0599  -46.9636 H         1 UNK         0.0600 
    172 H172       -2.4849  -15.2972  -47.1901 H         1 UNK         0.0600 
    173 H173       -0.9200  -15.4561  -47.9761 H         1 UNK         0.0600 
    174 H174        1.0440  -15.1488  -46.1665 H         1 UNK         0.3000 
    175 H175        3.1183  -17.0901  -44.2550 H         1 UNK         0.0600 
    176 H176        3.1548  -17.6192  -47.2700 H         1 UNK         0.0600 
    177 H177        4.5907  -17.6035  -46.2433 H         1 UNK         0.0600 
    178 H178        3.3376  -18.7947  -45.9667 H         1 UNK         0.0600 
    179 H179        3.6523  -15.2579  -46.4286 H         1 UNK         0.3000 
    180 H180        3.0547  -12.2897  -44.5632 H         1 UNK         0.0600 
    181 H181        5.3655  -11.8265  -45.3326 H         1 UNK         0.0600 
    182 H182        5.6384  -13.5406  -45.6462 H         1 UNK         0.0600 
    183 H183        5.3927  -12.9698  -43.9999 H         1 UNK         0.0600 
    184 H184        3.9052  -12.7276  -47.2497 H         1 UNK         0.3000 
    185 H185        2.2537  -11.9892  -48.9387 H         1 UNK         0.0600 
    186 H186        1.7995  -14.1281  -50.2224 H         1 UNK         0.0600 
    187 H187        3.0169  -14.4062  -48.9943 H         1 UNK         0.0600 
    188 H188        1.3626  -14.9404  -48.7238 H         1 UNK         0.0600 
    189 H189       -0.2904  -12.4336  -47.8281 H         1 UNK         0.3000 
    190 H190       -1.7734  -22.6087  -44.2183 H         1 UNK         0.3000 
    191 H191       -3.3559  -24.8568  -43.4936 H         1 UNK         0.0600 
    192 H192       -1.7925  -25.0013  -41.5566 H         1 UNK         0.0600 
    193 H193       -2.3104  -23.3448  -41.8319 H         1 UNK         0.0600 
    194 H194       -0.7015  -23.8600  -42.3315 H         1 UNK         0.0600 
    195 H195        0.0365  -24.6521  -44.6983 H         1 UNK         0.3000 
    196 H196        0.5421  -27.4567  -44.6609 H         1 UNK         0.0600 
    197 H197        1.8747  -25.1991  -46.2474 H         1 UNK         0.0600 
    198 H198        2.3503  -25.7758  -44.6517 H         1 UNK         0.0600 
    199 H199        2.5260  -26.8230  -46.0515 H         1 UNK         0.0600 
    200 H200       -0.5464  -25.2666  -47.2956 H         1 UNK         0.3000 
    201 H201       -0.5815  -27.3415  -49.3030 H         1 UNK         0.0600 
    202 H202       -1.7579  -24.5156  -49.3162 H         1 UNK         0.0600 
    203 H203       -1.4545  -25.5189  -50.7312 H         1 UNK         0.0600 
    204 H204       -0.1074  -24.9326  -49.7762 H         1 UNK         0.0600 
    205 H205       -2.7874  -26.6776  -46.8225 H         1 UNK         0.3000 
    206 H206       -4.8824  -27.1854  -46.3150 H         1 UNK         0.0600 
    207 H207       -4.2738  -29.5136  -46.9848 H         1 UNK         0.0600 
    208 H208       -5.9691  -29.1729  -47.2938 H         1 UNK         0.0600 
    209 H209       -4.8269  -29.1986  -48.6286 H         1 UNK         0.0600 
    210 H210       -4.6524  -24.9183  -47.4109 H         1 UNK         0.3000 
    211 H211       -5.6514  -23.1594  -48.2144 H         1 UNK         0.0600 
    212 H212       -8.0553  -23.1115  -48.6951 H         1 UNK         0.0600 
    213 H213       -7.7637  -24.1213  -47.2889 H         1 UNK         0.0600 
    214 H214       -8.1140  -24.8589  -48.8527 H         1 UNK         0.0600 
    215 H215       -4.7366  -25.5920  -50.3192 H         1 UNK         0.3000 
    216 H216       -5.6672  -24.5996  -52.8088 H         1 UNK         0.0600 
    217 H217       -3.1304  -26.2094  -52.2181 H         1 UNK         0.0600 
    218 H218       -3.9240  -26.0548  -53.7774 H         1 UNK         0.0600 
    219 H219       -4.7368  -26.8907  -52.4629 H         1 UNK         0.0600 
    220 H220       -3.1371  -23.4165  -50.7420 H         1 UNK         0.3000 
    221 H221       -1.6615  -21.8979  -52.7058 H         1 UNK         0.0600 
    222 H222       -0.5570  -22.5841  -50.6379 H         1 UNK         0.0600 
    223 H223       -1.7652  -21.7633  -49.6523 H         1 UNK         0.0600 
    224 H224       -0.6596  -20.8342  -50.6424 H         1 UNK         0.0600 
    225 H225       -4.7919  -21.3847  -51.3645 H         1 UNK         0.3000 
    226 H226       -4.8472  -18.5920  -51.0439 H         1 UNK         0.0600 
    227 H227       -7.0969  -20.4959  -51.8687 H         1 UNK         0.0600 
    228 H228       -6.6174  -20.1120  -50.2142 H         1 UNK         0.0600 
    229 H229       -7.3138  -18.8669  -51.2391 H         1 UNK         0.0600 
    230 H230       -4.6948  -20.4168  -53.9794 H         1 UNK         0.3000 
    231 H231       -5.5402  -18.2690  -55.7859 H         1 UNK         0.0600 
    232 H232       -4.1799  -20.9670  -56.2967 H         1 UNK         0.0600 
    233 H233       -4.8246  -19.8901  -57.5321 H         1 UNK         0.0600 
    234 H234       -5.9123  -20.6519  -56.3838 H         1 UNK         0.0600 
    235 H235       -3.8567  -17.0854  -54.1649 H         1 UNK         0.3000 
    236 H236       -2.0357  -15.8221  -53.9045 H         1 UNK         0.0600 
    237 H237       -2.9461  -14.8757  -56.0242 H         1 UNK         0.0600 
    238 H238       -1.2059  -14.6784  -55.9227 H         1 UNK         0.0600 
    239 H239       -1.8843  -15.9306  -56.9567 H         1 UNK         0.0600 
    240 H240       -1.4524  -18.5810  -53.5177 H         1 UNK         0.3000 
    241 H241        0.0743  -20.1191  -53.3801 H         1 UNK         0.0600 
    242 H242        0.2969  -20.3392  -57.2025 H         1 UNK         0.3800 
    243 H243       -0.8447  -19.3902  -56.2842 H         1 UNK         0.3800 
    244 H244        1.9068  -17.6944  -53.3607 H         1 UNK         0.0800 
    245 H245        2.6298  -19.2632  -53.4143 H         1 UNK         0.0800 
    246 H246        1.6537  -17.1616  -49.8222 H         1 UNK         0.0800 
    247 H247        1.3270  -16.5870  -51.4332 H         1 UNK         0.0800 
@<TRIPOS>BOND
     1    1    2 1    
     2    1  127 1    
     3    1  128 1    
     4    1  129 1    
     5    2    3 2    
     6    2    4 am   BACKBONE|DICT|INTERRES
     7    4    5 1    
     8    4  130 1    
     9    5    6 1    
    10    5   65 1    
    11    5  131 1    
    12    6    7 1    
    13    6  132 1    
    14    6  133 1    
    15    7    8 1    
    16    8    9 1    
    17    8  134 1    
    18    8  135 1    
    19    9   10 ar   
    20    9   14 ar   
    21   10   11 ar   
    22   10  136 1    
    23   11   12 ar   
    24   11  126 1    
    25   12   13 ar   
    26   12  137 1    
    27   13   14 ar   
    28   13   15 1    
    29   14  138 1    
    30   15   16 1    
    31   15  139 1    
    32   15  140 1    
    33   16   17 1    
    34   17   18 1    
    35   17  141 1    
    36   17  142 1    
    37   18   19 1    
    38   18   67 1    
    39   18  143 1    
    40   19   20 am   BACKBONE|DICT|INTERRES
    41   19  144 1    
    42   20   21 2    
    43   20   22 1    
    44   22   23 1    
    45   22   24 1    
    46   22  145 1    
    47   23  146 1    
    48   23  147 1    
    49   23  148 1    
    50   24   25 am   BACKBONE|DICT|INTERRES
    51   24  149 1    
    52   25   26 2    
    53   25   27 1    
    54   27   28 1    
    55   27   29 1    
    56   27  150 1    
    57   28  151 1    
    58   28  152 1    
    59   28  153 1    
    60   29   30 am   BACKBONE|DICT|INTERRES
    61   29  154 1    
    62   30   31 2    
    63   30   32 1    
    64   32   33 1    
    65   32   34 1    
    66   32  155 1    
    67   33  156 1    
    68   33  157 1    
    69   33  158 1    
    70   34   35 am   BACKBONE|DICT|INTERRES
    71   34  159 1    
    72   35   36 2    
    73   35   37 1    
    74   37   38 1    
    75   37   39 1    
    76   37  160 1    
    77   38  161 1    
    78   38  162 1    
    79   38  163 1    
    80   39   40 am   BACKBONE|DICT|INTERRES
    81   39  164 1    
    82   40   41 2    
    83   40   42 1    
    84   42   43 1    
    85   42   44 1    
    86   42  165 1    
    87   43  166 1    
    88   43  167 1    
    89   43  168 1    
    90   44   45 am   BACKBONE|DICT|INTERRES
    91   44  169 1    
    92   45   46 2    
    93   45   47 1    
    94   47   48 1    
    95   47   49 1    
    96   47  170 1    
    97   48  171 1    
    98   48  172 1    
    99   48  173 1    
   100   49   50 am   BACKBONE|DICT|INTERRES
   101   49  174 1    
   102   50   51 2    
   103   50   52 1    
   104   52   53 1    
   105   52   54 1    
   106   52  175 1    
   107   53  176 1    
   108   53  177 1    
   109   53  178 1    
   110   54   55 am   BACKBONE|DICT|INTERRES
   111   54  179 1    
   112   55   56 2    
   113   55   57 1    
   114   57   58 1    
   115   57   59 1    
   116   57  180 1    
   117   58  181 1    
   118   58  182 1    
   119   58  183 1    
   120   59   60 am   BACKBONE|DICT|INTERRES
   121   59  184 1    
   122   60   61 2    
   123   60   62 1    
   124   62   63 1    
   125   62   64 1    
   126   62  185 1    
   127   63  186 1    
   128   63  187 1    
   129   63  188 1    
   130   64   65 am   BACKBONE|DICT|INTERRES
   131   64  189 1    
   132   65   66 2    
   133   67   68 2    
   134   67   69 am   BACKBONE|DICT|INTERRES
   135   69   70 1    
   136   69  190 1    
   137   70   71 1    
   138   70   72 1    
   139   70  191 1    
   140   71  192 1    
   141   71  193 1    
   142   71  194 1    
   143   72   73 2    
   144   72   74 am   BACKBONE|DICT|INTERRES
   145   74   75 1    
   146   74  195 1    
   147   75   76 1    
   148   75   77 1    
   149   75  196 1    
   150   76  197 1    
   151   76  198 1    
   152   76  199 1    
   153   77   78 2    
   154   77   79 am   BACKBONE|DICT|INTERRES
   155   79   80 1    
   156   79  200 1    
   157   80   81 1    
   158   80   82 1    
   159   80  201 1    
   160   81  202 1    
   161   81  203 1    
   162   81  204 1    
   163   82   83 2    
   164   82   84 am   BACKBONE|DICT|INTERRES
   165   84   85 1    
   166   84  205 1    
   167   85   86 1    
   168   85   87 1    
   169   85  206 1    
   170   86  207 1    
   171   86  208 1    
   172   86  209 1    
   173   87   88 2    
   174   87   89 am   BACKBONE|DICT|INTERRES
   175   89   90 1    
   176   89  210 1    
   177   90   91 1    
   178   90   92 1    
   179   90  211 1    
   180   91  212 1    
   181   91  213 1    
   182   91  214 1    
   183   92   93 2    
   184   92   94 am   BACKBONE|DICT|INTERRES
   185   94   95 1    
   186   94  215 1    
   187   95   96 1    
   188   95   97 1    
   189   95  216 1    
   190   96  217 1    
   191   96  218 1    
   192   96  219 1    
   193   97   98 2    
   194   97   99 am   BACKBONE|DICT|INTERRES
   195   99  100 1    
   196   99  220 1    
   197  100  101 1    
   198  100  102 1    
   199  100  221 1    
   200  101  222 1    
   201  101  223 1    
   202  101  224 1    
   203  102  103 2    
   204  102  104 am   BACKBONE|DICT|INTERRES
   205  104  105 1    
   206  104  225 1    
   207  105  106 1    
   208  105  107 1    
   209  105  226 1    
   210  106  227 1    
   211  106  228 1    
   212  106  229 1    
   213  107  108 2    
   214  107  109 am   BACKBONE|DICT|INTERRES
   215  109  110 1    
   216  109  230 1    
   217  110  111 1    
   218  110  112 1    
   219  110  231 1    
   220  111  232 1    
   221  111  233 1    
   222  111  234 1    
   223  112  113 2    
   224  112  114 am   BACKBONE|DICT|INTERRES
   225  114  115 1    
   226  114  235 1    
   227  115  116 1    
   228  115  117 1    
   229  115  236 1    
   230  116  237 1    
   231  116  238 1    
   232  116  239 1    
   233  117  118 2    
   234  117  119 am   BACKBONE|DICT|INTERRES
   235  119  120 1    
   236  119  240 1    
   237  120  121 1    
   238  120  124 1    
   239  120  241 1    
   240  121  122 am   BACKBONE|DICT|INTERRES
   241  121  123 2    
   242  122  242 1    
   243  122  243 1    
   244  124  125 1    
   245  124  244 1    
   246  124  245 1    
   247  125  126 1    
   248  126  246 1    
   249  126  247 1    
@<TRIPOS>SUBSTRUCTURE
     1 UNK         1 GROUP             0       ****    0 ROOT    
