@<TRIPOS>MOLECULE
3R540
247   249    1
SMALL
USER_CHARGES


@<TRIPOS>ATOM
      1 CA         -5.2381  -13.1455  -46.8511 C.3       0 UNK        -0.1800 
      2 C          -3.8664  -12.7194  -47.3556 C.2       0 UNK         0.5000 
      3 O          -3.7751  -11.8473  -48.2202 O.2       0 UNK        -0.5000 
      4 N          -2.8042  -13.3377  -46.8268 N.am      1 UNK        -0.5000 
      5 CA         -1.4054  -13.0425  -47.1526 C.3       1 UNK         0.1400 
      6 C6         -0.4417  -14.1163  -46.5882 C.3       23 UNK        -0.0398 
      7 S7         -0.8037  -15.7823  -47.2336 S.3       23 UNK        -0.2404 
      8 C8          0.4593  -15.9279  -48.5329 C.3       23 UNK        -0.0205 
      9 C9          0.3028  -17.2272  -49.3051 C.ar      23 UNK        -0.0193 
     10 C10        -0.5057  -17.2712  -50.4426 C.ar      23 UNK        -0.1150 
     11 C11        -0.6474  -18.4575  -51.1657 C.ar      23 UNK        -0.0193 
     12 C12         0.0135  -19.6111  -50.7319 C.ar      23 UNK        -0.1150 
     13 C13         0.8339  -19.5842  -49.5982 C.ar      23 UNK        -0.0193 
     14 C14         0.9761  -18.3808  -48.8938 C.ar      23 UNK        -0.1150 
     15 C15         1.5848  -20.8553  -49.1982 C.3       23 UNK        -0.0205 
     16 S16         1.9280  -21.0053  -47.4084 S.3       23 UNK        -0.2404 
     17 C17         1.4775  -22.7388  -47.0647 C.3       23 UNK        -0.0398 
     18 CA          0.0374  -22.9681  -46.5390 C.3       11 UNK         0.1400 
     19 N          -0.1704  -22.5045  -45.1606 N.am      11 UNK        -0.5000 
     20 C          -1.1957  -22.9209  -44.3999 C.2       10 UNK         0.5000 
     21 O          -2.0518  -23.7122  -44.7940 O.2       10 UNK        -0.5000 
     22 CA         -1.3140  -22.3566  -42.9744 C.3       10 UNK         0.1400 
     23 CB         -0.2890  -23.0133  -42.0379 C.3       10 UNK        -0.1800 
     24 N          -1.1916  -20.9018  -42.9176 N.am      10 UNK        -0.5000 
     25 C          -2.0434  -20.0429  -43.4965 C.2       9 UNK         0.5000 
     26 O          -3.0369  -20.3889  -44.1347 O.2       9 UNK        -0.5000 
     27 CA         -1.7060  -18.5445  -43.3830 C.3       9 UNK         0.1400 
     28 CB         -2.1319  -17.9834  -42.0184 C.3       9 UNK        -0.1800 
     29 N          -0.2870  -18.2730  -43.6011 N.am      9 UNK        -0.5000 
     30 C           0.3695  -18.5583  -44.7342 C.2       8 UNK         0.5000 
     31 O          -0.1666  -19.0385  -45.7312 O.2       8 UNK        -0.5000 
     32 CA          1.8901  -18.3337  -44.7151 C.3       8 UNK         0.1400 
     33 CB          2.2377  -16.8445  -44.8565 C.3       8 UNK        -0.1800 
     34 N           2.4984  -18.8735  -43.4989 N.am      8 UNK        -0.5000 
     35 C           2.5640  -20.1785  -43.1952 C.2       7 UNK         0.5000 
     36 O           2.1483  -21.0789  -43.9247 O.2       7 UNK        -0.5000 
     37 CA          3.1654  -20.5337  -41.8231 C.3       7 UNK         0.1400 
     38 CB          4.6986  -20.5833  -41.8999 C.3       7 UNK        -0.1800 
     39 N           2.7622  -19.5977  -40.7723 N.am      7 UNK        -0.5000 
     40 C           1.5104  -19.4745  -40.3081 C.2       6 UNK         0.5000 
     41 O           0.5658  -20.1594  -40.6968 O.2       6 UNK        -0.5000 
     42 CA          1.2652  -18.3605  -39.2735 C.3       6 UNK         0.1400 
     43 CB          1.6151  -18.8462  -37.8590 C.3       6 UNK        -0.1800 
     44 N           2.0093  -17.1321  -39.5681 N.am      6 UNK        -0.5000 
     45 C           1.8370  -16.3962  -40.6734 C.2       5 UNK         0.5000 
     46 O           1.0408  -16.6891  -41.5689 O.2       5 UNK        -0.5000 
     47 CA          2.7473  -15.1665  -40.8294 C.3       5 UNK         0.1400 
     48 CB          4.0902  -15.5727  -41.4566 C.3       5 UNK        -0.1800 
     49 N           2.1197  -14.1622  -41.6827 N.am      5 UNK        -0.5000 
     50 C           1.1270  -13.3466  -41.3139 C.2       4 UNK         0.5000 
     51 O           0.7176  -13.2650  -40.1538 O.2       4 UNK        -0.5000 
     52 CA          0.4973  -12.4777  -42.4274 C.3       4 UNK         0.1400 
     53 CB         -0.5066  -11.4475  -41.8792 C.3       4 UNK        -0.1800 
     54 N           1.4826  -11.7718  -43.2527 N.am      4 UNK        -0.5000 
     55 C           2.2513  -12.3189  -44.2012 C.2       3 UNK         0.5000 
     56 O           2.2595  -13.5233  -44.4595 O.2       3 UNK        -0.5000 
     57 CA          3.0864  -11.3445  -45.0476 C.3       3 UNK         0.1400 
     58 CB          4.3029  -12.0272  -45.6974 C.3       3 UNK        -0.1800 
     59 N           2.2194  -10.8206  -46.0963 N.am      3 UNK        -0.5000 
     60 C           1.4127   -9.7593  -45.9679 C.2       2 UNK         0.5000 
     61 O           1.4541   -8.9733  -45.0207 O.2       2 UNK        -0.5000 
     62 CA          0.3335   -9.6013  -47.0555 C.3       2 UNK         0.1400 
     63 CB          0.9056   -8.9037  -48.2990 C.3       2 UNK        -0.1800 
     64 N          -0.2463  -10.8937  -47.4395 N.am      2 UNK        -0.5000 
     65 C          -1.0035  -11.6487  -46.6296 C.2       1 UNK         0.5000 
     66 O          -1.3524  -11.3021  -45.4986 O.2       1 UNK        -0.5000 
     67 C          -1.0572  -22.4614  -47.5039 C.2       11 UNK         0.5000 
     68 O          -1.4425  -23.1974  -48.4153 O.2       11 UNK        -0.5000 
     69 N          -1.5678  -21.2437  -47.2653 N.am      12 UNK        -0.5000 
     70 CA         -2.7107  -20.6785  -47.9778 C.3       12 UNK         0.1400 
     71 CB         -2.8598  -19.1883  -47.6418 C.3       12 UNK        -0.1800 
     72 C          -4.0057  -21.4514  -47.6759 C.2       12 UNK         0.5000 
     73 O          -4.7004  -21.8428  -48.6108 O.2       12 UNK        -0.5000 
     74 N          -4.2830  -21.7161  -46.3900 N.am      13 UNK        -0.5000 
     75 CA         -5.4371  -22.4986  -45.9332 C.3       13 UNK         0.1400 
     76 CB         -5.5178  -22.4554  -44.4001 C.3       13 UNK        -0.1800 
     77 C          -5.4245  -23.9560  -46.4337 C.2       13 UNK         0.5000 
     78 O          -6.4801  -24.4928  -46.7714 O.2       13 UNK        -0.5000 
     79 N          -4.2288  -24.5554  -46.5063 N.am      14 UNK        -0.5000 
     80 CA         -3.9876  -25.8821  -47.0756 C.3       14 UNK         0.1400 
     81 CB         -2.6094  -26.3772  -46.6093 C.3       14 UNK        -0.1800 
     82 C          -4.0694  -25.9193  -48.6158 C.2       14 UNK         0.5000 
     83 O          -4.1281  -27.0133  -49.1786 O.2       14 UNK        -0.5000 
     84 N          -4.0514  -24.7434  -49.2640 N.am      15 UNK        -0.5000 
     85 CA         -4.0161  -24.5210  -50.7117 C.3       15 UNK         0.1400 
     86 CB         -5.3408  -24.9607  -51.3689 C.3       15 UNK        -0.1800 
     87 C          -2.7702  -25.1516  -51.3652 C.2       15 UNK         0.5000 
     88 O          -2.8754  -25.8142  -52.3988 O.2       15 UNK        -0.5000 
     89 N          -1.6016  -24.9338  -50.7431 N.am      16 UNK        -0.5000 
     90 CA         -0.3120  -25.5178  -51.1324 C.3       16 UNK         0.1400 
     91 CB          0.7392  -25.1474  -50.0777 C.3       16 UNK        -0.1800 
     92 C           0.1747  -25.1098  -52.5381 C.2       16 UNK         0.5000 
     93 O           0.9382  -25.8515  -53.1564 O.2       16 UNK        -0.5000 
     94 N          -0.3015  -23.9584  -53.0283 N.am      17 UNK        -0.5000 
     95 CA         -0.0633  -23.4411  -54.3775 C.3       17 UNK         0.1400 
     96 CB         -0.1389  -21.9076  -54.3174 C.3       17 UNK        -0.1800 
     97 C          -1.0430  -24.0090  -55.4312 C.2       17 UNK         0.5000 
     98 O          -1.0809  -23.4959  -56.5492 O.2       17 UNK        -0.5000 
     99 N          -1.8380  -25.0221  -55.0507 N.am      18 UNK        -0.5000 
    100 CA        -2.9343  -25.6686  -55.7877 C.3       18 UNK         0.1400 
    101 CB        -2.5070  -26.1368  -57.1943 C.3       18 UNK        -0.1800 
    102 C         -4.2365  -24.8408  -55.8059 C.2       18 UNK         0.5000 
    103 O         -5.2299  -25.2805  -56.3867 O.2       18 UNK        -0.5000 
    104 N         -4.2277  -23.6864  -55.1341 N.am      19 UNK        -0.5000 
    105 CA        -5.3599  -22.8115  -54.8793 C.3       19 UNK         0.1400 
    106 CB        -5.6461  -21.9304  -56.1072 C.3       19 UNK        -0.1800 
    107 C         -4.9890  -21.9538  -53.6663 C.2       19 UNK         0.5000 
    108 O         -3.8295  -21.5502  -53.5441 O.2       19 UNK        -0.5000 
    109 N         -5.9693  -21.6665  -52.8025 N.am      20 UNK        -0.5000 
    110 CA        -5.7885  -20.8278  -51.6121 C.3       20 UNK         0.1400 
    111 CB        -7.0191  -20.9672  -50.7037 C.3       20 UNK        -0.1800 
    112 C         -5.5269  -19.3490  -51.9536 C.2       20 UNK         0.5000 
    113 O         -4.8278  -18.6605  -51.2116 O.2       20 UNK        -0.5000 
    114 N         -6.0689  -18.9069  -53.0951 N.am      21 UNK        -0.5000 
    115 CA        -5.8647  -17.5796  -53.6726 C.3       21 UNK         0.1400 
    116 CB        -7.1151  -17.2138  -54.4903 C.3       21 UNK        -0.1800 
    117 C         -4.5945  -17.4889  -54.5455 C.2       21 UNK         0.5000 
    118 O         -4.3285  -16.4140  -55.0855 O.2       21 UNK        -0.5000 
    119 N         -3.8475  -18.5974  -54.6807 N.am      22 UNK        -0.5000 
    120 CA        -2.6814  -18.7757  -55.5648 C.3       22 UNK         0.1400 
    121 C         -3.0450  -18.7648  -57.0833 C.2       22 UNK         0.5000 
    122 N         -2.0801  -19.0060  -57.9614 N.am      22 UNK        -0.7600 
    123 O         -4.1918  -18.5830  -57.4868 O.2       22 UNK        -0.5000 
    124 C124       -1.5013  -17.8158  -55.2107 C.3       23 UNK        -0.0398 
    125 S125       -0.4051  -18.4487  -53.9004 S.3       23 UNK        -0.2404 
    126 C126       -1.4830  -18.4783  -52.4352 C.3       23 UNK        -0.0205 
    127 H127       -5.7550  -12.2949  -46.4066 H         1 UNK         0.0600 
    128 H128       -5.8424  -13.5197  -47.6775 H         1 UNK         0.0600 
    129 H129       -5.1674  -13.9314  -46.0986 H         1 UNK         0.0600 
    130 H130       -2.9434  -14.0434  -46.1187 H         1 UNK         0.3000 
    131 H131       -1.3137  -13.0407  -48.2410 H         1 UNK         0.0600 
    132 H132       -0.5070  -14.1573  -45.4993 H         1 UNK         0.0800 
    133 H133        0.5966  -13.8659  -46.8135 H         1 UNK         0.0800 
    134 H134        1.4540  -15.8743  -48.0886 H         1 UNK         0.0800 
    135 H135        0.3790  -15.0791  -49.2137 H         1 UNK         0.0800 
    136 H136       -1.0161  -16.3767  -50.7710 H         1 UNK         0.1150 
    137 H137       -0.0916  -20.5252  -51.2991 H         1 UNK         0.1150 
    138 H138        1.6081  -18.3335  -48.0194 H         1 UNK         0.1150 
    139 H139        1.0137  -21.7214  -49.5321 H         1 UNK         0.0800 
    140 H140        2.5318  -20.8860  -49.7380 H         1 UNK         0.0800 
    141 H141        1.6535  -23.3368  -47.9580 H         1 UNK         0.0800 
    142 H142        2.1880  -23.1181  -46.3290 H         1 UNK         0.0800 
    143 H143       -0.0844  -24.0530  -46.5079 H         1 UNK         0.0600 
    144 H144        0.5138  -21.8544  -44.7833 H         1 UNK         0.3000 
    145 H145       -2.3094  -22.6123  -42.6054 H         1 UNK         0.0600 
    146 H146       -0.4450  -22.7037  -41.0046 H         1 UNK         0.0600 
    147 H147       -0.3743  -24.1003  -42.0664 H         1 UNK         0.0600 
    148 H148        0.7336  -22.7574  -42.3139 H         1 UNK         0.0600 
    149 H149       -0.4232  -20.5334  -42.3658 H         1 UNK         0.3000 
    150 H150       -2.2654  -18.0179  -44.1591 H         1 UNK         0.0600 
    151 H151       -3.1959  -18.1475  -41.8438 H         1 UNK         0.0600 
    152 H152       -1.9529  -16.9094  -41.9613 H         1 UNK         0.0600 
    153 H153       -1.5870  -18.4556  -41.2006 H         1 UNK         0.0600 
    154 H154        0.2232  -17.8461  -42.8321 H         1 UNK         0.3000 
    155 H155        2.3232  -18.8569  -45.5675 H         1 UNK         0.0600 
    156 H156        3.3160  -16.6875  -44.8766 H         1 UNK         0.0600 
    157 H157        1.8258  -16.2492  -44.0424 H         1 UNK         0.0600 
    158 H158        1.8358  -16.4397  -45.7844 H         1 UNK         0.0600 
    159 H159        2.8145  -18.2034  -42.8154 H         1 UNK         0.3000 
    160 H160        2.8061  -21.5278  -41.5486 H         1 UNK         0.0600 
    161 H161        5.1232  -19.6088  -42.1446 H         1 UNK         0.0600 
    162 H162        5.0276  -21.2866  -42.6662 H         1 UNK         0.0600 
    163 H163        5.1304  -20.9101  -40.9537 H         1 UNK         0.0600 
    164 H164        3.4781  -18.9946  -40.3957 H         1 UNK         0.3000 
    165 H165        0.2005  -18.1189  -39.2967 H         1 UNK         0.0600 
    166 H166        2.6772  -19.0740  -37.7607 H         1 UNK         0.0600 
    167 H167        1.3614  -18.0955  -37.1103 H         1 UNK         0.0600 
    168 H168        1.0605  -19.7519  -37.6097 H         1 UNK         0.0600 
    169 H169        2.6866  -16.8376  -38.8792 H         1 UNK         0.3000 
    170 H170        2.9319  -14.7326  -39.8445 H         1 UNK         0.0600 
    171 H171        4.6061  -16.3106  -40.8412 H         1 UNK         0.0600 
    172 H172        3.9588  -16.0050  -42.4490 H         1 UNK         0.0600 
    173 H173        4.7534  -14.7129  -41.5541 H         1 UNK         0.0600 
    174 H174        2.3538  -14.1866  -42.6708 H         1 UNK         0.3000 
    175 H175       -0.0581  -13.1595  -43.0750 H         1 UNK         0.0600 
    176 H176       -0.9786  -10.8893  -42.6882 H         1 UNK         0.0600 
    177 H177       -1.3048  -11.9353  -41.3183 H         1 UNK         0.0600 
    178 H178       -0.0243  -10.7309  -41.2135 H         1 UNK         0.0600 
    179 H179        1.5230  -10.7695  -43.1289 H         1 UNK         0.3000 
    180 H180        3.4478  -10.5369  -44.4074 H         1 UNK         0.0600 
    181 H181        4.8949  -11.3118  -46.2683 H         1 UNK         0.0600 
    182 H182        4.9568  -12.4595  -44.9390 H         1 UNK         0.0600 
    183 H183        4.0081  -12.8308  -46.3737 H         1 UNK         0.0600 
    184 H184        2.0909  -11.4170  -46.8999 H         1 UNK         0.3000 
    185 H185       -0.4636   -8.9753  -46.6485 H         1 UNK         0.0600 
    186 H186        0.1299   -8.7297  -49.0449 H         1 UNK         0.0600 
    187 H187        1.3293   -7.9325  -48.0399 H         1 UNK         0.0600 
    188 H188        1.6958   -9.4922  -48.7668 H         1 UNK         0.0600 
    189 H189       -0.0212  -11.2310  -48.3645 H         1 UNK         0.3000 
    190 H190       -1.1479  -20.6640  -46.5448 H         1 UNK         0.3000 
    191 H191       -2.5123  -20.7603  -49.0488 H         1 UNK         0.0600 
    192 H192       -3.6981  -18.7477  -48.1829 H         1 UNK         0.0600 
    193 H193       -1.9648  -18.6346  -47.9252 H         1 UNK         0.0600 
    194 H194       -3.0274  -19.0257  -46.5770 H         1 UNK         0.0600 
    195 H195       -3.6772  -21.3407  -45.6644 H         1 UNK         0.3000 
    196 H196       -6.3350  -22.0233  -46.3332 H         1 UNK         0.0600 
    197 H197       -6.3728  -23.0264  -44.0359 H         1 UNK         0.0600 
    198 H198       -5.6338  -21.4328  -44.0407 H         1 UNK         0.0600 
    199 H199       -4.6220  -22.8727  -43.9389 H         1 UNK         0.0600 
    200 H200       -3.4196  -24.0724  -46.1253 H         1 UNK         0.3000 
    201 H201       -4.7457  -26.5662  -46.6893 H         1 UNK         0.0600 
    202 H202       -2.5459  -26.4041  -45.5214 H         1 UNK         0.0600 
    203 H203       -1.8091  -25.7347  -46.9773 H         1 UNK         0.0600 
    204 H204       -2.4114  -27.3871  -46.9708 H         1 UNK         0.0600 
    205 H205       -4.0101  -23.9003  -48.7042 H         1 UNK         0.3000 
    206 H206       -3.9190  -23.4443  -50.8549 H         1 UNK         0.0600 
    207 H207       -6.1896  -24.4427  -50.9225 H         1 UNK         0.0600 
    208 H208       -5.3454  -24.7335  -52.4347 H         1 UNK         0.0600 
    209 H209       -5.5099  -26.0328  -51.2678 H         1 UNK         0.0600 
    210 H210       -1.6017  -24.3642  -49.8991 H         1 UNK         0.3000 
    211 H211       -0.4312  -26.6030  -51.1308 H         1 UNK         0.0600 
    212 H212        0.9100  -24.0716  -50.0564 H         1 UNK         0.0600 
    213 H213        1.6949  -25.6282  -50.2902 H         1 UNK         0.0600 
    214 H214        0.4299  -25.4622  -49.0807 H         1 UNK         0.0600 
    215 H215       -0.9270  -23.4218  -52.4455 H         1 UNK         0.3000 
    216 H216        0.9442  -23.7172  -54.6952 H         1 UNK         0.0600 
    217 H217        0.0769  -21.4588  -55.2877 H         1 UNK         0.0600 
    218 H218        0.5877  -21.5052  -53.6114 H         1 UNK         0.0600 
    219 H219       -1.1275  -21.5658  -54.0100 H         1 UNK         0.0600 
    220 H220       -1.7613  -25.3352  -54.0890 H         1 UNK         0.3000 
    221 H221       -3.1698  -26.5651  -55.2123 H         1 UNK         0.0600 
    222 H222       -2.3746  -25.3011  -57.8814 H         1 UNK         0.0600 
    223 H223       -1.5734  -26.6981  -57.1587 H         1 UNK         0.0600 
    224 H224       -3.2625  -26.7919  -57.6294 H         1 UNK         0.0600 
    225 H225       -3.3738  -23.3966  -54.6762 H         1 UNK         0.3000 
    226 H226       -6.2380  -23.4152  -54.6407 H         1 UNK         0.0600 
    227 H227       -6.4698  -21.2421  -55.9140 H         1 UNK         0.0600 
    228 H228       -4.7763  -21.3334  -56.3839 H         1 UNK         0.0600 
    229 H229       -5.9239  -22.5335  -56.9716 H         1 UNK         0.0600 
    230 H230       -6.8978  -22.0315  -52.9615 H         1 UNK         0.3000 
    231 H231       -4.9128  -21.1919  -51.0736 H         1 UNK         0.0600 
    232 H232       -6.9067  -20.3635  -49.8020 H         1 UNK         0.0600 
    233 H233       -7.1545  -22.0002  -50.3824 H         1 UNK         0.0600 
    234 H234       -7.9323  -20.6448  -51.2051 H         1 UNK         0.0600 
    235 H235       -6.6317  -19.5477  -53.6347 H         1 UNK         0.3000 
    236 H236       -5.7589  -16.8492  -52.8677 H         1 UNK         0.0600 
    237 H237       -7.2578  -17.8934  -55.3314 H         1 UNK         0.0600 
    238 H238       -8.0137  -17.2469  -53.8740 H         1 UNK         0.0600 
    239 H239       -7.0393  -16.2035  -54.8945 H         1 UNK         0.0600 
    240 H240       -4.1386  -19.4322  -54.1910 H         1 UNK         0.3000 
    241 H241       -2.3533  -19.8000  -55.3840 H         1 UNK         0.0600 
    242 H242       -2.3092  -19.0163  -58.9433 H         1 UNK         0.3800 
    243 H243       -1.1333  -19.2006  -57.6751 H         1 UNK         0.3800 
    244 H244       -1.8460  -16.8220  -54.9284 H         1 UNK         0.0800 
    245 H245       -0.8524  -17.6460  -56.0703 H         1 UNK         0.0800 
    246 H246       -2.1616  -17.6242  -52.4560 H         1 UNK         0.0800 
    247 H247       -2.1067  -19.3736  -52.4560 H         1 UNK         0.0800 
@<TRIPOS>BOND
     1    1    2 1    
     2    1  127 1    
     3    1  128 1    
     4    1  129 1    
     5    2    3 2    
     6    2    4 am   BACKBONE|DICT|INTERRES
     7    4    5 1    
     8    4  130 1    
     9    5    6 1    
    10    5   65 1    
    11    5  131 1    
    12    6    7 1    
    13    6  132 1    
    14    6  133 1    
    15    7    8 1    
    16    8    9 1    
    17    8  134 1    
    18    8  135 1    
    19    9   10 ar   
    20    9   14 ar   
    21   10   11 ar   
    22   10  136 1    
    23   11   12 ar   
    24   11  126 1    
    25   12   13 ar   
    26   12  137 1    
    27   13   14 ar   
    28   13   15 1    
    29   14  138 1    
    30   15   16 1    
    31   15  139 1    
    32   15  140 1    
    33   16   17 1    
    34   17   18 1    
    35   17  141 1    
    36   17  142 1    
    37   18   19 1    
    38   18   67 1    
    39   18  143 1    
    40   19   20 am   BACKBONE|DICT|INTERRES
    41   19  144 1    
    42   20   21 2    
    43   20   22 1    
    44   22   23 1    
    45   22   24 1    
    46   22  145 1    
    47   23  146 1    
    48   23  147 1    
    49   23  148 1    
    50   24   25 am   BACKBONE|DICT|INTERRES
    51   24  149 1    
    52   25   26 2    
    53   25   27 1    
    54   27   28 1    
    55   27   29 1    
    56   27  150 1    
    57   28  151 1    
    58   28  152 1    
    59   28  153 1    
    60   29   30 am   BACKBONE|DICT|INTERRES
    61   29  154 1    
    62   30   31 2    
    63   30   32 1    
    64   32   33 1    
    65   32   34 1    
    66   32  155 1    
    67   33  156 1    
    68   33  157 1    
    69   33  158 1    
    70   34   35 am   BACKBONE|DICT|INTERRES
    71   34  159 1    
    72   35   36 2    
    73   35   37 1    
    74   37   38 1    
    75   37   39 1    
    76   37  160 1    
    77   38  161 1    
    78   38  162 1    
    79   38  163 1    
    80   39   40 am   BACKBONE|DICT|INTERRES
    81   39  164 1    
    82   40   41 2    
    83   40   42 1    
    84   42   43 1    
    85   42   44 1    
    86   42  165 1    
    87   43  166 1    
    88   43  167 1    
    89   43  168 1    
    90   44   45 am   BACKBONE|DICT|INTERRES
    91   44  169 1    
    92   45   46 2    
    93   45   47 1    
    94   47   48 1    
    95   47   49 1    
    96   47  170 1    
    97   48  171 1    
    98   48  172 1    
    99   48  173 1    
   100   49   50 am   BACKBONE|DICT|INTERRES
   101   49  174 1    
   102   50   51 2    
   103   50   52 1    
   104   52   53 1    
   105   52   54 1    
   106   52  175 1    
   107   53  176 1    
   108   53  177 1    
   109   53  178 1    
   110   54   55 am   BACKBONE|DICT|INTERRES
   111   54  179 1    
   112   55   56 2    
   113   55   57 1    
   114   57   58 1    
   115   57   59 1    
   116   57  180 1    
   117   58  181 1    
   118   58  182 1    
   119   58  183 1    
   120   59   60 am   BACKBONE|DICT|INTERRES
   121   59  184 1    
   122   60   61 2    
   123   60   62 1    
   124   62   63 1    
   125   62   64 1    
   126   62  185 1    
   127   63  186 1    
   128   63  187 1    
   129   63  188 1    
   130   64   65 am   BACKBONE|DICT|INTERRES
   131   64  189 1    
   132   65   66 2    
   133   67   68 2    
   134   67   69 am   BACKBONE|DICT|INTERRES
   135   69   70 1    
   136   69  190 1    
   137   70   71 1    
   138   70   72 1    
   139   70  191 1    
   140   71  192 1    
   141   71  193 1    
   142   71  194 1    
   143   72   73 2    
   144   72   74 am   BACKBONE|DICT|INTERRES
   145   74   75 1    
   146   74  195 1    
   147   75   76 1    
   148   75   77 1    
   149   75  196 1    
   150   76  197 1    
   151   76  198 1    
   152   76  199 1    
   153   77   78 2    
   154   77   79 am   BACKBONE|DICT|INTERRES
   155   79   80 1    
   156   79  200 1    
   157   80   81 1    
   158   80   82 1    
   159   80  201 1    
   160   81  202 1    
   161   81  203 1    
   162   81  204 1    
   163   82   83 2    
   164   82   84 am   BACKBONE|DICT|INTERRES
   165   84   85 1    
   166   84  205 1    
   167   85   86 1    
   168   85   87 1    
   169   85  206 1    
   170   86  207 1    
   171   86  208 1    
   172   86  209 1    
   173   87   88 2    
   174   87   89 am   BACKBONE|DICT|INTERRES
   175   89   90 1    
   176   89  210 1    
   177   90   91 1    
   178   90   92 1    
   179   90  211 1    
   180   91  212 1    
   181   91  213 1    
   182   91  214 1    
   183   92   93 2    
   184   92   94 am   BACKBONE|DICT|INTERRES
   185   94   95 1    
   186   94  215 1    
   187   95   96 1    
   188   95   97 1    
   189   95  216 1    
   190   96  217 1    
   191   96  218 1    
   192   96  219 1    
   193   97   98 2    
   194   97   99 am   BACKBONE|DICT|INTERRES
   195   99  100 1    
   196   99  220 1    
   197  100  101 1    
   198  100  102 1    
   199  100  221 1    
   200  101  222 1    
   201  101  223 1    
   202  101  224 1    
   203  102  103 2    
   204  102  104 am   BACKBONE|DICT|INTERRES
   205  104  105 1    
   206  104  225 1    
   207  105  106 1    
   208  105  107 1    
   209  105  226 1    
   210  106  227 1    
   211  106  228 1    
   212  106  229 1    
   213  107  108 2    
   214  107  109 am   BACKBONE|DICT|INTERRES
   215  109  110 1    
   216  109  230 1    
   217  110  111 1    
   218  110  112 1    
   219  110  231 1    
   220  111  232 1    
   221  111  233 1    
   222  111  234 1    
   223  112  113 2    
   224  112  114 am   BACKBONE|DICT|INTERRES
   225  114  115 1    
   226  114  235 1    
   227  115  116 1    
   228  115  117 1    
   229  115  236 1    
   230  116  237 1    
   231  116  238 1    
   232  116  239 1    
   233  117  118 2    
   234  117  119 am   BACKBONE|DICT|INTERRES
   235  119  120 1    
   236  119  240 1    
   237  120  121 1    
   238  120  124 1    
   239  120  241 1    
   240  121  122 am   BACKBONE|DICT|INTERRES
   241  121  123 2    
   242  122  242 1    
   243  122  243 1    
   244  124  125 1    
   245  124  244 1    
   246  124  245 1    
   247  125  126 1    
   248  126  246 1    
   249  126  247 1    
@<TRIPOS>SUBSTRUCTURE
     1 UNK         1 GROUP             0       ****    0 ROOT    
