@<TRIPOS>MOLECULE
3R540
247   249    1
SMALL
USER_CHARGES


@<TRIPOS>ATOM
      1 CA         -4.6192  -16.3326  -47.5777 C.3       0 UNK        -0.1800 
      2 C          -3.4903  -15.3743  -47.9186 C.2       0 UNK         0.5000 
      3 O          -2.3240  -15.7592  -47.8551 O.2       0 UNK        -0.5000 
      4 N          -3.8294  -14.1159  -48.2308 N.am      1 UNK        -0.5000 
      5 CA         -2.9493  -12.9935  -48.6067 C.3       1 UNK         0.1400 
      6 C6         -2.1664  -13.2291  -49.9246 C.3       23 UNK        -0.0398 
      7 S7         -3.2925  -13.2154  -51.3617 S.3       23 UNK        -0.2404 
      8 C8         -2.6201  -14.5426  -52.4094 C.3       23 UNK        -0.0205 
      9 C9         -3.0277  -15.9331  -51.9431 C.ar      23 UNK        -0.0193 
     10 C10        -4.3734  -16.3215  -51.9686 C.ar      23 UNK        -0.1150 
     11 C11        -4.7431  -17.6193  -51.6025 C.ar      23 UNK        -0.0193 
     12 C12        -3.7548  -18.5317  -51.2321 C.ar      23 UNK        -0.1150 
     13 C13        -2.4131  -18.1522  -51.1782 C.ar      23 UNK        -0.0193 
     14 C14        -2.0536  -16.8493  -51.5328 C.ar      23 UNK        -0.1150 
     15 C15        -1.3610  -19.1597  -50.7435 C.3       23 UNK        -0.0205 
     16 S16        -0.8641  -18.9376  -49.0061 S.3       23 UNK        -0.2404 
     17 C17        -2.4236  -19.2640  -48.1132 C.3       23 UNK        -0.0398 
     18 CA         -2.6082  -20.7601  -47.7761 C.3       11 UNK         0.1400 
     19 N          -1.6955  -21.1819  -46.7067 N.am      11 UNK        -0.5000 
     20 C          -1.5020  -22.4373  -46.2887 C.2       10 UNK         0.5000 
     21 O          -2.1356  -23.3960  -46.7278 O.2       10 UNK        -0.5000 
     22 CA         -0.4924  -22.6472  -45.1471 C.3       10 UNK         0.1400 
     23 CB          0.9521  -22.4961  -45.6444 C.3       10 UNK        -0.1800 
     24 N          -0.7295  -21.7359  -44.0283 N.am      10 UNK        -0.5000 
     25 C          -1.8020  -21.7903  -43.2262 C.2       9 UNK         0.5000 
     26 O          -2.6833  -22.6436  -43.3255 O.2       9 UNK        -0.5000 
     27 CA         -1.9267  -20.6999  -42.1459 C.3       9 UNK         0.1400 
     28 CB         -1.0846  -21.0546  -40.9113 C.3       9 UNK        -0.1800 
     29 N          -1.5466  -19.3739  -42.6302 N.am      9 UNK        -0.5000 
     30 C          -2.2049  -18.6909  -43.5783 C.2       8 UNK         0.5000 
     31 O          -3.2383  -19.0839  -44.1204 O.2       8 UNK        -0.5000 
     32 CA         -1.5748  -17.3558  -44.0178 C.3       8 UNK         0.1400 
     33 CB         -1.9006  -16.2565  -42.9935 C.3       8 UNK        -0.1800 
     34 N          -0.1232  -17.4468  -44.2019 N.am      8 UNK        -0.5000 
     35 C           0.4870  -18.2909  -45.0486 C.2       7 UNK         0.5000 
     36 O          -0.1093  -19.0734  -45.7821 O.2       7 UNK        -0.5000 
     37 CA          2.0224  -18.3273  -45.0183 C.3       7 UNK         0.1400 
     38 CB          2.6243  -17.1454  -45.7940 C.3       7 UNK        -0.1800 
     39 N           2.5303  -18.3534  -43.6473 N.am      7 UNK        -0.5000 
     40 C           2.3711  -19.3878  -42.8074 C.2       6 UNK         0.5000 
     41 O           1.8203  -20.4434  -43.1181 O.2       6 UNK        -0.5000 
     42 CA          2.8749  -19.1931  -41.3662 C.3       6 UNK         0.1400 
     43 CB          4.3721  -19.5207  -41.2669 C.3       6 UNK        -0.1800 
     44 N           2.6416  -17.8355  -40.8735 N.am      6 UNK        -0.5000 
     45 C           1.4299  -17.3107  -40.6410 C.2       5 UNK         0.5000 
     46 O           0.3768  -17.9361  -40.7680 O.2       5 UNK        -0.5000 
     47 CA          1.3958  -15.8171  -40.2621 C.3       5 UNK         0.1400 
     48 CB          1.6162  -15.6338  -38.7534 C.3       5 UNK        -0.1800 
     49 N           2.3842  -15.0236  -41.0032 N.am      5 UNK        -0.5000 
     50 C           2.3566  -14.8552  -42.3307 C.2       4 UNK         0.5000 
     51 O           1.4757  -15.3303  -43.0561 O.2       4 UNK        -0.5000 
     52 CA          3.5171  -14.0727  -42.9650 C.3       4 UNK         0.1400 
     53 CB          4.7960  -14.9266  -43.0260 C.3       4 UNK        -0.1800 
     54 N           3.0919  -13.7179  -44.3094 N.am      4 UNK        -0.5000 
     55 C           3.5488  -12.7377  -45.0937 C.2       3 UNK         0.5000 
     56 O           4.5187  -12.0302  -44.8201 O.2       3 UNK        -0.5000 
     57 CA          2.7553  -12.4957  -46.3984 C.3       3 UNK         0.1400 
     58 CB          3.4217  -13.2242  -47.5756 C.3       3 UNK        -0.1800 
     59 N           1.3559  -12.9319  -46.2999 N.am      3 UNK        -0.5000 
     60 C           0.4479  -12.3771  -45.4843 C.2       2 UNK         0.5000 
     61 O           0.6444  -11.3400  -44.8479 O.2       2 UNK        -0.5000 
     62 CA         -0.8724  -13.1532  -45.3307 C.3       2 UNK         0.1400 
     63 CB         -1.8294  -12.5266  -44.2960 C.3       2 UNK        -0.1800 
     64 N          -1.5707  -13.3870  -46.5943 N.am      2 UNK        -0.5000 
     65 C          -2.0330  -12.4834  -47.4673 C.2       1 UNK         0.5000 
     66 O          -1.8125  -11.2748  -47.3794 O.2       1 UNK        -0.5000 
     67 C          -4.0979  -21.0837  -47.5146 C.2       11 UNK         0.5000 
     68 O          -4.8918  -21.0534  -48.4564 O.2       11 UNK        -0.5000 
     69 N          -4.4589  -21.4127  -46.2685 N.am      12 UNK        -0.5000 
     70 CA         -5.8004  -21.8431  -45.8889 C.3       12 UNK         0.1400 
     71 CB         -5.9355  -21.7741  -44.3606 C.3       12 UNK        -0.1800 
     72 C          -6.1724  -23.2513  -46.3989 C.2       12 UNK         0.5000 
     73 O          -7.3649  -23.5102  -46.5682 O.2       12 UNK        -0.5000 
     74 N          -5.1874  -24.1385  -46.6254 N.am      13 UNK        -0.5000 
     75 CA         -5.4486  -25.5342  -47.0064 C.3       13 UNK         0.1400 
     76 CB         -5.9091  -26.3450  -45.7789 C.3       13 UNK        -0.1800 
     77 C          -4.2641  -26.2411  -47.6857 C.2       13 UNK         0.5000 
     78 O          -4.4840  -27.0102  -48.6217 O.2       13 UNK        -0.5000 
     79 N          -3.0395  -26.0058  -47.2004 N.am      14 UNK        -0.5000 
     80 CA         -1.8186  -26.6612  -47.6797 C.3       14 UNK         0.1400 
     81 CB         -0.7634  -26.6219  -46.5628 C.3       14 UNK        -0.1800 
     82 C          -1.2510  -26.0385  -48.9700 C.2       14 UNK         0.5000 
     83 O          -0.5290  -26.7266  -49.6928 O.2       14 UNK        -0.5000 
     84 N          -1.5835  -24.7624  -49.2178 N.am      15 UNK        -0.5000 
     85 CA         -1.0739  -23.8764  -50.2722 C.3       15 UNK         0.1400 
     86 CB         -1.2100  -24.5078  -51.6740 C.3       15 UNK        -0.1800 
     87 C           0.3654  -23.4018  -49.9899 C.2       15 UNK         0.5000 
     88 O           0.9642  -23.7791  -48.9804 O.2       15 UNK        -0.5000 
     89 N           0.8933  -22.5594  -50.8819 N.am      16 UNK        -0.5000 
     90 CA          2.2447  -22.0133  -50.8138 C.3       16 UNK         0.1400 
     91 CB          2.2351  -20.7252  -49.9668 C.3       16 UNK        -0.1800 
     92 C           2.7589  -21.7610  -52.2393 C.2       16 UNK         0.5000 
     93 O           2.0579  -22.0465  -53.2124 O.2       16 UNK        -0.5000 
     94 N           3.9713  -21.2033  -52.3457 N.am      17 UNK        -0.5000 
     95 CA          4.5753  -20.7829  -53.6142 C.3       17 UNK         0.1400 
     96 CB          6.0624  -20.4749  -53.3798 C.3       17 UNK        -0.1800 
     97 C           3.8668  -19.5704  -54.2557 C.2       17 UNK         0.5000 
     98 O           3.9945  -19.3667  -55.4635 O.2       17 UNK        -0.5000 
     99 N           3.1447  -18.7881  -53.4393 N.am      18 UNK        -0.5000 
    100 CA         2.3852  -17.6095  -53.8529 C.3       18 UNK         0.1400 
    101 CB         1.9176  -16.8444  -52.6037 C.3       18 UNK        -0.1800 
    102 C          1.1909  -17.9443  -54.7657 C.2       18 UNK         0.5000 
    103 O          0.9965  -17.2609  -55.7719 O.2       18 UNK        -0.5000 
    104 N          0.4267  -18.9843  -54.4073 N.am      19 UNK        -0.5000 
    105 CA        -0.7701  -19.4516  -55.1040 C.3       19 UNK         0.1400 
    106 CB        -1.8857  -18.3825  -55.0675 C.3       19 UNK        -0.1800 
    107 C         -1.2714  -20.7482  -54.4495 C.2       19 UNK         0.5000 
    108 O         -0.8395  -21.0985  -53.3462 O.2       19 UNK        -0.5000 
    109 N         -2.2145  -21.4108  -55.1328 N.am      20 UNK        -0.5000 
    110 CA        -3.0213  -22.5106  -54.6019 C.3       20 UNK         0.1400 
    111 CB        -3.8872  -23.0819  -55.7353 C.3       20 UNK        -0.1800 
    112 C         -3.9070  -22.0465  -53.4277 C.2       20 UNK         0.5000 
    113 O         -4.2718  -20.8704  -53.3683 O.2       20 UNK        -0.5000 
    114 N         -4.2390  -22.9775  -52.5236 N.am      21 UNK        -0.5000 
    115 CA        -5.0122  -22.7158  -51.3077 C.3       21 UNK         0.1400 
    116 CB        -5.1003  -24.0016  -50.4745 C.3       21 UNK        -0.1800 
    117 C         -6.4226  -22.1625  -51.5860 C.2       21 UNK         0.5000 
    118 O         -7.0428  -22.5398  -52.5838 O.2       21 UNK        -0.5000 
    119 N         -6.9017  -21.2890  -50.6928 N.am      22 UNK        -0.5000 
    120 CA        -8.1770  -20.5658  -50.8537 C.3       22 UNK         0.1400 
    121 C         -9.4575  -21.4354  -50.6758 C.2       22 UNK         0.5000 
    122 N         -9.3744  -22.6408  -50.1261 N.am      22 UNK        -0.7600 
    123 O        -10.5470  -21.0067  -51.0463 O.2       22 UNK        -0.5000 
    124 C124       -8.2664  -19.2975  -49.9615 C.3       23 UNK        -0.0398 
    125 S125       -6.7796  -18.2380  -49.8694 S.3       23 UNK        -0.2404 
    126 C126       -6.1991  -18.0587  -51.5888 C.3       23 UNK        -0.0205 
    127 H127       -4.6509  -17.1312  -48.3146 H         1 UNK         0.0600 
    128 H128       -5.5899  -15.8365  -47.5727 H         1 UNK         0.0600 
    129 H129       -4.4553  -16.7781  -46.5963 H         1 UNK         0.0600 
    130 H130       -4.8117  -13.8802  -48.2292 H         1 UNK         0.3000 
    131 H131       -3.6348  -12.1636  -48.7879 H         1 UNK         0.0600 
    132 H132       -1.6086  -14.1657  -49.8874 H         1 UNK         0.0800 
    133 H133       -1.4296  -12.4406  -50.0881 H         1 UNK         0.0800 
    134 H134       -1.5345  -14.4468  -52.4638 H         1 UNK         0.0800 
    135 H135       -2.9870  -14.3999  -53.4266 H         1 UNK         0.0800 
    136 H136       -5.1293  -15.6121  -52.2744 H         1 UNK         0.1150 
    137 H137       -4.0399  -19.5376  -50.9589 H         1 UNK         0.1150 
    138 H138       -1.0140  -16.5568  -51.5017 H         1 UNK         0.1150 
    139 H139       -1.7237  -20.1785  -50.8881 H         1 UNK         0.0800 
    140 H140       -0.4823  -19.0612  -51.3806 H         1 UNK         0.0800 
    141 H141       -2.4281  -18.6663  -47.2001 H         1 UNK         0.0800 
    142 H142       -3.2534  -18.8841  -48.7028 H         1 UNK         0.0800 
    143 H143       -2.3429  -21.3386  -48.6618 H         1 UNK         0.0600 
    144 H144       -1.1283  -20.4386  -46.2982 H         1 UNK         0.3000 
    145 H145       -0.6140  -23.6674  -44.7779 H         1 UNK         0.0600 
    146 H146        1.6662  -22.6651  -44.8384 H         1 UNK         0.0600 
    147 H147        1.1707  -23.2237  -46.4253 H         1 UNK         0.0600 
    148 H148        1.1405  -21.5042  -46.0558 H         1 UNK         0.0600 
    149 H149       -0.0228  -21.0282  -43.8595 H         1 UNK         0.3000 
    150 H150       -2.9742  -20.6553  -41.8405 H         1 UNK         0.0600 
    151 H151       -1.3667  -22.0299  -40.5129 H         1 UNK         0.0600 
    152 H152       -1.2262  -20.3238  -40.1148 H         1 UNK         0.0600 
    153 H153       -0.0204  -21.0902  -41.1455 H         1 UNK         0.0600 
    154 H154       -0.7288  -18.9500  -42.2049 H         1 UNK         0.3000 
    155 H155       -2.0102  -17.0746  -44.9792 H         1 UNK         0.0600 
    156 H156       -1.4397  -15.3075  -43.2563 H         1 UNK         0.0600 
    157 H157       -1.5541  -16.5192  -41.9941 H         1 UNK         0.0600 
    158 H158       -2.9767  -16.0905  -42.9325 H         1 UNK         0.0600 
    159 H159        0.4480  -16.8172  -43.6453 H         1 UNK         0.3000 
    160 H160        2.3442  -19.2471  -45.5118 H         1 UNK         0.0600 
    161 H161        2.2996  -16.1869  -45.3944 H         1 UNK         0.0600 
    162 H162        2.3196  -17.1782  -46.8409 H         1 UNK         0.0600 
    163 H163        3.7138  -17.1692  -45.7720 H         1 UNK         0.0600 
    164 H164        2.9520  -17.5071  -43.2991 H         1 UNK         0.3000 
    165 H165        2.3283  -19.8877  -40.7248 H         1 UNK         0.0600 
    166 H166        4.9758  -18.8419  -41.8706 H         1 UNK         0.0600 
    167 H167        4.7222  -19.4558  -40.2365 H         1 UNK         0.0600 
    168 H168        4.5726  -20.5354  -41.6137 H         1 UNK         0.0600 
    169 H169        3.4536  -17.2519  -40.7382 H         1 UNK         0.3000 
    170 H170        0.4025  -15.4368  -40.5103 H         1 UNK         0.0600 
    171 H171        0.8821  -16.2021  -38.1804 H         1 UNK         0.0600 
    172 H172        2.6064  -15.9715  -38.4451 H         1 UNK         0.0600 
    173 H173        1.5127  -14.5878  -38.4644 H         1 UNK         0.0600 
    174 H174        3.1301  -14.6070  -40.4644 H         1 UNK         0.3000 
    175 H175        3.6925  -13.1646  -42.3850 H         1 UNK         0.0600 
    176 H176        5.6162  -14.3753  -43.4859 H         1 UNK         0.0600 
    177 H177        5.1246  -15.2180  -42.0278 H         1 UNK         0.0600 
    178 H178        4.6446  -15.8388  -43.6041 H         1 UNK         0.0600 
    179 H179        2.2597  -14.2175  -44.5954 H         1 UNK         0.3000 
    180 H180        2.7674  -11.4230  -46.6023 H         1 UNK         0.0600 
    181 H181        2.9068  -13.0134  -48.5131 H         1 UNK         0.0600 
    182 H182        4.4577  -12.9046  -47.6959 H         1 UNK         0.0600 
    183 H183        3.4268  -14.3053  -47.4297 H         1 UNK         0.0600 
    184 H184        1.1010  -13.7605  -46.8176 H         1 UNK         0.3000 
    185 H185       -0.5884  -14.1389  -44.9632 H         1 UNK         0.0600 
    186 H186       -2.7236  -13.1365  -44.1671 H         1 UNK         0.0600 
    187 H187       -1.3496  -12.4458  -43.3198 H         1 UNK         0.0600 
    188 H188       -2.1460  -11.5255  -44.5906 H         1 UNK         0.0600 
    189 H189       -1.7692  -14.3595  -46.8216 H         1 UNK         0.3000 
    190 H190       -3.7585  -21.3985  -45.5399 H         1 UNK         0.3000 
    191 H191       -6.5139  -21.1380  -46.3211 H         1 UNK         0.0600 
    192 H192       -6.9573  -21.9951  -44.0498 H         1 UNK         0.0600 
    193 H193       -5.6880  -20.7809  -43.9847 H         1 UNK         0.0600 
    194 H194       -5.2819  -22.4933  -43.8669 H         1 UNK         0.0600 
    195 H195       -4.2222  -23.8467  -46.5255 H         1 UNK         0.3000 
    196 H196       -6.2591  -25.5417  -47.7387 H         1 UNK         0.0600 
    197 H197       -6.0694  -27.3927  -46.0370 H         1 UNK         0.0600 
    198 H198       -6.8500  -25.9677  -45.3786 H         1 UNK         0.0600 
    199 H199       -5.1688  -26.3129  -44.9787 H         1 UNK         0.0600 
    200 H200       -2.9089  -25.3092  -46.4788 H         1 UNK         0.3000 
    201 H201       -2.0440  -27.7088  -47.8909 H         1 UNK         0.0600 
    202 H202       -1.1361  -27.0831  -45.6480 H         1 UNK         0.0600 
    203 H203       -0.4632  -25.6005  -46.3288 H         1 UNK         0.0600 
    204 H204        0.1354  -27.1649  -46.8578 H         1 UNK         0.0600 
    205 H205       -2.0826  -24.2927  -48.4698 H         1 UNK         0.3000 
    206 H206       -1.7079  -22.9897  -50.2476 H         1 UNK         0.0600 
    207 H207       -2.2008  -24.9335  -51.8270 H         1 UNK         0.0600 
    208 H208       -1.0470  -23.7615  -52.4499 H         1 UNK         0.0600 
    209 H209       -0.4778  -25.2982  -51.8397 H         1 UNK         0.0600 
    210 H210        0.3890  -22.3220  -51.7306 H         1 UNK         0.3000 
    211 H211        2.9127  -22.7447  -50.3541 H         1 UNK         0.0600 
    212 H212        1.6665  -19.9319  -50.4519 H         1 UNK         0.0600 
    213 H213        3.2445  -20.3505  -49.7964 H         1 UNK         0.0600 
    214 H214        1.7914  -20.8985  -48.9858 H         1 UNK         0.0600 
    215 H215        4.5037  -21.0128  -51.5090 H         1 UNK         0.3000 
    216 H216        4.5055  -21.6140  -54.3193 H         1 UNK         0.0600 
    217 H217        6.5532  -20.1867  -54.3104 H         1 UNK         0.0600 
    218 H218        6.5901  -21.3470  -52.9932 H         1 UNK         0.0600 
    219 H219        6.1975  -19.6572  -52.6707 H         1 UNK         0.0600 
    220 H220        3.1146  -19.0264  -52.4601 H         1 UNK         0.3000 
    221 H221        3.0579  -16.9582  -54.4151 H         1 UNK         0.0600 
    222 H222        1.2963  -17.4650  -51.9577 H         1 UNK         0.0600 
    223 H223        2.7663  -16.4952  -52.0153 H         1 UNK         0.0600 
    224 H224        1.3312  -15.9665  -52.8787 H         1 UNK         0.0600 
    225 H225        0.6733  -19.5444  -53.6010 H         1 UNK         0.3000 
    226 H226       -0.5031  -19.6703  -56.1397 H         1 UNK         0.0600 
    227 H227       -1.5908  -17.4597  -55.5653 H         1 UNK         0.0600 
    228 H228       -2.7884  -18.7324  -55.5691 H         1 UNK         0.0600 
    229 H229       -2.1644  -18.1348  -54.0443 H         1 UNK         0.0600 
    230 H230       -2.5234  -21.0289  -56.0141 H         1 UNK         0.3000 
    231 H231       -2.3453  -23.2920  -54.2542 H         1 UNK         0.0600 
    232 H232       -4.4824  -23.9265  -55.3858 H         1 UNK         0.0600 
    233 H233       -3.2721  -23.4392  -56.5615 H         1 UNK         0.0600 
    234 H234       -4.5785  -22.3351  -56.1282 H         1 UNK         0.0600 
    235 H235       -3.9602  -23.9341  -52.6788 H         1 UNK         0.3000 
    236 H236       -4.4510  -21.9709  -50.7440 H         1 UNK         0.0600 
    237 H237       -5.6313  -24.7920  -51.0063 H         1 UNK         0.0600 
    238 H238       -4.1124  -24.3773  -50.2160 H         1 UNK         0.0600 
    239 H239       -5.6315  -23.8196  -49.5401 H         1 UNK         0.0600 
    240 H240       -6.3358  -21.0405  -49.8863 H         1 UNK         0.3000 
    241 H241       -8.2137  -20.2254  -51.8899 H         1 UNK         0.0600 
    242 H242      -10.2082  -23.1964  -50.0176 H         1 UNK         0.3800 
    243 H243       -8.4875  -22.9985  -49.8102 H         1 UNK         0.3800 
    244 H244       -8.4989  -19.5861  -48.9348 H         1 UNK         0.0800 
    245 H245       -9.0983  -18.6717  -50.2893 H         1 UNK         0.0800 
    246 H246       -6.2736  -19.0011  -52.1302 H         1 UNK         0.0800 
    247 H247       -6.8317  -17.3423  -52.1145 H         1 UNK         0.0800 
@<TRIPOS>BOND
     1    1    2 1    
     2    1  127 1    
     3    1  128 1    
     4    1  129 1    
     5    2    3 2    
     6    2    4 am   BACKBONE|DICT|INTERRES
     7    4    5 1    
     8    4  130 1    
     9    5    6 1    
    10    5   65 1    
    11    5  131 1    
    12    6    7 1    
    13    6  132 1    
    14    6  133 1    
    15    7    8 1    
    16    8    9 1    
    17    8  134 1    
    18    8  135 1    
    19    9   10 ar   
    20    9   14 ar   
    21   10   11 ar   
    22   10  136 1    
    23   11   12 ar   
    24   11  126 1    
    25   12   13 ar   
    26   12  137 1    
    27   13   14 ar   
    28   13   15 1    
    29   14  138 1    
    30   15   16 1    
    31   15  139 1    
    32   15  140 1    
    33   16   17 1    
    34   17   18 1    
    35   17  141 1    
    36   17  142 1    
    37   18   19 1    
    38   18   67 1    
    39   18  143 1    
    40   19   20 am   BACKBONE|DICT|INTERRES
    41   19  144 1    
    42   20   21 2    
    43   20   22 1    
    44   22   23 1    
    45   22   24 1    
    46   22  145 1    
    47   23  146 1    
    48   23  147 1    
    49   23  148 1    
    50   24   25 am   BACKBONE|DICT|INTERRES
    51   24  149 1    
    52   25   26 2    
    53   25   27 1    
    54   27   28 1    
    55   27   29 1    
    56   27  150 1    
    57   28  151 1    
    58   28  152 1    
    59   28  153 1    
    60   29   30 am   BACKBONE|DICT|INTERRES
    61   29  154 1    
    62   30   31 2    
    63   30   32 1    
    64   32   33 1    
    65   32   34 1    
    66   32  155 1    
    67   33  156 1    
    68   33  157 1    
    69   33  158 1    
    70   34   35 am   BACKBONE|DICT|INTERRES
    71   34  159 1    
    72   35   36 2    
    73   35   37 1    
    74   37   38 1    
    75   37   39 1    
    76   37  160 1    
    77   38  161 1    
    78   38  162 1    
    79   38  163 1    
    80   39   40 am   BACKBONE|DICT|INTERRES
    81   39  164 1    
    82   40   41 2    
    83   40   42 1    
    84   42   43 1    
    85   42   44 1    
    86   42  165 1    
    87   43  166 1    
    88   43  167 1    
    89   43  168 1    
    90   44   45 am   BACKBONE|DICT|INTERRES
    91   44  169 1    
    92   45   46 2    
    93   45   47 1    
    94   47   48 1    
    95   47   49 1    
    96   47  170 1    
    97   48  171 1    
    98   48  172 1    
    99   48  173 1    
   100   49   50 am   BACKBONE|DICT|INTERRES
   101   49  174 1    
   102   50   51 2    
   103   50   52 1    
   104   52   53 1    
   105   52   54 1    
   106   52  175 1    
   107   53  176 1    
   108   53  177 1    
   109   53  178 1    
   110   54   55 am   BACKBONE|DICT|INTERRES
   111   54  179 1    
   112   55   56 2    
   113   55   57 1    
   114   57   58 1    
   115   57   59 1    
   116   57  180 1    
   117   58  181 1    
   118   58  182 1    
   119   58  183 1    
   120   59   60 am   BACKBONE|DICT|INTERRES
   121   59  184 1    
   122   60   61 2    
   123   60   62 1    
   124   62   63 1    
   125   62   64 1    
   126   62  185 1    
   127   63  186 1    
   128   63  187 1    
   129   63  188 1    
   130   64   65 am   BACKBONE|DICT|INTERRES
   131   64  189 1    
   132   65   66 2    
   133   67   68 2    
   134   67   69 am   BACKBONE|DICT|INTERRES
   135   69   70 1    
   136   69  190 1    
   137   70   71 1    
   138   70   72 1    
   139   70  191 1    
   140   71  192 1    
   141   71  193 1    
   142   71  194 1    
   143   72   73 2    
   144   72   74 am   BACKBONE|DICT|INTERRES
   145   74   75 1    
   146   74  195 1    
   147   75   76 1    
   148   75   77 1    
   149   75  196 1    
   150   76  197 1    
   151   76  198 1    
   152   76  199 1    
   153   77   78 2    
   154   77   79 am   BACKBONE|DICT|INTERRES
   155   79   80 1    
   156   79  200 1    
   157   80   81 1    
   158   80   82 1    
   159   80  201 1    
   160   81  202 1    
   161   81  203 1    
   162   81  204 1    
   163   82   83 2    
   164   82   84 am   BACKBONE|DICT|INTERRES
   165   84   85 1    
   166   84  205 1    
   167   85   86 1    
   168   85   87 1    
   169   85  206 1    
   170   86  207 1    
   171   86  208 1    
   172   86  209 1    
   173   87   88 2    
   174   87   89 am   BACKBONE|DICT|INTERRES
   175   89   90 1    
   176   89  210 1    
   177   90   91 1    
   178   90   92 1    
   179   90  211 1    
   180   91  212 1    
   181   91  213 1    
   182   91  214 1    
   183   92   93 2    
   184   92   94 am   BACKBONE|DICT|INTERRES
   185   94   95 1    
   186   94  215 1    
   187   95   96 1    
   188   95   97 1    
   189   95  216 1    
   190   96  217 1    
   191   96  218 1    
   192   96  219 1    
   193   97   98 2    
   194   97   99 am   BACKBONE|DICT|INTERRES
   195   99  100 1    
   196   99  220 1    
   197  100  101 1    
   198  100  102 1    
   199  100  221 1    
   200  101  222 1    
   201  101  223 1    
   202  101  224 1    
   203  102  103 2    
   204  102  104 am   BACKBONE|DICT|INTERRES
   205  104  105 1    
   206  104  225 1    
   207  105  106 1    
   208  105  107 1    
   209  105  226 1    
   210  106  227 1    
   211  106  228 1    
   212  106  229 1    
   213  107  108 2    
   214  107  109 am   BACKBONE|DICT|INTERRES
   215  109  110 1    
   216  109  230 1    
   217  110  111 1    
   218  110  112 1    
   219  110  231 1    
   220  111  232 1    
   221  111  233 1    
   222  111  234 1    
   223  112  113 2    
   224  112  114 am   BACKBONE|DICT|INTERRES
   225  114  115 1    
   226  114  235 1    
   227  115  116 1    
   228  115  117 1    
   229  115  236 1    
   230  116  237 1    
   231  116  238 1    
   232  116  239 1    
   233  117  118 2    
   234  117  119 am   BACKBONE|DICT|INTERRES
   235  119  120 1    
   236  119  240 1    
   237  120  121 1    
   238  120  124 1    
   239  120  241 1    
   240  121  122 am   BACKBONE|DICT|INTERRES
   241  121  123 2    
   242  122  242 1    
   243  122  243 1    
   244  124  125 1    
   245  124  244 1    
   246  124  245 1    
   247  125  126 1    
   248  126  246 1    
   249  126  247 1    
@<TRIPOS>SUBSTRUCTURE
     1 UNK         1 GROUP             0       ****    0 ROOT    
