@<TRIPOS>MOLECULE
3R540
247   249    1
SMALL
USER_CHARGES


@<TRIPOS>ATOM
      1 CA          1.0197  -13.9240  -49.9337 C.3       0 UNK        -0.1800 
      2 C           2.4760  -14.3313  -49.7676 C.2       0 UNK         0.5000 
      3 O           3.3625  -13.6821  -50.3227 O.2       0 UNK        -0.5000 
      4 N           2.7239  -15.4052  -49.0088 N.am      1 UNK        -0.5000 
      5 CA          4.0568  -15.9110  -48.6720 C.3       1 UNK         0.1400 
      6 C6          4.0040  -17.3429  -48.0874 C.3       23 UNK        -0.0398 
      7 S7          3.4746  -18.5869  -49.3116 S.3       23 UNK        -0.2404 
      8 C8          1.8955  -19.1565  -48.6104 C.3       23 UNK        -0.0205 
      9 C9          0.7572  -18.1928  -48.8968 C.ar      23 UNK        -0.0193 
     10 C10         0.2402  -18.0930  -50.1911 C.ar      23 UNK        -0.1150 
     11 C11        -0.8314  -17.2404  -50.4659 C.ar      23 UNK        -0.0193 
     12 C12        -1.3961  -16.4938  -49.4295 C.ar      23 UNK        -0.1150 
     13 C13        -0.8930  -16.5910  -48.1293 C.ar      23 UNK        -0.0193 
     14 C14         0.1975  -17.4275  -47.8699 C.ar      23 UNK        -0.1150 
     15 C15        -1.5499  -15.8069  -47.0066 C.3       23 UNK        -0.0205 
     16 S16        -3.0013  -16.6847  -46.3481 S.3       23 UNK        -0.2404 
     17 C17        -2.2092  -18.0399  -45.4223 C.3       23 UNK        -0.0398 
     18 CA         -2.1120  -19.3590  -46.2297 C.3       11 UNK         0.1400 
     19 N          -1.0107  -20.1995  -45.7521 N.am      11 UNK        -0.5000 
     20 C          -0.5847  -21.3333  -46.3231 C.2       10 UNK         0.5000 
     21 O          -1.0283  -21.7677  -47.3827 O.2       10 UNK        -0.5000 
     22 CA          0.4741  -22.1484  -45.5614 C.3       10 UNK         0.1400 
     23 CB          1.8963  -21.7238  -45.9510 C.3       10 UNK        -0.1800 
     24 N           0.3058  -22.0272  -44.1144 N.am      10 UNK        -0.5000 
     25 C          -0.6239  -22.6838  -43.4079 C.2       9 UNK         0.5000 
     26 O          -1.3922  -23.5133  -43.8949 O.2       9 UNK        -0.5000 
     27 CA         -0.7341  -22.3260  -41.9132 C.3       9 UNK         0.1400 
     28 CB          0.2728  -23.1393  -41.0863 C.3       9 UNK        -0.1800 
     29 N          -0.5347  -20.8978  -41.6514 N.am      9 UNK        -0.5000 
     30 C          -1.3744  -19.9341  -42.0538 C.2       8 UNK         0.5000 
     31 O          -2.4133  -20.1533  -42.6765 O.2       8 UNK        -0.5000 
     32 CA         -0.9675  -18.4779  -41.7536 C.3       8 UNK         0.1400 
     33 CB         -1.4382  -18.0715  -40.3498 C.3       8 UNK        -0.1800 
     34 N           0.4655  -18.1915  -41.8862 N.am      8 UNK        -0.5000 
     35 C           1.2239  -18.4422  -42.9643 C.2       7 UNK         0.5000 
     36 O           0.8147  -19.0563  -43.9489 O.2       7 UNK        -0.5000 
     37 CA          2.6701  -17.9148  -42.9448 C.3       7 UNK         0.1400 
     38 CB          3.2217  -17.6936  -44.3652 C.3       7 UNK        -0.1800 
     39 N           2.7423  -16.6481  -42.2226 N.am      7 UNK        -0.5000 
     40 C           3.3624  -16.4389  -41.0546 C.2       6 UNK         0.5000 
     41 O           3.9342  -17.3236  -40.4175 O.2       6 UNK        -0.5000 
     42 CA          3.3507  -14.9980  -40.5025 C.3       6 UNK         0.1400 
     43 CB          4.7377  -14.3579  -40.6660 C.3       6 UNK        -0.1800 
     44 N           2.3577  -14.1404  -41.1543 N.am      6 UNK        -0.5000 
     45 C           1.0370  -14.1954  -40.9335 C.2       5 UNK         0.5000 
     46 O           0.5150  -14.9389  -40.1033 O.2       5 UNK        -0.5000 
     47 CA          0.1519  -13.2953  -41.8168 C.3       5 UNK         0.1400 
     48 CB         -0.0986  -11.9449  -41.1298 C.3       5 UNK        -0.1800 
     49 N           0.7148  -13.0563  -43.1488 N.am      5 UNK        -0.5000 
     50 C           0.8969  -13.9881  -44.0922 C.2       4 UNK         0.5000 
     51 O           0.6274  -15.1778  -43.9320 O.2       4 UNK        -0.5000 
     52 CA          1.5306  -13.5297  -45.4169 C.3       4 UNK         0.1400 
     53 CB          0.5662  -12.6665  -46.2533 C.3       4 UNK        -0.1800 
     54 N           2.8336  -12.8779  -45.2453 N.am      4 UNK        -0.5000 
     55 C           3.1203  -11.6828  -44.7046 C.2       3 UNK         0.5000 
     56 O           2.2723  -10.9336  -44.2175 O.2       3 UNK        -0.5000 
     57 CA          4.6016  -11.2502  -44.6719 C.3       3 UNK         0.1400 
     58 CB          5.1249  -11.2303  -43.2272 C.3       3 UNK        -0.1800 
     59 N           5.4807  -12.1007  -45.4772 N.am      3 UNK        -0.5000 
     60 C           5.5591  -12.0788  -46.8142 C.2       2 UNK         0.5000 
     61 O           4.9300  -11.2906  -47.5213 O.2       2 UNK        -0.5000 
     62 CA          6.4725  -13.1276  -47.4837 C.3       2 UNK         0.1400 
     63 CB          7.4751  -13.8020  -46.5191 C.3       2 UNK        -0.1800 
     64 N           5.6915  -14.1407  -48.2007 N.am      2 UNK        -0.5000 
     65 C           4.7506  -14.9474  -47.6886 C.2       1 UNK         0.5000 
     66 O           4.4132  -14.9478  -46.5025 O.2       1 UNK        -0.5000 
     67 C          -3.4491  -20.1263  -46.2463 C.2       11 UNK         0.5000 
     68 O          -4.1575  -20.0953  -47.2522 O.2       11 UNK        -0.5000 
     69 N          -3.7298  -20.8667  -45.1640 N.am      12 UNK        -0.5000 
     70 CA         -4.8921  -21.7483  -45.0252 C.3       12 UNK         0.1400 
     71 CB         -4.9495  -22.2742  -43.5831 C.3       12 UNK        -0.1800 
     72 C          -4.9086  -22.9196  -46.0297 C.2       12 UNK         0.5000 
     73 O          -5.9868  -23.3977  -46.3816 O.2       12 UNK        -0.5000 
     74 N          -3.7227  -23.3453  -46.4832 N.am      13 UNK        -0.5000 
     75 CA         -3.5317  -24.3624  -47.5176 C.3       13 UNK         0.1400 
     76 CB         -2.2462  -25.1433  -47.1977 C.3       13 UNK        -0.1800 
     77 C          -3.4514  -23.7652  -48.9373 C.2       13 UNK         0.5000 
     78 O          -3.3423  -24.5325  -49.8951 O.2       13 UNK        -0.5000 
     79 N          -3.4630  -22.4261  -49.0526 N.am      14 UNK        -0.5000 
     80 CA         -3.2296  -21.6304  -50.2632 C.3       14 UNK         0.1400 
     81 CB         -4.4494  -21.7106  -51.1977 C.3       14 UNK        -0.1800 
     82 C          -1.9068  -22.0162  -50.9572 C.2       14 UNK         0.5000 
     83 O          -1.8933  -22.3263  -52.1513 O.2       14 UNK        -0.5000 
     84 N          -0.8382  -22.0954  -50.1509 N.am      15 UNK        -0.5000 
     85 CA          0.4651  -22.7113  -50.4147 C.3       15 UNK         0.1400 
     86 CB          1.2079  -22.0333  -51.5834 C.3       15 UNK        -0.1800 
     87 C           0.3433  -24.2368  -50.5930 C.2       15 UNK         0.5000 
     88 O           0.8357  -24.9900  -49.7525 O.2       15 UNK        -0.5000 
     89 N          -0.3445  -24.6532  -51.6600 N.am      16 UNK        -0.5000 
     90 CA         -0.7238  -26.0332  -51.9534 C.3       16 UNK         0.1400 
     91 CB          0.4557  -26.7598  -52.6281 C.3       16 UNK        -0.1800 
     92 C          -2.0079  -26.1209  -52.8060 C.2       16 UNK         0.5000 
     93 O          -2.3889  -27.2266  -53.1932 O.2       16 UNK        -0.5000 
     94 N          -2.6518  -24.9829  -53.1124 N.am      17 UNK        -0.5000 
     95 CA         -3.8167  -24.9052  -53.9984 C.3       17 UNK         0.1400 
     96 CB         -3.8582  -23.5046  -54.6286 C.3       17 UNK        -0.1800 
     97 C          -5.1553  -25.2253  -53.3040 C.2       17 UNK         0.5000 
     98 O          -6.1743  -25.3108  -53.9930 O.2       17 UNK        -0.5000 
     99 N          -5.1484  -25.3616  -51.9694 N.am      18 UNK        -0.5000 
    100 CA        -6.2745  -25.5985  -51.0587 C.3       18 UNK         0.1400 
    101 CB        -6.9733  -26.9414  -51.3512 C.3       18 UNK        -0.1800 
    102 C         -7.2686  -24.4235  -51.0089 C.2       18 UNK         0.5000 
    103 O         -7.3932  -23.7739  -49.9712 O.2       18 UNK        -0.5000 
    104 N         -7.9431  -24.1705  -52.1333 N.am      19 UNK        -0.5000 
    105 CA        -8.9000  -23.0844  -52.3332 C.3       19 UNK         0.1400 
    106 CB       -10.2978  -23.5460  -51.8814 C.3       19 UNK        -0.1800 
    107 C         -8.9150  -22.5758  -53.7886 C.2       19 UNK         0.5000 
    108 O         -9.6846  -21.6629  -54.0910 O.2       19 UNK        -0.5000 
    109 N         -8.0864  -23.1531  -54.6747 N.am      20 UNK        -0.5000 
    110 CA        -8.0125  -22.7895  -56.0943 C.3       20 UNK         0.1400 
    111 CB        -7.4591  -23.9860  -56.8860 C.3       20 UNK        -0.1800 
    112 C         -7.1880  -21.5130  -56.3673 C.2       20 UNK         0.5000 
    113 O         -7.1701  -21.0403  -57.5049 O.2       20 UNK        -0.5000 
    114 N         -6.5260  -20.9755  -55.3376 N.am      21 UNK        -0.5000 
    115 CA        -5.7528  -19.7396  -55.3622 C.3       21 UNK         0.1400 
    116 CB        -4.3079  -20.0405  -55.8043 C.3       21 UNK        -0.1800 
    117 C         -5.7934  -19.1030  -53.9638 C.2       21 UNK         0.5000 
    118 O         -6.3436  -19.6982  -53.0333 O.2       21 UNK        -0.5000 
    119 N         -5.1947  -17.9116  -53.8461 N.am      22 UNK        -0.5000 
    120 CA        -4.9750  -17.1621  -52.5925 C.3       22 UNK         0.1400 
    121 C         -6.2626  -16.5857  -51.9263 C.2       22 UNK         0.5000 
    122 N         -7.4020  -16.5498  -52.6061 N.am      22 UNK        -0.7600 
    123 O         -6.2247  -16.1260  -50.7884 O.2       22 UNK        -0.5000 
    124 C124       -4.0676  -17.9150  -51.5746 C.3       23 UNK        -0.0398 
    125 S125       -2.4920  -18.4841  -52.3072 S.3       23 UNK        -0.2404 
    126 C126       -1.3632  -17.1212  -51.8852 C.3       23 UNK        -0.0205 
    127 H127        0.5927  -14.4012  -50.8157 H         1 UNK         0.0600 
    128 H128        0.9373  -12.8437  -50.0531 H         1 UNK         0.0600 
    129 H129        0.4285  -14.2086  -49.0641 H         1 UNK         0.0600 
    130 H130        1.9499  -15.9214  -48.6159 H         1 UNK         0.3000 
    131 H131        4.6491  -15.9488  -49.5890 H         1 UNK         0.0600 
    132 H132        3.3486  -17.3761  -47.2172 H         1 UNK         0.0800 
    133 H133        4.9906  -17.6462  -47.7322 H         1 UNK         0.0800 
    134 H134        2.0070  -19.3138  -47.5382 H         1 UNK         0.0800 
    135 H135        1.6500  -20.1292  -49.0369 H         1 UNK         0.0800 
    136 H136        0.6727  -18.6812  -50.9878 H         1 UNK         0.1150 
    137 H137       -2.2330  -15.8401  -49.6306 H         1 UNK         0.1150 
    138 H138        0.5833  -17.5117  -46.8629 H         1 UNK         0.1150 
    139 H139       -0.8391  -15.6108  -46.2037 H         1 UNK         0.0800 
    140 H140       -1.8707  -14.8338  -47.3805 H         1 UNK         0.0800 
    141 H141       -2.7603  -18.1861  -44.4927 H         1 UNK         0.0800 
    142 H142       -1.2164  -17.7047  -45.1198 H         1 UNK         0.0800 
    143 H143       -1.8797  -19.1185  -47.2683 H         1 UNK         0.0600 
    144 H144       -0.5177  -19.8742  -44.9245 H         1 UNK         0.3000 
    145 H145        0.3503  -23.1959  -45.8446 H         1 UNK         0.0600 
    146 H146        2.6393  -22.3628  -45.4739 H         1 UNK         0.0600 
    147 H147        2.1058  -20.6960  -45.6573 H         1 UNK         0.0600 
    148 H148        2.0465  -21.8026  -47.0282 H         1 UNK         0.0600 
    149 H149        0.8462  -21.3061  -43.6566 H         1 UNK         0.3000 
    150 H150       -1.7405  -22.5931  -41.5834 H         1 UNK         0.0600 
    151 H151        0.1352  -24.2094  -41.2471 H         1 UNK         0.0600 
    152 H152        0.1479  -22.9537  -40.0194 H         1 UNK         0.0600 
    153 H153        1.3026  -22.8971  -41.3517 H         1 UNK         0.0600 
    154 H154        0.3010  -20.6330  -41.1511 H         1 UNK         0.3000 
    155 H155       -1.4834  -17.8420  -42.4745 H         1 UNK         0.0600 
    156 H156       -2.5035  -18.2682  -40.2210 H         1 UNK         0.0600 
    157 H157       -1.2847  -17.0068  -40.1751 H         1 UNK         0.0600 
    158 H158       -0.9057  -18.6200  -39.5719 H         1 UNK         0.0600 
    159 H159        0.8849  -17.6687  -41.1309 H         1 UNK         0.3000 
    160 H160        3.2811  -18.6757  -42.4559 H         1 UNK         0.0600 
    161 H161        4.2361  -17.2952  -44.3386 H         1 UNK         0.0600 
    162 H162        3.2567  -18.6277  -44.9264 H         1 UNK         0.0600 
    163 H163        2.6043  -16.9917  -44.9272 H         1 UNK         0.0600 
    164 H164        2.2290  -15.8847  -42.6460 H         1 UNK         0.3000 
    165 H165        3.1197  -15.0515  -39.4365 H         1 UNK         0.0600 
    166 H166        4.7515  -13.3351  -40.2889 H         1 UNK         0.0600 
    167 H167        5.4921  -14.9175  -40.1113 H         1 UNK         0.0600 
    168 H168        5.0496  -14.3398  -41.7107 H         1 UNK         0.0600 
    169 H169        2.6983  -13.4974  -41.8531 H         1 UNK         0.3000 
    170 H170       -0.8077  -13.8009  -41.9435 H         1 UNK         0.0600 
    171 H171        0.8260  -11.3797  -41.0049 H         1 UNK         0.0600 
    172 H172       -0.7908  -11.3317  -41.7070 H         1 UNK         0.0600 
    173 H173       -0.5361  -12.0841  -40.1402 H         1 UNK         0.0600 
    174 H174        1.0211  -12.1110  -43.3632 H         1 UNK         0.3000 
    175 H175        1.7303  -14.4345  -45.9936 H         1 UNK         0.0600 
    176 H176        0.2995  -11.7372  -45.7501 H         1 UNK         0.0600 
    177 H177        1.0072  -12.4089  -47.2161 H         1 UNK         0.0600 
    178 H178       -0.3633  -13.1975  -46.4524 H         1 UNK         0.0600 
    179 H179        3.6122  -13.4346  -45.5881 H         1 UNK         0.3000 
    180 H180        4.6485  -10.2322  -45.0640 H         1 UNK         0.0600 
    181 H181        6.1457  -10.8500  -43.1831 H         1 UNK         0.0600 
    182 H182        5.1188  -12.2256  -42.7847 H         1 UNK         0.0600 
    183 H183        4.5131  -10.5854  -42.5948 H         1 UNK         0.0600 
    184 H184        6.0171  -12.7963  -44.9792 H         1 UNK         0.3000 
    185 H185        7.0520  -12.5903  -48.2358 H         1 UNK         0.0600 
    186 H186        8.1558  -14.4553  -47.0650 H         1 UNK         0.0600 
    187 H187        8.0888  -13.0593  -46.0075 H         1 UNK         0.0600 
    188 H188        6.9814  -14.4083  -45.7590 H         1 UNK         0.0600 
    189 H189        5.8338  -14.1613  -49.2014 H         1 UNK         0.3000 
    190 H190       -3.1189  -20.7968  -44.3543 H         1 UNK         0.3000 
    191 H191       -5.7865  -21.1490  -45.2069 H         1 UNK         0.0600 
    192 H192       -5.0220  -21.4552  -42.8671 H         1 UNK         0.0600 
    193 H193       -4.0631  -22.8585  -43.3335 H         1 UNK         0.0600 
    194 H194       -5.8194  -22.9150  -43.4336 H         1 UNK         0.0600 
    195 H195       -2.8855  -22.9014  -46.1318 H         1 UNK         0.3000 
    196 H196       -4.3683  -25.0639  -47.5043 H         1 UNK         0.0600 
    197 H197       -2.2849  -25.5774  -46.1984 H         1 UNK         0.0600 
    198 H198       -1.3634  -24.5055  -47.2520 H         1 UNK         0.0600 
    199 H199       -2.0988  -25.9623  -47.9029 H         1 UNK         0.0600 
    200 H200       -3.5659  -21.8822  -48.2045 H         1 UNK         0.3000 
    201 H201       -3.1189  -20.5935  -49.9428 H         1 UNK         0.0600 
    202 H202       -5.3492  -21.3396  -50.7069 H         1 UNK         0.0600 
    203 H203       -4.6442  -22.7295  -51.5233 H         1 UNK         0.0600 
    204 H204       -4.2915  -21.1065  -52.0905 H         1 UNK         0.0600 
    205 H205       -0.9963  -21.8846  -49.1658 H         1 UNK         0.3000 
    206 H206        1.0572  -22.5461  -49.5134 H         1 UNK         0.0600 
    207 H207        0.6880  -22.1487  -52.5342 H         1 UNK         0.0600 
    208 H208        1.3332  -20.9665  -51.4022 H         1 UNK         0.0600 
    209 H209        2.2039  -22.4600  -51.7055 H         1 UNK         0.0600 
    210 H210       -0.7345  -23.9344  -52.2587 H         1 UNK         0.3000 
    211 H211       -0.9526  -26.5370  -51.0119 H         1 UNK         0.0600 
    212 H212        0.7244  -26.2886  -53.5741 H         1 UNK         0.0600 
    213 H213        0.2119  -27.8023  -52.8360 H         1 UNK         0.0600 
    214 H214        1.3398  -26.7592  -51.9907 H         1 UNK         0.0600 
    215 H215       -2.3477  -24.0989  -52.7173 H         1 UNK         0.3000 
    216 H216       -3.6941  -25.6291  -54.8067 H         1 UNK         0.0600 
    217 H217       -4.6555  -23.4234  -55.3661 H         1 UNK         0.0600 
    218 H218       -2.9236  -23.2725  -55.1393 H         1 UNK         0.0600 
    219 H219       -4.0289  -22.7323  -53.8804 H         1 UNK         0.0600 
    220 H220       -4.2675  -25.1960  -51.4898 H         1 UNK         0.3000 
    221 H221       -5.8375  -25.6783  -50.0623 H         1 UNK         0.0600 
    222 H222       -7.4311  -26.9674  -52.3400 H         1 UNK         0.0600 
    223 H223       -6.2676  -27.7697  -51.2902 H         1 UNK         0.0600 
    224 H224       -7.7626  -27.1331  -50.6234 H         1 UNK         0.0600 
    225 H225       -7.7312  -24.7529  -52.9358 H         1 UNK         0.3000 
    226 H226       -8.5998  -22.2314  -51.7207 H         1 UNK         0.0600 
    227 H227      -10.2984  -23.8340  -50.8300 H         1 UNK         0.0600 
    228 H228      -11.0338  -22.7494  -51.9967 H         1 UNK         0.0600 
    229 H229      -10.6428  -24.4012  -52.4635 H         1 UNK         0.0600 
    230 H230       -7.4477  -23.8829  -54.3784 H         1 UNK         0.3000 
    231 H231       -9.0243  -22.5959  -56.4568 H         1 UNK         0.0600 
    232 H232       -7.4385  -23.7735  -57.9556 H         1 UNK         0.0600 
    233 H233       -8.0795  -24.8712  -56.7449 H         1 UNK         0.0600 
    234 H234       -6.4439  -24.2402  -56.5837 H         1 UNK         0.0600 
    235 H235       -6.6526  -21.3654  -54.4127 H         1 UNK         0.3000 
    236 H236       -6.2120  -19.0388  -56.0624 H         1 UNK         0.0600 
    237 H237       -3.7756  -20.6332  -55.0600 H         1 UNK         0.0600 
    238 H238       -4.2841  -20.5861  -56.7477 H         1 UNK         0.0600 
    239 H239       -3.7408  -19.1209  -55.9507 H         1 UNK         0.0600 
    240 H240       -4.7857  -17.4947  -54.6698 H         1 UNK         0.3000 
    241 H241       -4.4223  -16.2731  -52.8977 H         1 UNK         0.0600 
    242 H242       -8.2267  -16.1646  -52.1733 H         1 UNK         0.3800 
    243 H243       -7.4516  -16.9186  -53.5421 H         1 UNK         0.3800 
    244 H244       -4.5923  -18.7825  -51.1742 H         1 UNK         0.0800 
    245 H245       -3.8475  -17.2843  -50.7131 H         1 UNK         0.0800 
    246 H246       -1.8644  -16.1635  -52.0334 H         1 UNK         0.0800 
    247 H247       -0.5254  -17.1343  -52.5838 H         1 UNK         0.0800 
@<TRIPOS>BOND
     1    1    2 1    
     2    1  127 1    
     3    1  128 1    
     4    1  129 1    
     5    2    3 2    
     6    2    4 am   BACKBONE|DICT|INTERRES
     7    4    5 1    
     8    4  130 1    
     9    5    6 1    
    10    5   65 1    
    11    5  131 1    
    12    6    7 1    
    13    6  132 1    
    14    6  133 1    
    15    7    8 1    
    16    8    9 1    
    17    8  134 1    
    18    8  135 1    
    19    9   10 ar   
    20    9   14 ar   
    21   10   11 ar   
    22   10  136 1    
    23   11   12 ar   
    24   11  126 1    
    25   12   13 ar   
    26   12  137 1    
    27   13   14 ar   
    28   13   15 1    
    29   14  138 1    
    30   15   16 1    
    31   15  139 1    
    32   15  140 1    
    33   16   17 1    
    34   17   18 1    
    35   17  141 1    
    36   17  142 1    
    37   18   19 1    
    38   18   67 1    
    39   18  143 1    
    40   19   20 am   BACKBONE|DICT|INTERRES
    41   19  144 1    
    42   20   21 2    
    43   20   22 1    
    44   22   23 1    
    45   22   24 1    
    46   22  145 1    
    47   23  146 1    
    48   23  147 1    
    49   23  148 1    
    50   24   25 am   BACKBONE|DICT|INTERRES
    51   24  149 1    
    52   25   26 2    
    53   25   27 1    
    54   27   28 1    
    55   27   29 1    
    56   27  150 1    
    57   28  151 1    
    58   28  152 1    
    59   28  153 1    
    60   29   30 am   BACKBONE|DICT|INTERRES
    61   29  154 1    
    62   30   31 2    
    63   30   32 1    
    64   32   33 1    
    65   32   34 1    
    66   32  155 1    
    67   33  156 1    
    68   33  157 1    
    69   33  158 1    
    70   34   35 am   BACKBONE|DICT|INTERRES
    71   34  159 1    
    72   35   36 2    
    73   35   37 1    
    74   37   38 1    
    75   37   39 1    
    76   37  160 1    
    77   38  161 1    
    78   38  162 1    
    79   38  163 1    
    80   39   40 am   BACKBONE|DICT|INTERRES
    81   39  164 1    
    82   40   41 2    
    83   40   42 1    
    84   42   43 1    
    85   42   44 1    
    86   42  165 1    
    87   43  166 1    
    88   43  167 1    
    89   43  168 1    
    90   44   45 am   BACKBONE|DICT|INTERRES
    91   44  169 1    
    92   45   46 2    
    93   45   47 1    
    94   47   48 1    
    95   47   49 1    
    96   47  170 1    
    97   48  171 1    
    98   48  172 1    
    99   48  173 1    
   100   49   50 am   BACKBONE|DICT|INTERRES
   101   49  174 1    
   102   50   51 2    
   103   50   52 1    
   104   52   53 1    
   105   52   54 1    
   106   52  175 1    
   107   53  176 1    
   108   53  177 1    
   109   53  178 1    
   110   54   55 am   BACKBONE|DICT|INTERRES
   111   54  179 1    
   112   55   56 2    
   113   55   57 1    
   114   57   58 1    
   115   57   59 1    
   116   57  180 1    
   117   58  181 1    
   118   58  182 1    
   119   58  183 1    
   120   59   60 am   BACKBONE|DICT|INTERRES
   121   59  184 1    
   122   60   61 2    
   123   60   62 1    
   124   62   63 1    
   125   62   64 1    
   126   62  185 1    
   127   63  186 1    
   128   63  187 1    
   129   63  188 1    
   130   64   65 am   BACKBONE|DICT|INTERRES
   131   64  189 1    
   132   65   66 2    
   133   67   68 2    
   134   67   69 am   BACKBONE|DICT|INTERRES
   135   69   70 1    
   136   69  190 1    
   137   70   71 1    
   138   70   72 1    
   139   70  191 1    
   140   71  192 1    
   141   71  193 1    
   142   71  194 1    
   143   72   73 2    
   144   72   74 am   BACKBONE|DICT|INTERRES
   145   74   75 1    
   146   74  195 1    
   147   75   76 1    
   148   75   77 1    
   149   75  196 1    
   150   76  197 1    
   151   76  198 1    
   152   76  199 1    
   153   77   78 2    
   154   77   79 am   BACKBONE|DICT|INTERRES
   155   79   80 1    
   156   79  200 1    
   157   80   81 1    
   158   80   82 1    
   159   80  201 1    
   160   81  202 1    
   161   81  203 1    
   162   81  204 1    
   163   82   83 2    
   164   82   84 am   BACKBONE|DICT|INTERRES
   165   84   85 1    
   166   84  205 1    
   167   85   86 1    
   168   85   87 1    
   169   85  206 1    
   170   86  207 1    
   171   86  208 1    
   172   86  209 1    
   173   87   88 2    
   174   87   89 am   BACKBONE|DICT|INTERRES
   175   89   90 1    
   176   89  210 1    
   177   90   91 1    
   178   90   92 1    
   179   90  211 1    
   180   91  212 1    
   181   91  213 1    
   182   91  214 1    
   183   92   93 2    
   184   92   94 am   BACKBONE|DICT|INTERRES
   185   94   95 1    
   186   94  215 1    
   187   95   96 1    
   188   95   97 1    
   189   95  216 1    
   190   96  217 1    
   191   96  218 1    
   192   96  219 1    
   193   97   98 2    
   194   97   99 am   BACKBONE|DICT|INTERRES
   195   99  100 1    
   196   99  220 1    
   197  100  101 1    
   198  100  102 1    
   199  100  221 1    
   200  101  222 1    
   201  101  223 1    
   202  101  224 1    
   203  102  103 2    
   204  102  104 am   BACKBONE|DICT|INTERRES
   205  104  105 1    
   206  104  225 1    
   207  105  106 1    
   208  105  107 1    
   209  105  226 1    
   210  106  227 1    
   211  106  228 1    
   212  106  229 1    
   213  107  108 2    
   214  107  109 am   BACKBONE|DICT|INTERRES
   215  109  110 1    
   216  109  230 1    
   217  110  111 1    
   218  110  112 1    
   219  110  231 1    
   220  111  232 1    
   221  111  233 1    
   222  111  234 1    
   223  112  113 2    
   224  112  114 am   BACKBONE|DICT|INTERRES
   225  114  115 1    
   226  114  235 1    
   227  115  116 1    
   228  115  117 1    
   229  115  236 1    
   230  116  237 1    
   231  116  238 1    
   232  116  239 1    
   233  117  118 2    
   234  117  119 am   BACKBONE|DICT|INTERRES
   235  119  120 1    
   236  119  240 1    
   237  120  121 1    
   238  120  124 1    
   239  120  241 1    
   240  121  122 am   BACKBONE|DICT|INTERRES
   241  121  123 2    
   242  122  242 1    
   243  122  243 1    
   244  124  125 1    
   245  124  244 1    
   246  124  245 1    
   247  125  126 1    
   248  126  246 1    
   249  126  247 1    
@<TRIPOS>SUBSTRUCTURE
     1 UNK         1 GROUP             0       ****    0 ROOT    
