@<TRIPOS>MOLECULE
3R540
247   249    1
SMALL
USER_CHARGES


@<TRIPOS>ATOM
      1 CA         -5.7277  -16.5902  -50.6780 C.3       0 UNK        -0.1800 
      2 C          -5.4793  -17.5219  -49.4944 C.2       0 UNK         0.5000 
      3 O          -6.1885  -18.5134  -49.3499 O.2       0 UNK        -0.5000 
      4 N          -4.4942  -17.2527  -48.6301 N.am      1 UNK        -0.5000 
      5 CA         -3.5937  -16.0994  -48.6510 C.3       1 UNK         0.1400 
      6 C6         -2.3537  -16.3564  -49.5434 C.3       23 UNK        -0.0398 
      7 S7         -1.7486  -14.8495  -50.3751 S.3       23 UNK        -0.2404 
      8 C8         -0.0968  -14.6434  -49.6377 C.3       23 UNK        -0.0205 
      9 C9          0.8154  -15.8279  -49.9209 C.ar      23 UNK        -0.0193 
     10 C10         1.2996  -16.0560  -51.2111 C.ar      23 UNK        -0.1150 
     11 C11         2.1229  -17.1537  -51.4793 C.ar      23 UNK        -0.0193 
     12 C12         2.4695  -18.0209  -50.4357 C.ar      23 UNK        -0.1150 
     13 C13         2.0187  -17.7833  -49.1322 C.ar      23 UNK        -0.0193 
     14 C14         1.1892  -16.6871  -48.8854 C.ar      23 UNK        -0.1150 
     15 C15         2.4807  -18.6644  -47.9787 C.3       23 UNK        -0.0205 
     16 S16         1.3919  -20.0933  -47.6818 S.3       23 UNK        -0.2404 
     17 C17        -0.0612  -19.3247  -46.8889 C.3       23 UNK        -0.0398 
     18 CA         -1.1472  -20.3673  -46.5355 C.3       11 UNK         0.1400 
     19 N          -0.6659  -21.3590  -45.5669 N.am      11 UNK        -0.5000 
     20 C          -1.3200  -22.4702  -45.2040 C.2       10 UNK         0.5000 
     21 O          -2.4219  -22.7877  -45.6500 O.2       10 UNK        -0.5000 
     22 CA         -0.6645  -23.3444  -44.1205 C.3       10 UNK         0.1400 
     23 CB          0.2583  -24.3861  -44.7698 C.3       10 UNK        -0.1800 
     24 N           0.0894  -22.6027  -43.1037 N.am      10 UNK        -0.5000 
     25 C          -0.3604  -21.5827  -42.3595 C.2       9 UNK         0.5000 
     26 O          -1.4669  -21.0675  -42.5183 O.2       9 UNK        -0.5000 
     27 CA          0.5733  -21.0060  -41.2767 C.3       9 UNK         0.1400 
     28 CB          0.1032  -21.4149  -39.8681 C.3       9 UNK        -0.1800 
     29 N           2.0073  -21.2759  -41.4551 N.am      9 UNK        -0.5000 
     30 C           2.6752  -22.4378  -41.3675 C.2       8 UNK         0.5000 
     31 O           2.1262  -23.5261  -41.1982 O.2       8 UNK        -0.5000 
     32 CA          4.2104  -22.3939  -41.5321 C.3       8 UNK         0.1400 
     33 CB          4.6122  -22.9531  -42.9063 C.3       8 UNK        -0.1800 
     34 N           4.7792  -21.0523  -41.3915 N.am      8 UNK        -0.5000 
     35 C           4.8433  -20.3484  -40.2520 C.2       7 UNK         0.5000 
     36 O           4.5376  -20.8056  -39.1503 O.2       7 UNK        -0.5000 
     37 CA          5.2902  -18.8740  -40.3665 C.3       7 UNK         0.1400 
     38 CB          6.7528  -18.7209  -39.9215 C.3       7 UNK        -0.1800 
     39 N           5.1383  -18.2924  -41.7079 N.am      7 UNK        -0.5000 
     40 C           3.9833  -18.1660  -42.3759 C.2       6 UNK         0.5000 
     41 O           2.8969  -18.5530  -41.9382 O.2       6 UNK        -0.5000 
     42 CA          4.0812  -17.5831  -43.7975 C.3       6 UNK         0.1400 
     43 CB          4.7253  -18.6034  -44.7521 C.3       6 UNK        -0.1800 
     44 N           2.7668  -17.2307  -44.3296 N.am      6 UNK        -0.5000 
     45 C           2.0583  -16.1516  -43.9799 C.2       5 UNK         0.5000 
     46 O           2.4524  -15.2909  -43.1886 O.2       5 UNK        -0.5000 
     47 CA          0.6627  -16.0356  -44.6216 C.3       5 UNK         0.1400 
     48 CB         -0.4035  -16.7198  -43.7521 C.3       5 UNK        -0.1800 
     49 N           0.2758  -14.6489  -44.8763 N.am      5 UNK        -0.5000 
     50 C           0.8723  -13.8555  -45.7771 C.2       4 UNK         0.5000 
     51 O           1.7923  -14.2276  -46.5070 O.2       4 UNK        -0.5000 
     52 CA          0.3271  -12.4228  -45.8943 C.3       4 UNK         0.1400 
     53 CB          0.8186  -11.6763  -47.1509 C.3       4 UNK        -0.1800 
     54 N          -1.1338  -12.4335  -45.8592 N.am      4 UNK        -0.5000 
     55 C          -1.8901  -11.4417  -45.3715 C.2       3 UNK         0.5000 
     56 O          -1.4270  -10.4026  -44.8990 O.2       3 UNK        -0.5000 
     57 CA         -3.4215  -11.6239  -45.4134 C.3       3 UNK         0.1400 
     58 CB         -4.0203  -10.8322  -46.5864 C.3       3 UNK        -0.1800 
     59 N          -3.8620  -13.0162  -45.5159 N.am      3 UNK        -0.5000 
     60 C          -3.6820  -13.9594  -44.5816 C.2       2 UNK         0.5000 
     61 O          -3.1117  -13.7611  -43.5088 O.2       2 UNK        -0.5000 
     62 CA         -4.2106  -15.3692  -44.9079 C.3       2 UNK         0.1400 
     63 CB         -5.5967  -15.5742  -44.2764 C.3       2 UNK        -0.1800 
     64 N          -4.2897  -15.6787  -46.3410 N.am      2 UNK        -0.5000 
     65 C          -3.2585  -15.6937  -47.2006 C.2       1 UNK         0.5000 
     66 O          -2.1054  -15.4080  -46.8772 O.2       1 UNK        -0.5000 
     67 C          -2.4565  -19.6696  -46.1021 C.2       11 UNK         0.5000 
     68 O          -3.2008  -19.2120  -46.9698 O.2       11 UNK        -0.5000 
     69 N          -2.7589  -19.6391  -44.7941 N.am      12 UNK        -0.5000 
     70 CA         -4.0386  -19.1527  -44.2689 C.3       12 UNK         0.1400 
     71 CB         -3.8952  -18.8188  -42.7772 C.3       12 UNK        -0.1800 
     72 C          -5.2045  -20.1328  -44.5123 C.2       12 UNK         0.5000 
     73 O          -6.3598  -19.7101  -44.4915 O.2       12 UNK        -0.5000 
     74 N          -4.8827  -21.4037  -44.7860 N.am      13 UNK        -0.5000 
     75 CA         -5.8009  -22.4445  -45.2493 C.3       13 UNK         0.1400 
     76 CB         -5.5725  -23.7131  -44.4082 C.3       13 UNK        -0.1800 
     77 C          -5.5992  -22.7033  -46.7588 C.2       13 UNK         0.5000 
     78 O          -5.8225  -23.8208  -47.2279 O.2       13 UNK        -0.5000 
     79 N          -5.1347  -21.6722  -47.4838 N.am      14 UNK        -0.5000 
     80 CA         -4.8308  -21.6172  -48.9187 C.3       14 UNK         0.1400 
     81 CB         -6.0895  -21.9155  -49.7591 C.3       14 UNK        -0.1800 
     82 C          -3.6489  -22.4950  -49.3706 C.2       14 UNK         0.5000 
     83 O          -3.3669  -22.5256  -50.5690 O.2       14 UNK        -0.5000 
     84 N          -2.9839  -23.1925  -48.4354 N.am      15 UNK        -0.5000 
     85 CA         -2.0137  -24.2711  -48.6551 C.3       15 UNK         0.1400 
     86 CB         -0.6641  -23.7040  -49.1325 C.3       15 UNK        -0.1800 
     87 C          -2.6026  -25.3526  -49.5844 C.2       15 UNK         0.5000 
     88 O          -2.0155  -25.6826  -50.6184 O.2       15 UNK        -0.5000 
     89 N          -3.8311  -25.7777  -49.2467 N.am      16 UNK        -0.5000 
     90 CA         -4.7928  -26.5522  -50.0423 C.3       16 UNK         0.1400 
     91 CB         -4.2331  -27.9267  -50.4579 C.3       16 UNK        -0.1800 
     92 C          -5.3302  -25.7581  -51.2501 C.2       16 UNK         0.5000 
     93 O          -6.5427  -25.5867  -51.3777 O.2       16 UNK        -0.5000 
     94 N          -4.4121  -25.2594  -52.0814 N.am      17 UNK        -0.5000 
     95 CA         -4.6500  -24.3456  -53.1959 C.3       17 UNK         0.1400 
     96 CB         -5.2591  -25.1073  -54.3881 C.3       17 UNK        -0.1800 
     97 C          -3.3730  -23.5973  -53.6264 C.2       17 UNK         0.5000 
     98 O          -3.4766  -22.6659  -54.4253 O.2       17 UNK        -0.5000 
     99 N          -2.1921  -23.9941  -53.1233 N.am      18 UNK        -0.5000 
    100 CA        -0.8958  -23.4772  -53.5647 C.3       18 UNK         0.1400 
    101 CB         0.2232  -24.3592  -52.9905 C.3       18 UNK        -0.1800 
    102 C         -0.6477  -21.9932  -53.2353 C.2       18 UNK         0.5000 
    103 O          0.0759  -21.3383  -53.9838 O.2       18 UNK        -0.5000 
    104 N         -1.2499  -21.4829  -52.1523 N.am      19 UNK        -0.5000 
    105 CA        -1.1612  -20.0735  -51.7670 C.3       19 UNK         0.1400 
    106 CB        -1.2329  -19.9363  -50.2422 C.3       19 UNK        -0.1800 
    107 C         -2.2644  -19.2428  -52.4378 C.2       19 UNK         0.5000 
    108 O         -2.0425  -18.0692  -52.7236 O.2       19 UNK        -0.5000 
    109 N         -3.4229  -19.8574  -52.7215 N.am      20 UNK        -0.5000 
    110 CA        -4.4893  -19.2390  -53.5156 C.3       20 UNK         0.1400 
    111 CB        -5.7672  -20.0852  -53.4345 C.3       20 UNK        -0.1800 
    112 C         -4.0557  -19.0116  -54.9767 C.2       20 UNK         0.5000 
    113 O         -4.3791  -17.9748  -55.5583 O.2       20 UNK        -0.5000 
    114 N         -3.2605  -19.9491  -55.5125 N.am      21 UNK        -0.5000 
    115 CA        -2.6049  -19.8706  -56.8193 C.3       21 UNK         0.1400 
    116 CB        -1.9273  -21.2166  -57.1189 C.3       21 UNK        -0.1800 
    117 C         -1.5970  -18.7081  -56.9600 C.2       21 UNK         0.5000 
    118 O         -1.2755  -18.3360  -58.0895 O.2       21 UNK        -0.5000 
    119 N         -1.1368  -18.1360  -55.8374 N.am      22 UNK        -0.5000 
    120 CA        -0.3353  -16.9009  -55.8020 C.3       22 UNK         0.1400 
    121 C         -1.1475  -15.6123  -56.1360 C.2       22 UNK         0.5000 
    122 N         -2.4762  -15.6401  -56.1705 N.am      22 UNK        -0.7600 
    123 O         -0.5565  -14.5637  -56.3786 O.2       22 UNK        -0.5000 
    124 C124        0.4238  -16.7189  -54.4608 C.3       23 UNK        -0.0398 
    125 S125        1.4868  -18.1360  -54.0177 S.3       23 UNK        -0.2404 
    126 C126        2.6850  -17.3672  -52.8803 C.3       23 UNK        -0.0205 
    127 H127       -4.8021  -16.3627  -51.2065 H         1 UNK         0.0600 
    128 H128       -6.1799  -15.6574  -50.3417 H         1 UNK         0.0600 
    129 H129       -6.4080  -17.0553  -51.3917 H         1 UNK         0.0600 
    130 H130       -4.2880  -17.9244  -47.8946 H         1 UNK         0.3000 
    131 H131       -4.1429  -15.2466  -49.0536 H         1 UNK         0.0600 
    132 H132       -2.6068  -17.0521  -50.3421 H         1 UNK         0.0800 
    133 H133       -1.5615  -16.8502  -48.9830 H         1 UNK         0.0800 
    134 H134       -0.2054  -14.4864  -48.5645 H         1 UNK         0.0800 
    135 H135        0.3595  -13.7368  -50.0367 H         1 UNK         0.0800 
    136 H136        1.0325  -15.3737  -52.0048 H         1 UNK         0.1150 
    137 H137        3.1181  -18.8633  -50.6305 H         1 UNK         0.1150 
    138 H138        0.8405  -16.4906  -47.8826 H         1 UNK         0.1150 
    139 H139        3.4851  -19.0357  -48.1875 H         1 UNK         0.0800 
    140 H140        2.5672  -18.0716  -47.0687 H         1 UNK         0.0800 
    141 H141       -0.4622  -18.5713  -47.5675 H         1 UNK         0.0800 
    142 H142        0.2630  -18.7998  -45.9911 H         1 UNK         0.0800 
    143 H143       -1.3923  -20.9147  -47.4472 H         1 UNK         0.0600 
    144 H144        0.2376  -21.1835  -45.1534 H         1 UNK         0.3000 
    145 H145       -1.4681  -23.8725  -43.6038 H         1 UNK         0.0600 
    146 H146        0.6524  -25.0810  -44.0279 H         1 UNK         0.0600 
    147 H147       -0.2784  -24.9765  -45.5137 H         1 UNK         0.0600 
    148 H148        1.1049  -23.9157  -45.2718 H         1 UNK         0.0600 
    149 H149        0.9855  -22.9913  -42.8371 H         1 UNK         0.3000 
    150 H150        0.4752  -19.9216  -41.3480 H         1 UNK         0.0600 
    151 H151       -0.9253  -21.0964  -39.6935 H         1 UNK         0.0600 
    152 H152        0.7210  -20.9535  -39.0976 H         1 UNK         0.0600 
    153 H153        0.1366  -22.4951  -39.7242 H         1 UNK         0.0600 
    154 H154        2.5520  -20.4363  -41.6307 H         1 UNK         0.3000 
    155 H155        4.6415  -23.0329  -40.7587 H         1 UNK         0.0600 
    156 H156        4.2137  -22.3462  -43.7205 H         1 UNK         0.0600 
    157 H157        4.2384  -23.9690  -43.0412 H         1 UNK         0.0600 
    158 H158        5.6963  -22.9917  -43.0151 H         1 UNK         0.0600 
    159 H159        5.0718  -20.5968  -42.2427 H         1 UNK         0.3000 
    160 H160        4.6629  -18.2958  -39.6851 H         1 UNK         0.0600 
    161 H161        7.4328  -19.2568  -40.5848 H         1 UNK         0.0600 
    162 H162        6.8991  -19.1140  -38.9144 H         1 UNK         0.0600 
    163 H163        7.0536  -17.6732  -39.9052 H         1 UNK         0.0600 
    164 H164        5.9885  -17.9656  -42.1447 H         1 UNK         0.3000 
    165 H165        4.7027  -16.6858  -43.7626 H         1 UNK         0.0600 
    166 H166        4.8220  -18.1937  -45.7578 H         1 UNK         0.0600 
    167 H167        5.7283  -18.8784  -44.4237 H         1 UNK         0.0600 
    168 H168        4.1388  -19.5210  -44.8198 H         1 UNK         0.0600 
    169 H169        2.3461  -17.9144  -44.9374 H         1 UNK         0.3000 
    170 H170        0.6888  -16.5448  -45.5851 H         1 UNK         0.0600 
    171 H171       -0.5717  -16.1798  -42.8197 H         1 UNK         0.0600 
    172 H172       -1.3518  -16.7854  -44.2831 H         1 UNK         0.0600 
    173 H173       -0.1109  -17.7385  -43.4931 H         1 UNK         0.0600 
    174 H174       -0.4612  -14.2675  -44.3010 H         1 UNK         0.3000 
    175 H175        0.7042  -11.8932  -45.0169 H         1 UNK         0.0600 
    176 H176        0.4574  -12.1477  -48.0643 H         1 UNK         0.0600 
    177 H177        0.4774  -10.6411  -47.1537 H         1 UNK         0.0600 
    178 H178        1.9080  -11.6548  -47.1969 H         1 UNK         0.0600 
    179 H179       -1.5797  -13.2745  -46.2085 H         1 UNK         0.3000 
    180 H180       -3.8222  -11.2147  -44.4837 H         1 UNK         0.0600 
    181 H181       -5.1095  -10.8796  -46.5807 H         1 UNK         0.0600 
    182 H182       -3.6711  -11.2124  -47.5474 H         1 UNK         0.0600 
    183 H183       -3.7429   -9.7787  -46.5302 H         1 UNK         0.0600 
    184 H184       -4.3420  -13.2753  -46.3647 H         1 UNK         0.3000 
    185 H185       -3.5197  -16.0784  -44.4527 H         1 UNK         0.0600 
    186 H186       -5.9681  -16.5858  -44.4391 H         1 UNK         0.0600 
    187 H187       -5.5617  -15.4137  -43.1979 H         1 UNK         0.0600 
    188 H188       -6.3308  -14.8800  -44.6874 H         1 UNK         0.0600 
    189 H189       -5.2028  -15.9281  -46.6936 H         1 UNK         0.3000 
    190 H190       -2.1368  -20.0765  -44.1203 H         1 UNK         0.3000 
    191 H191       -4.2883  -18.2343  -44.7986 H         1 UNK         0.0600 
    192 H192       -4.8030  -18.3496  -42.3958 H         1 UNK         0.0600 
    193 H193       -3.0728  -18.1248  -42.6032 H         1 UNK         0.0600 
    194 H194       -3.7148  -19.7126  -42.1796 H         1 UNK         0.0600 
    195 H195       -3.9020  -21.6601  -44.8176 H         1 UNK         0.3000 
    196 H196       -6.8369  -22.1286  -45.1137 H         1 UNK         0.0600 
    197 H197       -4.5702  -24.1177  -44.5531 H         1 UNK         0.0600 
    198 H198       -5.6999  -23.5080  -43.3452 H         1 UNK         0.0600 
    199 H199       -6.2851  -24.4949  -44.6737 H         1 UNK         0.0600 
    200 H200       -4.9485  -20.8103  -46.9893 H         1 UNK         0.3000 
    201 H201       -4.5294  -20.5900  -49.1227 H         1 UNK         0.0600 
    202 H202       -5.8955  -21.7683  -50.8208 H         1 UNK         0.0600 
    203 H203       -6.9123  -21.2551  -49.4858 H         1 UNK         0.0600 
    204 H204       -6.4279  -22.9449  -49.6390 H         1 UNK         0.0600 
    205 H205       -3.2408  -23.0503  -47.4645 H         1 UNK         0.3000 
    206 H206       -1.8484  -24.7496  -47.6890 H         1 UNK         0.0600 
    207 H207       -0.2598  -22.9933  -48.4117 H         1 UNK         0.0600 
    208 H208        0.0730  -24.4983  -49.2535 H         1 UNK         0.0600 
    209 H209       -0.7559  -23.1928  -50.0880 H         1 UNK         0.0600 
    210 H210       -4.2317  -25.3688  -48.4116 H         1 UNK         0.3000 
    211 H211       -5.6419  -26.7334  -49.3812 H         1 UNK         0.0600 
    212 H212       -5.0033  -28.5236  -50.9477 H         1 UNK         0.0600 
    213 H213       -3.8888  -28.4893  -49.5902 H         1 UNK         0.0600 
    214 H214       -3.3993  -27.8427  -51.1548 H         1 UNK         0.0600 
    215 H215       -3.4466  -25.4375  -51.8296 H         1 UNK         0.3000 
    216 H216       -5.3584  -23.5836  -52.8649 H         1 UNK         0.0600 
    217 H217       -4.6009  -25.9080  -54.7269 H         1 UNK         0.0600 
    218 H218       -5.4300  -24.4409  -55.2346 H         1 UNK         0.0600 
    219 H219       -6.2210  -25.5504  -54.1311 H         1 UNK         0.0600 
    220 H220       -2.1495  -24.7087  -52.4091 H         1 UNK         0.3000 
    221 H221       -0.8635  -23.5692  -54.6525 H         1 UNK         0.0600 
    222 H222        0.1136  -25.3945  -53.3137 H         1 UNK         0.0600 
    223 H223        0.2283  -24.3493  -51.9012 H         1 UNK         0.0600 
    224 H224        1.2028  -24.0165  -53.3263 H         1 UNK         0.0600 
    225 H225       -1.8778  -22.0684  -51.6064 H         1 UNK         0.3000 
    226 H226       -0.1947  -19.6747  -52.0812 H         1 UNK         0.0600 
    227 H227       -2.2490  -20.0325  -49.8629 H         1 UNK         0.0600 
    228 H228       -0.6121  -20.6845  -49.7524 H         1 UNK         0.0600 
    229 H229       -0.8631  -18.9578  -49.9377 H         1 UNK         0.0600 
    230 H230       -3.5315  -20.8312  -52.4751 H         1 UNK         0.3000 
    231 H231       -4.7087  -18.2597  -53.0852 H         1 UNK         0.0600 
    232 H232       -5.5985  -21.1121  -53.7584 H         1 UNK         0.0600 
    233 H233       -6.5521  -19.6670  -54.0659 H         1 UNK         0.0600 
    234 H234       -6.1544  -20.1071  -52.4165 H         1 UNK         0.0600 
    235 H235       -3.1066  -20.8035  -54.9855 H         1 UNK         0.3000 
    236 H236       -3.3851  -19.7102  -57.5660 H         1 UNK         0.0600 
    237 H237       -1.1419  -21.4393  -56.3969 H         1 UNK         0.0600 
    238 H238       -2.6465  -22.0356  -57.0953 H         1 UNK         0.0600 
    239 H239       -1.4709  -21.2138  -58.1095 H         1 UNK         0.0600 
    240 H240       -1.4425  -18.4881  -54.9407 H         1 UNK         0.3000 
    241 H241        0.4205  -16.9866  -56.5850 H         1 UNK         0.0600 
    242 H242       -2.9801  -14.7966  -56.3936 H         1 UNK         0.3800 
    243 H243       -2.9916  -16.4892  -55.9684 H         1 UNK         0.3800 
    244 H244       -0.2768  -16.5386  -53.6461 H         1 UNK         0.0800 
    245 H245        1.0542  -15.8298  -54.5156 H         1 UNK         0.0800 
    246 H246        3.5661  -18.0085  -52.8301 H         1 UNK         0.0800 
    247 H247        3.0324  -16.4181  -53.2908 H         1 UNK         0.0800 
@<TRIPOS>BOND
     1    1    2 1    
     2    1  127 1    
     3    1  128 1    
     4    1  129 1    
     5    2    3 2    
     6    2    4 am   BACKBONE|DICT|INTERRES
     7    4    5 1    
     8    4  130 1    
     9    5    6 1    
    10    5   65 1    
    11    5  131 1    
    12    6    7 1    
    13    6  132 1    
    14    6  133 1    
    15    7    8 1    
    16    8    9 1    
    17    8  134 1    
    18    8  135 1    
    19    9   10 ar   
    20    9   14 ar   
    21   10   11 ar   
    22   10  136 1    
    23   11   12 ar   
    24   11  126 1    
    25   12   13 ar   
    26   12  137 1    
    27   13   14 ar   
    28   13   15 1    
    29   14  138 1    
    30   15   16 1    
    31   15  139 1    
    32   15  140 1    
    33   16   17 1    
    34   17   18 1    
    35   17  141 1    
    36   17  142 1    
    37   18   19 1    
    38   18   67 1    
    39   18  143 1    
    40   19   20 am   BACKBONE|DICT|INTERRES
    41   19  144 1    
    42   20   21 2    
    43   20   22 1    
    44   22   23 1    
    45   22   24 1    
    46   22  145 1    
    47   23  146 1    
    48   23  147 1    
    49   23  148 1    
    50   24   25 am   BACKBONE|DICT|INTERRES
    51   24  149 1    
    52   25   26 2    
    53   25   27 1    
    54   27   28 1    
    55   27   29 1    
    56   27  150 1    
    57   28  151 1    
    58   28  152 1    
    59   28  153 1    
    60   29   30 am   BACKBONE|DICT|INTERRES
    61   29  154 1    
    62   30   31 2    
    63   30   32 1    
    64   32   33 1    
    65   32   34 1    
    66   32  155 1    
    67   33  156 1    
    68   33  157 1    
    69   33  158 1    
    70   34   35 am   BACKBONE|DICT|INTERRES
    71   34  159 1    
    72   35   36 2    
    73   35   37 1    
    74   37   38 1    
    75   37   39 1    
    76   37  160 1    
    77   38  161 1    
    78   38  162 1    
    79   38  163 1    
    80   39   40 am   BACKBONE|DICT|INTERRES
    81   39  164 1    
    82   40   41 2    
    83   40   42 1    
    84   42   43 1    
    85   42   44 1    
    86   42  165 1    
    87   43  166 1    
    88   43  167 1    
    89   43  168 1    
    90   44   45 am   BACKBONE|DICT|INTERRES
    91   44  169 1    
    92   45   46 2    
    93   45   47 1    
    94   47   48 1    
    95   47   49 1    
    96   47  170 1    
    97   48  171 1    
    98   48  172 1    
    99   48  173 1    
   100   49   50 am   BACKBONE|DICT|INTERRES
   101   49  174 1    
   102   50   51 2    
   103   50   52 1    
   104   52   53 1    
   105   52   54 1    
   106   52  175 1    
   107   53  176 1    
   108   53  177 1    
   109   53  178 1    
   110   54   55 am   BACKBONE|DICT|INTERRES
   111   54  179 1    
   112   55   56 2    
   113   55   57 1    
   114   57   58 1    
   115   57   59 1    
   116   57  180 1    
   117   58  181 1    
   118   58  182 1    
   119   58  183 1    
   120   59   60 am   BACKBONE|DICT|INTERRES
   121   59  184 1    
   122   60   61 2    
   123   60   62 1    
   124   62   63 1    
   125   62   64 1    
   126   62  185 1    
   127   63  186 1    
   128   63  187 1    
   129   63  188 1    
   130   64   65 am   BACKBONE|DICT|INTERRES
   131   64  189 1    
   132   65   66 2    
   133   67   68 2    
   134   67   69 am   BACKBONE|DICT|INTERRES
   135   69   70 1    
   136   69  190 1    
   137   70   71 1    
   138   70   72 1    
   139   70  191 1    
   140   71  192 1    
   141   71  193 1    
   142   71  194 1    
   143   72   73 2    
   144   72   74 am   BACKBONE|DICT|INTERRES
   145   74   75 1    
   146   74  195 1    
   147   75   76 1    
   148   75   77 1    
   149   75  196 1    
   150   76  197 1    
   151   76  198 1    
   152   76  199 1    
   153   77   78 2    
   154   77   79 am   BACKBONE|DICT|INTERRES
   155   79   80 1    
   156   79  200 1    
   157   80   81 1    
   158   80   82 1    
   159   80  201 1    
   160   81  202 1    
   161   81  203 1    
   162   81  204 1    
   163   82   83 2    
   164   82   84 am   BACKBONE|DICT|INTERRES
   165   84   85 1    
   166   84  205 1    
   167   85   86 1    
   168   85   87 1    
   169   85  206 1    
   170   86  207 1    
   171   86  208 1    
   172   86  209 1    
   173   87   88 2    
   174   87   89 am   BACKBONE|DICT|INTERRES
   175   89   90 1    
   176   89  210 1    
   177   90   91 1    
   178   90   92 1    
   179   90  211 1    
   180   91  212 1    
   181   91  213 1    
   182   91  214 1    
   183   92   93 2    
   184   92   94 am   BACKBONE|DICT|INTERRES
   185   94   95 1    
   186   94  215 1    
   187   95   96 1    
   188   95   97 1    
   189   95  216 1    
   190   96  217 1    
   191   96  218 1    
   192   96  219 1    
   193   97   98 2    
   194   97   99 am   BACKBONE|DICT|INTERRES
   195   99  100 1    
   196   99  220 1    
   197  100  101 1    
   198  100  102 1    
   199  100  221 1    
   200  101  222 1    
   201  101  223 1    
   202  101  224 1    
   203  102  103 2    
   204  102  104 am   BACKBONE|DICT|INTERRES
   205  104  105 1    
   206  104  225 1    
   207  105  106 1    
   208  105  107 1    
   209  105  226 1    
   210  106  227 1    
   211  106  228 1    
   212  106  229 1    
   213  107  108 2    
   214  107  109 am   BACKBONE|DICT|INTERRES
   215  109  110 1    
   216  109  230 1    
   217  110  111 1    
   218  110  112 1    
   219  110  231 1    
   220  111  232 1    
   221  111  233 1    
   222  111  234 1    
   223  112  113 2    
   224  112  114 am   BACKBONE|DICT|INTERRES
   225  114  115 1    
   226  114  235 1    
   227  115  116 1    
   228  115  117 1    
   229  115  236 1    
   230  116  237 1    
   231  116  238 1    
   232  116  239 1    
   233  117  118 2    
   234  117  119 am   BACKBONE|DICT|INTERRES
   235  119  120 1    
   236  119  240 1    
   237  120  121 1    
   238  120  124 1    
   239  120  241 1    
   240  121  122 am   BACKBONE|DICT|INTERRES
   241  121  123 2    
   242  122  242 1    
   243  122  243 1    
   244  124  125 1    
   245  124  244 1    
   246  124  245 1    
   247  125  126 1    
   248  126  246 1    
   249  126  247 1    
@<TRIPOS>SUBSTRUCTURE
     1 UNK         1 GROUP             0       ****    0 ROOT    
