@<TRIPOS>MOLECULE
3R540
247   249    1
SMALL
USER_CHARGES


@<TRIPOS>ATOM
      1 CA          6.3603  -13.3135  -45.9178 C.3       0 UNK        -0.1800 
      2 C           4.9093  -12.9544  -45.5993 C.2       0 UNK         0.5000 
      3 O           4.6758  -11.9652  -44.9078 O.2       0 UNK        -0.5000 
      4 N           3.9085  -13.7026  -46.0835 N.am      1 UNK        -0.5000 
      5 CA          4.0110  -14.9356  -46.8732 C.3       1 UNK         0.1400 
      6 C6          2.6629  -15.2968  -47.5432 C.3       23 UNK        -0.0398 
      7 S7          1.9680  -13.9202  -48.5214 S.3       23 UNK        -0.2404 
      8 C8          2.3233  -14.4357  -50.2257 C.3       23 UNK        -0.0205 
      9 C9          1.3527  -15.4957  -50.7239 C.ar      23 UNK        -0.0193 
     10 C10        -0.0068  -15.1965  -50.8616 C.ar      23 UNK        -0.1150 
     11 C11        -0.8927  -16.1373  -51.3947 C.ar      23 UNK        -0.0193 
     12 C12        -0.4054  -17.3835  -51.7948 C.ar      23 UNK        -0.1150 
     13 C13         0.9469  -17.7030  -51.6430 C.ar      23 UNK        -0.0193 
     14 C14         1.8206  -16.7563  -51.1023 C.ar      23 UNK        -0.1150 
     15 C15         1.4775  -19.0545  -52.0940 C.3       23 UNK        -0.0205 
     16 S16         1.5767  -20.2356  -50.7153 S.3       23 UNK        -0.2404 
     17 C17        -0.1738  -20.7057  -50.5309 C.3       23 UNK        -0.0398 
     18 CA         -0.5744  -20.9465  -49.0619 C.3       11 UNK         0.1400 
     19 N          -0.3528  -19.7811  -48.1975 N.am      11 UNK        -0.5000 
     20 C          -0.3062  -19.8618  -46.8613 C.2       10 UNK         0.5000 
     21 O          -0.4531  -20.9134  -46.2415 O.2       10 UNK        -0.5000 
     22 CA         -0.1053  -18.5540  -46.0812 C.3       10 UNK         0.1400 
     23 CB          1.3780  -18.1973  -45.9985 C.3       10 UNK        -0.1800 
     24 N          -0.8425  -17.4082  -46.6087 N.am      10 UNK        -0.5000 
     25 C          -2.1748  -17.3476  -46.7059 C.2       9 UNK         0.5000 
     26 O          -2.9154  -18.3170  -46.5280 O.2       9 UNK        -0.5000 
     27 CA         -2.7523  -15.9538  -46.9890 C.3       9 UNK         0.1400 
     28 CB         -4.2949  -15.9349  -47.0049 C.3       9 UNK        -0.1800 
     29 N          -2.2381  -15.0163  -45.9877 N.am      9 UNK        -0.5000 
     30 C          -2.1860  -13.6856  -46.1387 C.2       8 UNK         0.5000 
     31 O          -2.5227  -13.1065  -47.1722 O.2       8 UNK        -0.5000 
     32 CA         -1.7023  -12.8449  -44.9382 C.3       8 UNK         0.1400 
     33 CB         -2.9046  -12.3251  -44.1347 C.3       8 UNK        -0.1800 
     34 N          -0.8136  -13.5733  -44.0332 N.am      8 UNK        -0.5000 
     35 C           0.4739  -13.8409  -44.2827 C.2       7 UNK         0.5000 
     36 O           1.0689  -13.4254  -45.2758 O.2       7 UNK        -0.5000 
     37 CA          1.2439  -14.7096  -43.2657 C.3       7 UNK         0.1400 
     38 CB          2.3047  -13.8733  -42.5342 C.3       7 UNK        -0.1800 
     39 N           0.4428  -15.4097  -42.2581 N.am      7 UNK        -0.5000 
     40 C          -0.5327  -16.2986  -42.4751 C.2       6 UNK         0.5000 
     41 O          -1.0136  -16.5304  -43.5849 O.2       6 UNK        -0.5000 
     42 CA         -1.0204  -17.0684  -41.2316 C.3       6 UNK         0.1400 
     43 CB         -2.2735  -17.9098  -41.5179 C.3       6 UNK        -0.1800 
     44 N           0.0319  -17.9530  -40.7291 N.am      6 UNK        -0.5000 
     45 C           1.0920  -17.5739  -40.0016 C.2       5 UNK         0.5000 
     46 O           1.2629  -16.4210  -39.6018 O.2       5 UNK        -0.5000 
     47 CA          2.1482  -18.6532  -39.6875 C.3       5 UNK         0.1400 
     48 CB          1.8991  -19.2587  -38.2977 C.3       5 UNK        -0.1800 
     49 N           2.1966  -19.7336  -40.6792 N.am      5 UNK        -0.5000 
     50 C           2.6212  -19.5878  -41.9415 C.2       4 UNK         0.5000 
     51 O           3.0379  -18.5239  -42.4059 O.2       4 UNK        -0.5000 
     52 CA          2.5383  -20.8327  -42.8372 C.3       4 UNK         0.1400 
     53 CB          1.0675  -21.1841  -43.1426 C.3       4 UNK        -0.1800 
     54 N           3.2615  -20.5605  -44.0751 N.am      4 UNK        -0.5000 
     55 C           3.6526  -21.4580  -44.9856 C.2       3 UNK         0.5000 
     56 O           3.4841  -22.6709  -44.8551 O.2       3 UNK        -0.5000 
     57 CA          4.3443  -20.9305  -46.2641 C.3       3 UNK         0.1400 
     58 CB          3.4247  -21.0845  -47.4879 C.3       3 UNK        -0.1800 
     59 N           4.8288  -19.5434  -46.2005 N.am      3 UNK        -0.5000 
     60 C           5.8582  -19.1364  -45.4449 C.2       2 UNK         0.5000 
     61 O           6.4299  -19.8693  -44.6367 O.2       2 UNK        -0.5000 
     62 CA          6.3774  -17.6965  -45.6343 C.3       2 UNK         0.1400 
     63 CB          7.7879  -17.7177  -46.2469 C.3       2 UNK        -0.1800 
     64 N           5.5363  -16.8247  -46.4639 N.am      2 UNK        -0.5000 
     65 C           4.5304  -16.0854  -45.9803 C.2       1 UNK         0.5000 
     66 O           4.0515  -16.2466  -44.8582 O.2       1 UNK        -0.5000 
     67 C          -2.0245  -21.4646  -48.9892 C.2       11 UNK         0.5000 
     68 O          -2.2532  -22.6350  -49.2958 O.2       11 UNK        -0.5000 
     69 N          -2.9752  -20.6127  -48.5807 N.am      12 UNK        -0.5000 
     70 CA         -4.3551  -21.0130  -48.3206 C.3       12 UNK         0.1400 
     71 CB         -5.2759  -19.7864  -48.3567 C.3       12 UNK        -0.1800 
     72 C          -4.4584  -21.7510  -46.9780 C.2       12 UNK         0.5000 
     73 O          -5.0957  -22.8009  -46.9110 O.2       12 UNK        -0.5000 
     74 N          -3.7775  -21.2219  -45.9514 N.am      13 UNK        -0.5000 
     75 CA         -3.6708  -21.8252  -44.6213 C.3       13 UNK         0.1400 
     76 CB         -2.9988  -20.8287  -43.6695 C.3       13 UNK        -0.1800 
     77 C          -2.9226  -23.1723  -44.6284 C.2       13 UNK         0.5000 
     78 O          -3.3345  -24.1007  -43.9326 O.2       13 UNK        -0.5000 
     79 N          -1.8663  -23.2677  -45.4475 N.am      14 UNK        -0.5000 
     80 CA         -1.1049  -24.4935  -45.7004 C.3       14 UNK         0.1400 
     81 CB          0.2296  -24.1183  -46.3656 C.3       14 UNK        -0.1800 
     82 C          -1.8548  -25.5200  -46.5760 C.2       14 UNK         0.5000 
     83 O          -1.4079  -26.6640  -46.6655 O.2       14 UNK        -0.5000 
     84 N          -2.9505  -25.0925  -47.2244 N.am      15 UNK        -0.5000 
     85 CA         -3.7650  -25.8352  -48.1939 C.3       15 UNK         0.1400 
     86 CB         -4.4710  -27.0330  -47.5263 C.3       15 UNK        -0.1800 
     87 C          -2.9843  -26.2210  -49.4698 C.2       15 UNK         0.5000 
     88 O          -3.2735  -27.2443  -50.0919 O.2       15 UNK        -0.5000 
     89 N          -2.0096  -25.3815  -49.8370 N.am      16 UNK        -0.5000 
     90 CA         -1.1537  -25.5326  -51.0097 C.3       16 UNK         0.1400 
     91 CB          0.2350  -24.9607  -50.6823 C.3       16 UNK        -0.1800 
     92 C          -1.7474  -24.8328  -52.2442 C.2       16 UNK         0.5000 
     93 O          -1.5401  -25.3090  -53.3608 O.2       16 UNK        -0.5000 
     94 N          -2.4737  -23.7267  -52.0295 N.am      17 UNK        -0.5000 
     95 CA         -3.0979  -22.9242  -53.0843 C.3       17 UNK         0.1400 
     96 CB         -2.1083  -21.8630  -53.5986 C.3       17 UNK        -0.1800 
     97 C          -4.4324  -22.3162  -52.6175 C.2       17 UNK         0.5000 
     98 O          -4.8111  -21.2352  -53.0803 O.2       17 UNK        -0.5000 
     99 N          -5.1279  -23.0278  -51.7187 N.am      18 UNK        -0.5000 
    100 CA        -6.4460  -22.6731  -51.1928 C.3       18 UNK         0.1400 
    101 CB        -6.8592  -23.6903  -50.1182 C.3       18 UNK        -0.1800 
    102 C         -7.5003  -22.5905  -52.3100 C.2       18 UNK         0.5000 
    103 O         -7.7507  -23.5891  -52.9870 O.2       18 UNK        -0.5000 
    104 N         -8.0504  -21.3850  -52.4957 N.am      19 UNK        -0.5000 
    105 CA        -8.9976  -20.9606  -53.5321 C.3       19 UNK         0.1400 
    106 CB       -10.2948  -21.7944  -53.4884 C.3       19 UNK        -0.1800 
    107 C         -8.3948  -20.8881  -54.9522 C.2       19 UNK         0.5000 
    108 O         -9.1260  -20.5800  -55.8948 O.2       19 UNK        -0.5000 
    109 N         -7.0856  -21.1375  -55.0887 N.am      20 UNK        -0.5000 
    110 CA        -6.3392  -21.0176  -56.3386 C.3       20 UNK         0.1400 
    111 CB        -5.3636  -22.1978  -56.4760 C.3       20 UNK        -0.1800 
    112 C         -5.5944  -19.6759  -56.3783 C.2       20 UNK         0.5000 
    113 O         -5.7117  -18.9487  -57.3654 O.2       20 UNK        -0.5000 
    114 N         -4.8635  -19.3658  -55.2991 N.am      21 UNK        -0.5000 
    115 CA        -4.1293  -18.1122  -55.1310 C.3       21 UNK         0.1400 
    116 CB        -2.7124  -18.4203  -54.6255 C.3       21 UNK        -0.1800 
    117 C         -4.8495  -17.1724  -54.1529 C.2       21 UNK         0.5000 
    118 O         -4.9123  -15.9687  -54.4051 O.2       21 UNK        -0.5000 
    119 N         -5.3761  -17.7303  -53.0580 N.am      22 UNK        -0.5000 
    120 CA        -6.0482  -17.0063  -51.9721 C.3       22 UNK         0.1400 
    121 C         -6.9033  -17.9619  -51.0991 C.2       22 UNK         0.5000 
    122 N         -7.6844  -17.4388  -50.1643 N.am      22 UNK        -0.7600 
    123 O         -6.8864  -19.1784  -51.2681 O.2       22 UNK        -0.5000 
    124 C124       -5.0936  -16.0917  -51.1434 C.3       23 UNK        -0.0398 
    125 S125       -3.4951  -16.8424  -50.6524 S.3       23 UNK        -0.2404 
    126 C126       -2.3572  -15.7815  -51.6033 C.3       23 UNK        -0.0205 
    127 H127        6.5026  -13.5110  -46.9796 H         1 UNK         0.0600 
    128 H128        6.6757  -14.1877  -45.3487 H         1 UNK         0.0600 
    129 H129        7.0214  -12.4890  -45.6500 H         1 UNK         0.0600 
    130 H130        2.9544  -13.4437  -45.8494 H         1 UNK         0.3000 
    131 H131        4.7305  -14.7644  -47.6754 H         1 UNK         0.0600 
    132 H132        2.7704  -16.1762  -48.1796 H         1 UNK         0.0800 
    133 H133        1.9208  -15.5452  -46.7855 H         1 UNK         0.0800 
    134 H134        3.3571  -14.7776  -50.2955 H         1 UNK         0.0800 
    135 H135        2.2472  -13.5628  -50.8754 H         1 UNK         0.0800 
    136 H136       -0.3670  -14.2185  -50.5740 H         1 UNK         0.1150 
    137 H137       -1.0837  -18.0996  -52.2325 H         1 UNK         0.1150 
    138 H138        2.8701  -16.9955  -51.0018 H         1 UNK         0.1150 
    139 H139        0.8568  -19.4676  -52.8910 H         1 UNK         0.0800 
    140 H140        2.4737  -18.9304  -52.5210 H         1 UNK         0.0800 
    141 H141       -0.3233  -21.6110  -51.1213 H         1 UNK         0.0800 
    142 H142       -0.8189  -19.9470  -50.9698 H         1 UNK         0.0800 
    143 H143        0.0608  -21.7527  -48.6900 H         1 UNK         0.0600 
    144 H144       -0.2223  -18.8877  -48.6495 H         1 UNK         0.3000 
    145 H145       -0.4673  -18.7281  -45.0663 H         1 UNK         0.0600 
    146 H146        1.7946  -17.9756  -46.9801 H         1 UNK         0.0600 
    147 H147        1.5419  -17.3460  -45.3393 H         1 UNK         0.0600 
    148 H148        1.9433  -19.0255  -45.5887 H         1 UNK         0.0600 
    149 H149       -0.3175  -16.5601  -46.7581 H         1 UNK         0.3000 
    150 H150       -2.3907  -15.6574  -47.9759 H         1 UNK         0.0600 
    151 H151       -4.6874  -16.6419  -47.7366 H         1 UNK         0.0600 
    152 H152       -4.6790  -14.9510  -47.2732 H         1 UNK         0.0600 
    153 H153       -4.7078  -16.2037  -46.0320 H         1 UNK         0.0600 
    154 H154       -1.9060  -15.4350  -45.1230 H         1 UNK         0.3000 
    155 H155       -1.1625  -11.9828  -45.3361 H         1 UNK         0.0600 
    156 H156       -3.5794  -11.7493  -44.7696 H         1 UNK         0.0600 
    157 H157       -2.5845  -11.6696  -43.3246 H         1 UNK         0.0600 
    158 H158       -3.4812  -13.1423  -43.6992 H         1 UNK         0.0600 
    159 H159       -1.2265  -13.9602  -43.1978 H         1 UNK         0.3000 
    160 H160        1.7589  -15.4766  -43.8443 H         1 UNK         0.0600 
    161 H161        1.8482  -13.1197  -41.8916 H         1 UNK         0.0600 
    162 H162        2.9539  -13.3542  -43.2388 H         1 UNK         0.0600 
    163 H163        2.9438  -14.5036  -41.9154 H         1 UNK         0.0600 
    164 H164        0.7792  -15.3355  -41.3043 H         1 UNK         0.3000 
    165 H165       -1.2754  -16.3362  -40.4625 H         1 UNK         0.0600 
    166 H166       -2.6339  -18.4051  -40.6162 H         1 UNK         0.0600 
    167 H167       -3.0865  -17.2901  -41.8983 H         1 UNK         0.0600 
    168 H168       -2.0655  -18.6758  -42.2626 H         1 UNK         0.0600 
    169 H169       -0.0108  -18.9140  -41.0320 H         1 UNK         0.3000 
    170 H170        3.1232  -18.1612  -39.6751 H         1 UNK         0.0600 
    171 H171        1.8841  -18.4831  -37.5307 H         1 UNK         0.0600 
    172 H172        0.9441  -19.7837  -38.2521 H         1 UNK         0.0600 
    173 H173        2.6848  -19.9645  -38.0278 H         1 UNK         0.0600 
    174 H174        1.8761  -20.6402  -40.3700 H         1 UNK         0.3000 
    175 H175        3.0206  -21.6646  -42.3201 H         1 UNK         0.0600 
    176 H176        0.5525  -20.3554  -43.6274 H         1 UNK         0.0600 
    177 H177        0.9871  -22.0512  -43.7970 H         1 UNK         0.0600 
    178 H178        0.5177  -21.4233  -42.2320 H         1 UNK         0.0600 
    179 H179        3.4940  -19.5829  -44.2044 H         1 UNK         0.3000 
    180 H180        5.2131  -21.5719  -46.4272 H         1 UNK         0.0600 
    181 H181        2.5607  -20.4250  -47.4356 H         1 UNK         0.0600 
    182 H182        3.0481  -22.1048  -47.5735 H         1 UNK         0.0600 
    183 H183        3.9575  -20.8607  -48.4122 H         1 UNK         0.0600 
    184 H184        4.4181  -18.8832  -46.8428 H         1 UNK         0.3000 
    185 H185        6.4601  -17.2602  -44.6361 H         1 UNK         0.0600 
    186 H186        7.7842  -18.1445  -47.2507 H         1 UNK         0.0600 
    187 H187        8.2059  -16.7127  -46.3099 H         1 UNK         0.0600 
    188 H188        8.4728  -18.3121  -45.6406 H         1 UNK         0.0600 
    189 H189        5.8666  -16.6600  -47.4043 H         1 UNK         0.3000 
    190 H190       -2.7154  -19.6777  -48.2948 H         1 UNK         0.3000 
    191 H191       -4.6674  -21.6945  -49.1119 H         1 UNK         0.0600 
    192 H192       -5.0653  -19.1685  -49.2280 H         1 UNK         0.0600 
    193 H193       -6.3216  -20.0898  -48.4131 H         1 UNK         0.0600 
    194 H194       -5.1674  -19.1589  -47.4726 H         1 UNK         0.0600 
    195 H195       -3.2997  -20.3384  -46.0934 H         1 UNK         0.3000 
    196 H196       -4.6836  -22.0115  -44.2581 H         1 UNK         0.0600 
    197 H197       -2.9292  -21.2351  -42.6598 H         1 UNK         0.0600 
    198 H198       -3.5724  -19.9035  -43.6119 H         1 UNK         0.0600 
    199 H199       -1.9891  -20.5778  -43.9947 H         1 UNK         0.0600 
    200 H200       -1.5300  -22.4242  -45.9058 H         1 UNK         0.3000 
    201 H201       -0.8895  -24.9694  -44.7417 H         1 UNK         0.0600 
    202 H202        0.7917  -23.4065  -45.7617 H         1 UNK         0.0600 
    203 H203        0.0749  -23.6748  -47.3488 H         1 UNK         0.0600 
    204 H204        0.8619  -24.9967  -46.4998 H         1 UNK         0.0600 
    205 H205       -3.2451  -24.1385  -47.0627 H         1 UNK         0.3000 
    206 H206       -4.5404  -25.1430  -48.5196 H         1 UNK         0.0600 
    207 H207       -3.7650  -27.8114  -47.2359 H         1 UNK         0.0600 
    208 H208       -5.0140  -26.7214  -46.6340 H         1 UNK         0.0600 
    209 H209       -5.1956  -27.4863  -48.2037 H         1 UNK         0.0600 
    210 H210       -1.9049  -24.5184  -49.3132 H         1 UNK         0.3000 
    211 H211       -1.0383  -26.5927  -51.2453 H         1 UNK         0.0600 
    212 H212        0.9083  -25.0546  -51.5353 H         1 UNK         0.0600 
    213 H213        0.6911  -25.4933  -49.8475 H         1 UNK         0.0600 
    214 H214        0.1863  -23.9048  -50.4158 H         1 UNK         0.0600 
    215 H215       -2.5772  -23.3862  -51.0780 H         1 UNK         0.3000 
    216 H216       -3.3541  -23.5777  -53.9206 H         1 UNK         0.0600 
    217 H217       -2.4962  -21.3741  -54.4922 H         1 UNK         0.0600 
    218 H218       -1.1491  -22.3055  -53.8672 H         1 UNK         0.0600 
    219 H219       -1.9272  -21.0905  -52.8527 H         1 UNK         0.0600 
    220 H220       -4.7656  -23.9291  -51.4474 H         1 UNK         0.3000 
    221 H221       -6.3632  -21.6957  -50.7156 H         1 UNK         0.0600 
    222 H222       -6.8787  -24.7081  -50.5097 H         1 UNK         0.0600 
    223 H223       -6.1766  -23.6671  -49.2708 H         1 UNK         0.0600 
    224 H224       -7.8549  -23.4670  -49.7331 H         1 UNK         0.0600 
    225 H225       -7.6907  -20.6181  -51.9254 H         1 UNK         0.3000 
    226 H226       -9.2634  -19.9344  -53.2743 H         1 UNK         0.0600 
    227 H227      -10.7078  -21.8301  -52.4803 H         1 UNK         0.0600 
    228 H228      -11.0587  -21.3611  -54.1349 H         1 UNK         0.0600 
    229 H229      -10.1327  -22.8192  -53.8230 H         1 UNK         0.0600 
    230 H230       -6.5472  -21.3421  -54.2559 H         1 UNK         0.3000 
    231 H231       -7.0203  -21.0522  -57.1915 H         1 UNK         0.0600 
    232 H232       -4.6187  -22.2097  -55.6817 H         1 UNK         0.0600 
    233 H233       -4.8275  -22.1487  -57.4245 H         1 UNK         0.0600 
    234 H234       -5.8937  -23.1500  -56.4507 H         1 UNK         0.0600 
    235 H235       -4.8278  -20.0220  -54.5241 H         1 UNK         0.3000 
    236 H236       -4.0350  -17.5908  -56.0859 H         1 UNK         0.0600 
    237 H237       -2.1730  -19.0562  -55.3273 H         1 UNK         0.0600 
    238 H238       -2.1319  -17.5048  -54.5067 H         1 UNK         0.0600 
    239 H239       -2.7361  -18.9256  -53.6600 H         1 UNK         0.0600 
    240 H240       -5.3138  -18.7297  -52.9114 H         1 UNK         0.3000 
    241 H241       -6.7836  -16.3588  -52.4533 H         1 UNK         0.0600 
    242 H242       -8.2456  -18.0579  -49.6019 H         1 UNK         0.3800 
    243 H243       -7.7477  -16.4446  -50.0135 H         1 UNK         0.3800 
    244 H244       -4.8926  -15.1924  -51.7264 H         1 UNK         0.0800 
    245 H245       -5.5817  -15.7244  -50.2400 H         1 UNK         0.0800 
    246 H246       -2.5893  -15.8603  -52.6654 H         1 UNK         0.0800 
    247 H247       -2.5356  -14.7412  -51.3266 H         1 UNK         0.0800 
@<TRIPOS>BOND
     1    1    2 1    
     2    1  127 1    
     3    1  128 1    
     4    1  129 1    
     5    2    3 2    
     6    2    4 am   BACKBONE|DICT|INTERRES
     7    4    5 1    
     8    4  130 1    
     9    5    6 1    
    10    5   65 1    
    11    5  131 1    
    12    6    7 1    
    13    6  132 1    
    14    6  133 1    
    15    7    8 1    
    16    8    9 1    
    17    8  134 1    
    18    8  135 1    
    19    9   10 ar   
    20    9   14 ar   
    21   10   11 ar   
    22   10  136 1    
    23   11   12 ar   
    24   11  126 1    
    25   12   13 ar   
    26   12  137 1    
    27   13   14 ar   
    28   13   15 1    
    29   14  138 1    
    30   15   16 1    
    31   15  139 1    
    32   15  140 1    
    33   16   17 1    
    34   17   18 1    
    35   17  141 1    
    36   17  142 1    
    37   18   19 1    
    38   18   67 1    
    39   18  143 1    
    40   19   20 am   BACKBONE|DICT|INTERRES
    41   19  144 1    
    42   20   21 2    
    43   20   22 1    
    44   22   23 1    
    45   22   24 1    
    46   22  145 1    
    47   23  146 1    
    48   23  147 1    
    49   23  148 1    
    50   24   25 am   BACKBONE|DICT|INTERRES
    51   24  149 1    
    52   25   26 2    
    53   25   27 1    
    54   27   28 1    
    55   27   29 1    
    56   27  150 1    
    57   28  151 1    
    58   28  152 1    
    59   28  153 1    
    60   29   30 am   BACKBONE|DICT|INTERRES
    61   29  154 1    
    62   30   31 2    
    63   30   32 1    
    64   32   33 1    
    65   32   34 1    
    66   32  155 1    
    67   33  156 1    
    68   33  157 1    
    69   33  158 1    
    70   34   35 am   BACKBONE|DICT|INTERRES
    71   34  159 1    
    72   35   36 2    
    73   35   37 1    
    74   37   38 1    
    75   37   39 1    
    76   37  160 1    
    77   38  161 1    
    78   38  162 1    
    79   38  163 1    
    80   39   40 am   BACKBONE|DICT|INTERRES
    81   39  164 1    
    82   40   41 2    
    83   40   42 1    
    84   42   43 1    
    85   42   44 1    
    86   42  165 1    
    87   43  166 1    
    88   43  167 1    
    89   43  168 1    
    90   44   45 am   BACKBONE|DICT|INTERRES
    91   44  169 1    
    92   45   46 2    
    93   45   47 1    
    94   47   48 1    
    95   47   49 1    
    96   47  170 1    
    97   48  171 1    
    98   48  172 1    
    99   48  173 1    
   100   49   50 am   BACKBONE|DICT|INTERRES
   101   49  174 1    
   102   50   51 2    
   103   50   52 1    
   104   52   53 1    
   105   52   54 1    
   106   52  175 1    
   107   53  176 1    
   108   53  177 1    
   109   53  178 1    
   110   54   55 am   BACKBONE|DICT|INTERRES
   111   54  179 1    
   112   55   56 2    
   113   55   57 1    
   114   57   58 1    
   115   57   59 1    
   116   57  180 1    
   117   58  181 1    
   118   58  182 1    
   119   58  183 1    
   120   59   60 am   BACKBONE|DICT|INTERRES
   121   59  184 1    
   122   60   61 2    
   123   60   62 1    
   124   62   63 1    
   125   62   64 1    
   126   62  185 1    
   127   63  186 1    
   128   63  187 1    
   129   63  188 1    
   130   64   65 am   BACKBONE|DICT|INTERRES
   131   64  189 1    
   132   65   66 2    
   133   67   68 2    
   134   67   69 am   BACKBONE|DICT|INTERRES
   135   69   70 1    
   136   69  190 1    
   137   70   71 1    
   138   70   72 1    
   139   70  191 1    
   140   71  192 1    
   141   71  193 1    
   142   71  194 1    
   143   72   73 2    
   144   72   74 am   BACKBONE|DICT|INTERRES
   145   74   75 1    
   146   74  195 1    
   147   75   76 1    
   148   75   77 1    
   149   75  196 1    
   150   76  197 1    
   151   76  198 1    
   152   76  199 1    
   153   77   78 2    
   154   77   79 am   BACKBONE|DICT|INTERRES
   155   79   80 1    
   156   79  200 1    
   157   80   81 1    
   158   80   82 1    
   159   80  201 1    
   160   81  202 1    
   161   81  203 1    
   162   81  204 1    
   163   82   83 2    
   164   82   84 am   BACKBONE|DICT|INTERRES
   165   84   85 1    
   166   84  205 1    
   167   85   86 1    
   168   85   87 1    
   169   85  206 1    
   170   86  207 1    
   171   86  208 1    
   172   86  209 1    
   173   87   88 2    
   174   87   89 am   BACKBONE|DICT|INTERRES
   175   89   90 1    
   176   89  210 1    
   177   90   91 1    
   178   90   92 1    
   179   90  211 1    
   180   91  212 1    
   181   91  213 1    
   182   91  214 1    
   183   92   93 2    
   184   92   94 am   BACKBONE|DICT|INTERRES
   185   94   95 1    
   186   94  215 1    
   187   95   96 1    
   188   95   97 1    
   189   95  216 1    
   190   96  217 1    
   191   96  218 1    
   192   96  219 1    
   193   97   98 2    
   194   97   99 am   BACKBONE|DICT|INTERRES
   195   99  100 1    
   196   99  220 1    
   197  100  101 1    
   198  100  102 1    
   199  100  221 1    
   200  101  222 1    
   201  101  223 1    
   202  101  224 1    
   203  102  103 2    
   204  102  104 am   BACKBONE|DICT|INTERRES
   205  104  105 1    
   206  104  225 1    
   207  105  106 1    
   208  105  107 1    
   209  105  226 1    
   210  106  227 1    
   211  106  228 1    
   212  106  229 1    
   213  107  108 2    
   214  107  109 am   BACKBONE|DICT|INTERRES
   215  109  110 1    
   216  109  230 1    
   217  110  111 1    
   218  110  112 1    
   219  110  231 1    
   220  111  232 1    
   221  111  233 1    
   222  111  234 1    
   223  112  113 2    
   224  112  114 am   BACKBONE|DICT|INTERRES
   225  114  115 1    
   226  114  235 1    
   227  115  116 1    
   228  115  117 1    
   229  115  236 1    
   230  116  237 1    
   231  116  238 1    
   232  116  239 1    
   233  117  118 2    
   234  117  119 am   BACKBONE|DICT|INTERRES
   235  119  120 1    
   236  119  240 1    
   237  120  121 1    
   238  120  124 1    
   239  120  241 1    
   240  121  122 am   BACKBONE|DICT|INTERRES
   241  121  123 2    
   242  122  242 1    
   243  122  243 1    
   244  124  125 1    
   245  124  244 1    
   246  124  245 1    
   247  125  126 1    
   248  126  246 1    
   249  126  247 1    
@<TRIPOS>SUBSTRUCTURE
     1 UNK         1 GROUP             0       ****    0 ROOT    
