@<TRIPOS>MOLECULE
3R540
247   249    1
SMALL
USER_CHARGES


@<TRIPOS>ATOM
      1 CA         -6.3390  -14.6542  -49.8769 C.3       0 UNK        -0.1800 
      2 C          -5.1977  -13.7425  -49.4512 C.2       0 UNK         0.5000 
      3 O          -5.4506  -12.6578  -48.9250 O.2       0 UNK        -0.5000 
      4 N          -3.9500  -14.1589  -49.6996 N.am      1 UNK        -0.5000 
      5 CA         -2.7332  -13.4126  -49.3611 C.3       1 UNK         0.1400 
      6 C6         -1.4655  -14.0400  -49.9911 C.3       23 UNK        -0.0398 
      7 S7         -1.5593  -14.1583  -51.8077 S.3       23 UNK        -0.2404 
      8 C8          0.0863  -14.8279  -52.2079 C.3       23 UNK        -0.0205 
      9 C9          0.3049  -16.2281  -51.6493 C.ar      23 UNK        -0.0193 
     10 C10        -0.3594  -17.3221  -52.2103 C.ar      23 UNK        -0.1150 
     11 C11        -0.1324  -18.6116  -51.7240 C.ar      23 UNK        -0.0193 
     12 C12         0.7649  -18.8035  -50.6696 C.ar      23 UNK        -0.1150 
     13 C13         1.4344  -17.7179  -50.0884 C.ar      23 UNK        -0.0193 
     14 C14         1.1954  -16.4343  -50.5908 C.ar      23 UNK        -0.1150 
     15 C15         2.4442  -17.8748  -48.9464 C.3       23 UNK        -0.0205 
     16 S16         2.4631  -19.4910  -48.0934 S.3       23 UNK        -0.2404 
     17 C17         0.8628  -19.4423  -47.2257 C.3       23 UNK        -0.0398 
     18 CA          0.3159  -20.8613  -46.9548 C.3       11 UNK         0.1400 
     19 N           1.0780  -21.5543  -45.9142 N.am      11 UNK        -0.5000 
     20 C           1.0613  -22.8802  -45.7254 C.2       10 UNK         0.5000 
     21 O           0.4351  -23.6645  -46.4371 O.2       10 UNK        -0.5000 
     22 CA          1.8371  -23.4078  -44.5088 C.3       10 UNK         0.1400 
     23 CB          3.3205  -23.6086  -44.8524 C.3       10 UNK        -0.1800 
     24 N           1.7101  -22.5108  -43.3588 N.am      10 UNK        -0.5000 
     25 C           0.6021  -22.4056  -42.6093 C.2       9 UNK         0.5000 
     26 O          -0.4158  -23.0608  -42.8367 O.2       9 UNK        -0.5000 
     27 CA          0.5998  -21.3922  -41.4398 C.3       9 UNK         0.1400 
     28 CB         -0.1261  -21.9349  -40.1926 C.3       9 UNK        -0.1800 
     29 N           1.9206  -20.8585  -41.0879 N.am      9 UNK        -0.5000 
     30 C           2.9883  -21.5358  -40.6401 C.2       8 UNK         0.5000 
     31 O           2.9674  -22.7341  -40.3541 O.2       8 UNK        -0.5000 
     32 CA          4.3113  -20.7414  -40.5382 C.3       8 UNK         0.1400 
     33 CB          5.5507  -21.6525  -40.6527 C.3       8 UNK        -0.1800 
     34 N           4.4237  -19.6294  -41.4939 N.am      8 UNK        -0.5000 
     35 C           4.3022  -19.6707  -42.8296 C.2       7 UNK         0.5000 
     36 O           4.0083  -20.6930  -43.4506 O.2       7 UNK        -0.5000 
     37 CA          4.5041  -18.3380  -43.5850 C.3       7 UNK         0.1400 
     38 CB          4.1700  -18.4541  -45.0810 C.3       7 UNK        -0.1800 
     39 N           3.7014  -17.2555  -43.0153 N.am      7 UNK        -0.5000 
     40 C           3.9982  -16.5668  -41.9062 C.2       6 UNK         0.5000 
     41 O           5.0212  -16.7499  -41.2450 O.2       6 UNK        -0.5000 
     42 CA          2.9524  -15.5500  -41.4191 C.3       6 UNK         0.1400 
     43 CB          3.1402  -14.2013  -42.1283 C.3       6 UNK        -0.1800 
     44 N           1.5715  -16.0068  -41.5937 N.am      6 UNK        -0.5000 
     45 C           1.0301  -17.0803  -40.9982 C.2       5 UNK         0.5000 
     46 O           1.6568  -17.8626  -40.2832 O.2       5 UNK        -0.5000 
     47 CA         -0.4685  -17.3218  -41.2452 C.3       5 UNK         0.1400 
     48 CB         -1.3143  -16.5522  -40.2203 C.3       5 UNK        -0.1800 
     49 N          -0.8801  -16.9367  -42.5938 N.am      5 UNK        -0.5000 
     50 C          -0.6511  -17.6774  -43.6844 C.2       4 UNK         0.5000 
     51 O          -0.0740  -18.7666  -43.6751 O.2       4 UNK        -0.5000 
     52 CA         -1.1477  -17.0890  -45.0167 C.3       4 UNK         0.1400 
     53 CB         -2.6743  -16.8969  -44.9925 C.3       4 UNK        -0.1800 
     54 N          -0.5035  -15.8320  -45.4138 N.am      4 UNK        -0.5000 
     55 C           0.8024  -15.5195  -45.3352 C.2       3 UNK         0.5000 
     56 O           1.6624  -16.2689  -44.8734 O.2       3 UNK        -0.5000 
     57 CA          1.2495  -14.1394  -45.8650 C.3       3 UNK         0.1400 
     58 CB          2.1418  -14.3059  -47.1043 C.3       3 UNK        -0.1800 
     59 N           0.1547  -13.2327  -46.2054 N.am      3 UNK        -0.5000 
     60 C          -0.6915  -12.6541  -45.3431 C.2       2 UNK         0.5000 
     61 O          -0.6133  -12.7819  -44.1210 O.2       2 UNK        -0.5000 
     62 CA         -1.8351  -11.8167  -45.9558 C.3       2 UNK         0.1400 
     63 CB         -1.5365  -10.3164  -45.8136 C.3       2 UNK        -0.1800 
     64 N          -2.1084  -12.1155  -47.3691 N.am      2 UNK        -0.5000 
     65 C          -2.5517  -13.2931  -47.8329 C.2       1 UNK         0.5000 
     66 O          -2.7475  -14.2721  -47.1105 O.2       1 UNK        -0.5000 
     67 C          -1.1920  -20.8385  -46.6306 C.2       11 UNK         0.5000 
     68 O          -2.0012  -20.8805  -47.5548 O.2       11 UNK        -0.5000 
     69 N          -1.5613  -20.8251  -45.3397 N.am      12 UNK        -0.5000 
     70 CA         -2.9533  -20.8769  -44.8798 C.3       12 UNK         0.1400 
     71 CB         -3.0199  -20.6919  -43.3561 C.3       12 UNK        -0.1800 
     72 C          -3.6935  -22.1619  -45.2978 C.2       12 UNK         0.5000 
     73 O          -4.8984  -22.1114  -45.5474 O.2       12 UNK        -0.5000 
     74 N          -2.9557  -23.2744  -45.4192 N.am      13 UNK        -0.5000 
     75 CA         -3.4628  -24.5580  -45.9069 C.3       13 UNK         0.1400 
     76 CB         -2.4062  -25.6451  -45.6623 C.3       13 UNK        -0.1800 
     77 C          -3.8802  -24.5291  -47.3918 C.2       13 UNK         0.5000 
     78 O          -4.7321  -25.3228  -47.7923 O.2       13 UNK        -0.5000 
     79 N          -3.3201  -23.5981  -48.1780 N.am      14 UNK        -0.5000 
     80 CA         -3.6405  -23.3726  -49.5881 C.3       14 UNK         0.1400 
     81 CB         -2.3967  -22.8072  -50.2937 C.3       14 UNK        -0.1800 
     82 C          -4.8821  -22.4690  -49.7429 C.2       14 UNK         0.5000 
     83 O          -4.8277  -21.4444  -50.4288 O.2       14 UNK        -0.5000 
     84 N          -5.9775  -22.8647  -49.0788 N.am      15 UNK        -0.5000 
     85 CA         -7.2923  -22.2153  -49.0505 C.3       15 UNK         0.1400 
     86 CB         -7.9697  -22.3271  -50.4336 C.3       15 UNK        -0.1800 
     87 C          -7.2330  -20.7640  -48.5298 C.2       15 UNK         0.5000 
     88 O          -7.8016  -19.8680  -49.1515 O.2       15 UNK        -0.5000 
     89 N          -6.5175  -20.5556  -47.4134 N.am      16 UNK        -0.5000 
     90 CA         -6.1978  -19.2522  -46.8150 C.3       16 UNK         0.1400 
     91 CB         -7.4692  -18.5153  -46.3420 C.3       16 UNK        -0.1800 
     92 C          -5.2965  -18.3948  -47.7302 C.2       16 UNK         0.5000 
     93 O          -5.4683  -17.1783  -47.8015 O.2       16 UNK        -0.5000 
     94 N          -4.3534  -19.0650  -48.4106 N.am      17 UNK        -0.5000 
     95 CA         -3.4054  -18.5330  -49.3936 C.3       17 UNK         0.1400 
     96 CB         -2.4021  -17.5805  -48.7195 C.3       17 UNK        -0.1800 
     97 C          -4.1097  -17.9050  -50.6115 C.2       17 UNK         0.5000 
     98 O          -3.7435  -16.8095  -51.0396 O.2       17 UNK        -0.5000 
     99 N          -5.1271  -18.6059  -51.1259 N.am      18 UNK        -0.5000 
    100 CA        -5.9514  -18.1762  -52.2561 C.3       18 UNK         0.1400 
    101 CB        -7.3937  -17.9534  -51.7730 C.3       18 UNK        -0.1800 
    102 C         -5.9385  -19.1875  -53.4145 C.2       18 UNK         0.5000 
    103 O         -6.3731  -18.8294  -54.5107 O.2       18 UNK        -0.5000 
    104 N         -5.4752  -20.4246  -53.1768 N.am      19 UNK        -0.5000 
    105 CA        -5.4067  -21.4765  -54.1922 C.3       19 UNK         0.1400 
    106 CB        -5.0832  -22.8183  -53.5192 C.3       19 UNK        -0.1800 
    107 C         -4.3692  -21.1532  -55.2834 C.2       19 UNK         0.5000 
    108 O         -3.2591  -20.7208  -54.9648 O.2       19 UNK        -0.5000 
    109 N         -4.7451  -21.3824  -56.5468 N.am      20 UNK        -0.5000 
    110 CA        -3.8708  -21.2207  -57.7071 C.3       20 UNK         0.1400 
    111 CB        -4.7277  -21.1941  -58.9823 C.3       20 UNK        -0.1800 
    112 C         -2.8315  -22.3532  -57.7761 C.2       20 UNK         0.5000 
    113 O         -3.1669  -23.5027  -57.4794 O.2       20 UNK        -0.5000 
    114 N         -1.6023  -22.0039  -58.1835 N.am      21 UNK        -0.5000 
    115 CA        -0.4359  -22.8882  -58.3204 C.3       21 UNK         0.1400 
    116 CB        -0.6375  -23.8752  -59.4897 C.3       21 UNK        -0.1800 
    117 C         -0.0420  -23.5877  -56.9993 C.2       21 UNK         0.5000 
    118 O          0.3501  -24.7565  -57.0072 O.2       21 UNK        -0.5000 
    119 N         -0.1764  -22.8575  -55.8854 N.am      22 UNK        -0.5000 
    120 CA         0.1582  -23.3052  -54.5274 C.3       22 UNK         0.1400 
    121 C          1.6730  -23.5929  -54.3032 C.2       22 UNK         0.5000 
    122 N          2.0111  -24.4068  -53.3117 N.am      22 UNK        -0.7600 
    123 O          2.5452  -23.0734  -54.9973 O.2       22 UNK        -0.5000 
    124 C124       -0.4216  -22.3384  -53.4626 C.3       23 UNK        -0.0398 
    125 S125        0.2115  -20.6283  -53.5666 S.3       23 UNK        -0.2404 
    126 C126       -0.8441  -19.8064  -52.3353 C.3       23 UNK        -0.0205 
    127 H127       -5.9820  -15.4873  -50.4804 H         1 UNK         0.0600 
    128 H128       -6.8438  -15.0599  -48.9996 H         1 UNK         0.0600 
    129 H129       -7.0680  -14.0986  -50.4671 H         1 UNK         0.0600 
    130 H130       -3.8046  -15.0631  -50.1423 H         1 UNK         0.3000 
    131 H131       -2.8495  -12.4064  -49.7694 H         1 UNK         0.0600 
    132 H132       -1.2926  -15.0373  -49.5870 H         1 UNK         0.0800 
    133 H133       -0.5823  -13.4493  -49.7416 H         1 UNK         0.0800 
    134 H134        0.8516  -14.1404  -51.8445 H         1 UNK         0.0800 
    135 H135        0.1970  -14.8579  -53.2927 H         1 UNK         0.0800 
    136 H136       -1.0498  -17.1681  -53.0278 H         1 UNK         0.1150 
    137 H137        0.9413  -19.8095  -50.3190 H         1 UNK         0.1150 
    138 H138        1.7188  -15.5902  -50.1651 H         1 UNK         0.1150 
    139 H139        3.4418  -17.6938  -49.3483 H         1 UNK         0.0800 
    140 H140        2.2696  -17.1019  -48.1973 H         1 UNK         0.0800 
    141 H141        0.9922  -18.8868  -46.2968 H         1 UNK         0.0800 
    142 H142        0.1654  -18.8715  -47.8383 H         1 UNK         0.0800 
    143 H143        0.4127  -21.4348  -47.8800 H         1 UNK         0.0600 
    144 H144        1.6270  -20.9823  -45.2886 H         1 UNK         0.3000 
    145 H145        1.4197  -24.3799  -44.2372 H         1 UNK         0.0600 
    146 H146        3.8817  -23.9649  -43.9883 H         1 UNK         0.0600 
    147 H147        3.4378  -24.3476  -45.6458 H         1 UNK         0.0600 
    148 H148        3.7860  -22.6847  -45.1968 H         1 UNK         0.0600 
    149 H149        2.5105  -21.9186  -43.1557 H         1 UNK         0.3000 
    150 H150        0.0225  -20.5415  -41.7971 H         1 UNK         0.0600 
    151 H151       -1.1641  -22.1809  -40.4193 H         1 UNK         0.0600 
    152 H152       -0.1382  -21.1958  -39.3915 H         1 UNK         0.0600 
    153 H153        0.3460  -22.8397  -39.8092 H         1 UNK         0.0600 
    154 H154        2.0443  -19.8666  -41.2501 H         1 UNK         0.3000 
    155 H155        4.3174  -20.2922  -39.5443 H         1 UNK         0.0600 
    156 H156        5.5601  -22.4074  -39.8657 H         1 UNK         0.0600 
    157 H157        6.4723  -21.0784  -40.5583 H         1 UNK         0.0600 
    158 H158        5.5778  -22.1752  -41.6096 H         1 UNK         0.0600 
    159 H159        4.6401  -18.7241  -41.0891 H         1 UNK         0.3000 
    160 H160        5.5609  -18.0776  -43.4999 H         1 UNK         0.0600 
    161 H161        3.1245  -18.7229  -45.2283 H         1 UNK         0.0600 
    162 H162        4.7800  -19.2163  -45.5672 H         1 UNK         0.0600 
    163 H163        4.3475  -17.5133  -45.6022 H         1 UNK         0.0600 
    164 H164        2.8446  -17.0267  -43.5129 H         1 UNK         0.3000 
    165 H165        3.1129  -15.3970  -40.3500 H         1 UNK         0.0600 
    166 H166        4.1329  -13.7945  -41.9316 H         1 UNK         0.0600 
    167 H167        3.0382  -14.3007  -43.2082 H         1 UNK         0.0600 
    168 H168        2.4131  -13.4650  -41.7851 H         1 UNK         0.0600 
    169 H169        0.9847  -15.4493  -42.1955 H         1 UNK         0.3000 
    170 H170       -0.6646  -18.3866  -41.1067 H         1 UNK         0.0600 
    171 H171       -1.0437  -16.8335  -39.2016 H         1 UNK         0.0600 
    172 H172       -1.1778  -15.4739  -40.3107 H         1 UNK         0.0600 
    173 H173       -2.3757  -16.7680  -40.3445 H         1 UNK         0.0600 
    174 H174       -1.3538  -16.0508  -42.6950 H         1 UNK         0.3000 
    175 H175       -0.9267  -17.8209  -45.7890 H         1 UNK         0.0600 
    176 H176       -2.9676  -16.0581  -44.3606 H         1 UNK         0.0600 
    177 H177       -3.0659  -16.7055  -45.9906 H         1 UNK         0.0600 
    178 H178       -3.1831  -17.7837  -44.6154 H         1 UNK         0.0600 
    179 H179       -1.1214  -15.1468  -45.8315 H         1 UNK         0.3000 
    180 H180        1.8411  -13.6664  -45.0803 H         1 UNK         0.0600 
    181 H181        1.5874  -14.7368  -47.9377 H         1 UNK         0.0600 
    182 H182        2.5476  -13.3481  -47.4304 H         1 UNK         0.0600 
    183 H183        2.9895  -14.9604  -46.8962 H         1 UNK         0.0600 
    184 H184        0.0127  -13.0529  -47.1871 H         1 UNK         0.3000 
    185 H185       -2.7394  -12.0417  -45.3867 H         1 UNK         0.0600 
    186 H186       -2.3744   -9.7120  -46.1617 H         1 UNK         0.0600 
    187 H187       -1.3579  -10.0498  -44.7709 H         1 UNK         0.0600 
    188 H188       -0.6521  -10.0264  -46.3823 H         1 UNK         0.0600 
    189 H189       -1.9641  -11.3552  -48.0185 H         1 UNK         0.3000 
    190 H190       -0.8466  -20.7574  -44.6282 H         1 UNK         0.3000 
    191 H191       -3.4715  -20.0390  -45.3456 H         1 UNK         0.0600 
    192 H192       -4.0553  -20.6787  -43.0132 H         1 UNK         0.0600 
    193 H193       -2.5690  -19.7527  -43.0418 H         1 UNK         0.0600 
    194 H194       -2.5157  -21.4998  -42.8275 H         1 UNK         0.0600 
    195 H195       -1.9713  -23.2298  -45.1941 H         1 UNK         0.3000 
    196 H196       -4.3502  -24.8094  -45.3221 H         1 UNK         0.0600 
    197 H197       -2.7897  -26.6289  -45.9355 H         1 UNK         0.0600 
    198 H198       -2.1176  -25.6885  -44.6118 H         1 UNK         0.0600 
    199 H199       -1.5058  -25.4712  -46.2517 H         1 UNK         0.0600 
    200 H200       -2.6820  -22.9312  -47.7614 H         1 UNK         0.3000 
    201 H201       -3.8783  -24.3278  -50.0604 H         1 UNK         0.0600 
    202 H202       -1.5389  -23.4691  -50.1743 H         1 UNK         0.0600 
    203 H203       -2.1210  -21.8293  -49.9036 H         1 UNK         0.0600 
    204 H204       -2.5717  -22.6923  -51.3616 H         1 UNK         0.0600 
    205 H205       -5.8972  -23.7184  -48.5378 H         1 UNK         0.3000 
    206 H206       -7.9000  -22.7735  -48.3370 H         1 UNK         0.0600 
    207 H207       -8.0075  -23.3623  -50.7724 H         1 UNK         0.0600 
    208 H208       -8.9963  -21.9609  -50.3963 H         1 UNK         0.0600 
    209 H209       -7.4442  -21.7457  -51.1919 H         1 UNK         0.0600 
    210 H210       -6.0851  -21.3512  -46.9524 H         1 UNK         0.3000 
    211 H211       -5.6104  -19.4630  -45.9226 H         1 UNK         0.0600 
    212 H212       -8.0805  -18.1745  -47.1778 H         1 UNK         0.0600 
    213 H213       -7.2098  -17.6352  -45.7526 H         1 UNK         0.0600 
    214 H214       -8.0859  -19.1565  -45.7125 H         1 UNK         0.0600 
    215 H215       -4.3018  -20.0655  -48.2827 H         1 UNK         0.3000 
    216 H216       -2.8435  -19.3884  -49.7706 H         1 UNK         0.0600 
    217 H217       -2.8708  -16.6417  -48.4264 H         1 UNK         0.0600 
    218 H218       -1.5786  -17.3461  -49.3925 H         1 UNK         0.0600 
    219 H219       -1.9781  -18.0338  -47.8278 H         1 UNK         0.0600 
    220 H220       -5.3483  -19.5048  -50.7106 H         1 UNK         0.3000 
    221 H221       -5.5799  -17.2314  -52.6577 H         1 UNK         0.0600 
    222 H222       -7.8931  -18.8979  -51.5564 H         1 UNK         0.0600 
    223 H223       -7.4281  -17.3448  -50.8697 H         1 UNK         0.0600 
    224 H224       -7.9834  -17.4433  -52.5352 H         1 UNK         0.0600 
    225 H225       -5.1195  -20.6607  -52.2575 H         1 UNK         0.3000 
    226 H226       -6.3929  -21.5591  -54.6540 H         1 UNK         0.0600 
    227 H227       -5.8226  -23.0703  -52.7589 H         1 UNK         0.0600 
    228 H228       -5.0771  -23.6285  -54.2493 H         1 UNK         0.0600 
    229 H229       -4.1032  -22.8000  -53.0450 H         1 UNK         0.0600 
    230 H230       -5.6590  -21.7717  -56.7265 H         1 UNK         0.3000 
    231 H231       -3.3519  -20.2634  -57.6191 H         1 UNK         0.0600 
    232 H232       -5.2808  -22.1249  -59.1161 H         1 UNK         0.0600 
    233 H233       -5.4476  -20.3758  -58.9573 H         1 UNK         0.0600 
    234 H234       -4.1059  -21.0520  -59.8671 H         1 UNK         0.0600 
    235 H235       -1.4317  -21.0322  -58.4030 H         1 UNK         0.3000 
    236 H236        0.4065  -22.2450  -58.5791 H         1 UNK         0.0600 
    237 H237       -0.8945  -23.3498  -60.4093 H         1 UNK         0.0600 
    238 H238        0.2738  -24.4413  -59.6856 H         1 UNK         0.0600 
    239 H239       -1.4305  -24.5940  -59.2815 H         1 UNK         0.0600 
    240 H240       -0.4959  -21.9032  -55.9644 H         1 UNK         0.3000 
    241 H241       -0.3523  -24.2614  -54.3965 H         1 UNK         0.0600 
    242 H242        2.9881  -24.5954  -53.1485 H         1 UNK         0.3800 
    243 H243        1.3202  -24.8515  -52.7275 H         1 UNK         0.3800 
    244 H244       -0.2265  -22.7193  -52.4591 H         1 UNK         0.0800 
    245 H245       -1.5072  -22.3050  -53.5623 H         1 UNK         0.0800 
    246 H246       -1.7829  -19.5046  -52.8033 H         1 UNK         0.0800 
    247 H247       -1.1054  -20.5069  -51.5433 H         1 UNK         0.0800 
@<TRIPOS>BOND
     1    1    2 1    
     2    1  127 1    
     3    1  128 1    
     4    1  129 1    
     5    2    3 2    
     6    2    4 am   BACKBONE|DICT|INTERRES
     7    4    5 1    
     8    4  130 1    
     9    5    6 1    
    10    5   65 1    
    11    5  131 1    
    12    6    7 1    
    13    6  132 1    
    14    6  133 1    
    15    7    8 1    
    16    8    9 1    
    17    8  134 1    
    18    8  135 1    
    19    9   10 ar   
    20    9   14 ar   
    21   10   11 ar   
    22   10  136 1    
    23   11   12 ar   
    24   11  126 1    
    25   12   13 ar   
    26   12  137 1    
    27   13   14 ar   
    28   13   15 1    
    29   14  138 1    
    30   15   16 1    
    31   15  139 1    
    32   15  140 1    
    33   16   17 1    
    34   17   18 1    
    35   17  141 1    
    36   17  142 1    
    37   18   19 1    
    38   18   67 1    
    39   18  143 1    
    40   19   20 am   BACKBONE|DICT|INTERRES
    41   19  144 1    
    42   20   21 2    
    43   20   22 1    
    44   22   23 1    
    45   22   24 1    
    46   22  145 1    
    47   23  146 1    
    48   23  147 1    
    49   23  148 1    
    50   24   25 am   BACKBONE|DICT|INTERRES
    51   24  149 1    
    52   25   26 2    
    53   25   27 1    
    54   27   28 1    
    55   27   29 1    
    56   27  150 1    
    57   28  151 1    
    58   28  152 1    
    59   28  153 1    
    60   29   30 am   BACKBONE|DICT|INTERRES
    61   29  154 1    
    62   30   31 2    
    63   30   32 1    
    64   32   33 1    
    65   32   34 1    
    66   32  155 1    
    67   33  156 1    
    68   33  157 1    
    69   33  158 1    
    70   34   35 am   BACKBONE|DICT|INTERRES
    71   34  159 1    
    72   35   36 2    
    73   35   37 1    
    74   37   38 1    
    75   37   39 1    
    76   37  160 1    
    77   38  161 1    
    78   38  162 1    
    79   38  163 1    
    80   39   40 am   BACKBONE|DICT|INTERRES
    81   39  164 1    
    82   40   41 2    
    83   40   42 1    
    84   42   43 1    
    85   42   44 1    
    86   42  165 1    
    87   43  166 1    
    88   43  167 1    
    89   43  168 1    
    90   44   45 am   BACKBONE|DICT|INTERRES
    91   44  169 1    
    92   45   46 2    
    93   45   47 1    
    94   47   48 1    
    95   47   49 1    
    96   47  170 1    
    97   48  171 1    
    98   48  172 1    
    99   48  173 1    
   100   49   50 am   BACKBONE|DICT|INTERRES
   101   49  174 1    
   102   50   51 2    
   103   50   52 1    
   104   52   53 1    
   105   52   54 1    
   106   52  175 1    
   107   53  176 1    
   108   53  177 1    
   109   53  178 1    
   110   54   55 am   BACKBONE|DICT|INTERRES
   111   54  179 1    
   112   55   56 2    
   113   55   57 1    
   114   57   58 1    
   115   57   59 1    
   116   57  180 1    
   117   58  181 1    
   118   58  182 1    
   119   58  183 1    
   120   59   60 am   BACKBONE|DICT|INTERRES
   121   59  184 1    
   122   60   61 2    
   123   60   62 1    
   124   62   63 1    
   125   62   64 1    
   126   62  185 1    
   127   63  186 1    
   128   63  187 1    
   129   63  188 1    
   130   64   65 am   BACKBONE|DICT|INTERRES
   131   64  189 1    
   132   65   66 2    
   133   67   68 2    
   134   67   69 am   BACKBONE|DICT|INTERRES
   135   69   70 1    
   136   69  190 1    
   137   70   71 1    
   138   70   72 1    
   139   70  191 1    
   140   71  192 1    
   141   71  193 1    
   142   71  194 1    
   143   72   73 2    
   144   72   74 am   BACKBONE|DICT|INTERRES
   145   74   75 1    
   146   74  195 1    
   147   75   76 1    
   148   75   77 1    
   149   75  196 1    
   150   76  197 1    
   151   76  198 1    
   152   76  199 1    
   153   77   78 2    
   154   77   79 am   BACKBONE|DICT|INTERRES
   155   79   80 1    
   156   79  200 1    
   157   80   81 1    
   158   80   82 1    
   159   80  201 1    
   160   81  202 1    
   161   81  203 1    
   162   81  204 1    
   163   82   83 2    
   164   82   84 am   BACKBONE|DICT|INTERRES
   165   84   85 1    
   166   84  205 1    
   167   85   86 1    
   168   85   87 1    
   169   85  206 1    
   170   86  207 1    
   171   86  208 1    
   172   86  209 1    
   173   87   88 2    
   174   87   89 am   BACKBONE|DICT|INTERRES
   175   89   90 1    
   176   89  210 1    
   177   90   91 1    
   178   90   92 1    
   179   90  211 1    
   180   91  212 1    
   181   91  213 1    
   182   91  214 1    
   183   92   93 2    
   184   92   94 am   BACKBONE|DICT|INTERRES
   185   94   95 1    
   186   94  215 1    
   187   95   96 1    
   188   95   97 1    
   189   95  216 1    
   190   96  217 1    
   191   96  218 1    
   192   96  219 1    
   193   97   98 2    
   194   97   99 am   BACKBONE|DICT|INTERRES
   195   99  100 1    
   196   99  220 1    
   197  100  101 1    
   198  100  102 1    
   199  100  221 1    
   200  101  222 1    
   201  101  223 1    
   202  101  224 1    
   203  102  103 2    
   204  102  104 am   BACKBONE|DICT|INTERRES
   205  104  105 1    
   206  104  225 1    
   207  105  106 1    
   208  105  107 1    
   209  105  226 1    
   210  106  227 1    
   211  106  228 1    
   212  106  229 1    
   213  107  108 2    
   214  107  109 am   BACKBONE|DICT|INTERRES
   215  109  110 1    
   216  109  230 1    
   217  110  111 1    
   218  110  112 1    
   219  110  231 1    
   220  111  232 1    
   221  111  233 1    
   222  111  234 1    
   223  112  113 2    
   224  112  114 am   BACKBONE|DICT|INTERRES
   225  114  115 1    
   226  114  235 1    
   227  115  116 1    
   228  115  117 1    
   229  115  236 1    
   230  116  237 1    
   231  116  238 1    
   232  116  239 1    
   233  117  118 2    
   234  117  119 am   BACKBONE|DICT|INTERRES
   235  119  120 1    
   236  119  240 1    
   237  120  121 1    
   238  120  124 1    
   239  120  241 1    
   240  121  122 am   BACKBONE|DICT|INTERRES
   241  121  123 2    
   242  122  242 1    
   243  122  243 1    
   244  124  125 1    
   245  124  244 1    
   246  124  245 1    
   247  125  126 1    
   248  126  246 1    
   249  126  247 1    
@<TRIPOS>SUBSTRUCTURE
     1 UNK         1 GROUP             0       ****    0 ROOT    
