@<TRIPOS>MOLECULE
3R540
247   249    1
SMALL
USER_CHARGES


@<TRIPOS>ATOM
      1 CA          4.9587  -11.5400  -44.4316 C.3       0 UNK        -0.1800 
      2 C           3.7726  -12.2063  -45.1110 C.2       0 UNK         0.5000 
      3 O           2.6564  -12.1445  -44.5965 O.2       0 UNK        -0.5000 
      4 N           3.9933  -12.8361  -46.2721 N.am      1 UNK        -0.5000 
      5 CA          2.9582  -13.5399  -47.0411 C.3       1 UNK         0.1400 
      6 C6          3.5618  -14.3523  -48.2155 C.3       23 UNK        -0.0398 
      7 S7          2.7096  -15.9421  -48.4482 S.3       23 UNK        -0.2404 
      8 C8          1.5993  -15.5643  -49.8364 C.3       23 UNK        -0.0205 
      9 C9          0.6224  -16.7063  -50.0538 C.ar      23 UNK        -0.0193 
     10 C10        -0.7065  -16.5930  -49.6364 C.ar      23 UNK        -0.1150 
     11 C11        -1.5992  -17.6579  -49.7911 C.ar      23 UNK        -0.0193 
     12 C12        -1.1389  -18.8428  -50.3806 C.ar      23 UNK        -0.1150 
     13 C13         0.1884  -18.9716  -50.8046 C.ar      23 UNK        -0.0193 
     14 C14         1.0594  -17.8925  -50.6458 C.ar      23 UNK        -0.1150 
     15 C15         0.7066  -20.2660  -51.4270 C.3       23 UNK        -0.0205 
     16 S16         0.0703  -21.7868  -50.6451 S.3       23 UNK        -0.2404 
     17 C17         0.4481  -21.4826  -48.8816 C.3       23 UNK        -0.0398 
     18 CA          0.0153  -22.6350  -47.9483 C.3       11 UNK         0.1400 
     19 N           0.4613  -22.4002  -46.5732 N.am      11 UNK        -0.5000 
     20 C           0.4365  -23.3233  -45.6024 C.2       10 UNK         0.5000 
     21 O           0.0753  -24.4860  -45.7741 O.2       10 UNK        -0.5000 
     22 CA          0.8374  -22.8635  -44.1917 C.3       10 UNK         0.1400 
     23 CB          2.3660  -22.8148  -44.0532 C.3       10 UNK        -0.1800 
     24 N           0.2637  -21.5651  -43.8388 N.am      10 UNK        -0.5000 
     25 C          -1.0496  -21.3153  -43.7349 C.2       9 UNK         0.5000 
     26 O          -1.9211  -22.1691  -43.8921 O.2       9 UNK        -0.5000 
     27 CA         -1.4629  -19.8585  -43.4591 C.3       9 UNK         0.1400 
     28 CB         -1.3120  -19.5170  -41.9700 C.3       9 UNK        -0.1800 
     29 N          -0.7096  -18.8967  -44.2631 N.am      9 UNK        -0.5000 
     30 C          -0.7295  -18.8418  -45.6031 C.2       8 UNK         0.5000 
     31 O          -1.3977  -19.5905  -46.3147 O.2       8 UNK        -0.5000 
     32 CA          0.1907  -17.8004  -46.2531 C.3       8 UNK         0.1400 
     33 CB         -0.4498  -16.4056  -46.2006 C.3       8 UNK        -0.1800 
     34 N           1.4939  -17.7681  -45.5942 N.am      8 UNK        -0.5000 
     35 C           2.4233  -18.7251  -45.7196 C.2       7 UNK         0.5000 
     36 O           2.2850  -19.7302  -46.4193 O.2       7 UNK        -0.5000 
     37 CA          3.7063  -18.5432  -44.8852 C.3       7 UNK         0.1400 
     38 CB          4.6759  -17.5815  -45.5897 C.3       7 UNK        -0.1800 
     39 N           3.4439  -18.0541  -43.5288 N.am      7 UNK        -0.5000 
     40 C           2.7457  -18.7246  -42.6014 C.2       6 UNK         0.5000 
     41 O           2.2776  -19.8468  -42.7821 O.2       6 UNK        -0.5000 
     42 CA          2.4864  -18.0152  -41.2580 C.3       6 UNK         0.1400 
     43 CB          3.6130  -18.3315  -40.2633 C.3       6 UNK        -0.1800 
     44 N           2.3136  -16.5611  -41.3407 N.am      6 UNK        -0.5000 
     45 C           1.4525  -15.9068  -42.1331 C.2       5 UNK         0.5000 
     46 O           0.7473  -16.4716  -42.9740 O.2       5 UNK        -0.5000 
     47 CA          1.3951  -14.3722  -41.9484 C.3       5 UNK         0.1400 
     48 CB          2.8018  -13.7523  -41.8523 C.3       5 UNK        -0.1800 
     49 N           0.6570  -13.7019  -43.0206 N.am      5 UNK        -0.5000 
     50 C          -0.6771  -13.7095  -43.1558 C.2       4 UNK         0.5000 
     51 O          -1.4432  -14.2091  -42.3288 O.2       4 UNK        -0.5000 
     52 CA         -1.2392  -13.0472  -44.4316 C.3       4 UNK         0.1400 
     53 CB         -2.7688  -12.8465  -44.3986 C.3       4 UNK        -0.1800 
     54 N          -0.5499  -11.8041  -44.7813 N.am      4 UNK        -0.5000 
     55 C          -0.5025  -10.6634  -44.0747 C.2       3 UNK         0.5000 
     56 O          -1.0903  -10.4955  -43.0054 O.2       3 UNK        -0.5000 
     57 CA          0.3467   -9.5103  -44.6516 C.3       3 UNK         0.1400 
     58 CB          1.4153   -9.0524  -43.6438 C.3       3 UNK        -0.1800 
     59 N           1.0106   -9.8810  -45.9030 N.am      3 UNK        -0.5000 
     60 C           0.5017   -9.7091  -47.1308 C.2       2 UNK         0.5000 
     61 O          -0.5662   -9.1383  -47.3529 O.2       2 UNK        -0.5000 
     62 CA          1.3095  -10.2890  -48.3110 C.3       2 UNK         0.1400 
     63 CB          2.1207   -9.1820  -49.0012 C.3       2 UNK        -0.1800 
     64 N           2.2195  -11.3708  -47.9226 N.am      2 UNK        -0.5000 
     65 C           1.8358  -12.5901  -47.5164 C.2       1 UNK         0.5000 
     66 O           0.6590  -12.9428  -47.4411 O.2       1 UNK        -0.5000 
     67 C          -1.5039  -22.9137  -48.0126 C.2       11 UNK         0.5000 
     68 O          -1.9218  -23.8542  -48.6894 O.2       11 UNK        -0.5000 
     69 N          -2.3057  -22.1286  -47.2818 N.am      12 UNK        -0.5000 
     70 CA         -3.7534  -22.3120  -47.1846 C.3       12 UNK         0.1400 
     71 CB         -4.3752  -21.1250  -46.4352 C.3       12 UNK        -0.1800 
     72 C          -4.1539  -23.6531  -46.5391 C.2       12 UNK         0.5000 
     73 O          -5.1321  -24.2622  -46.9716 O.2       12 UNK        -0.5000 
     74 N          -3.3861  -24.0923  -45.5342 N.am      13 UNK        -0.5000 
     75 CA         -3.5888  -25.3484  -44.8212 C.3       13 UNK         0.1400 
     76 CB         -2.9471  -25.2517  -43.4263 C.3       13 UNK        -0.1800 
     77 C          -3.0537  -26.5649  -45.5980 C.2       13 UNK         0.5000 
     78 O          -3.8373  -27.4337  -45.9815 O.2       13 UNK        -0.5000 
     79 N          -1.7278  -26.6345  -45.7759 N.am      14 UNK        -0.5000 
     80 CA         -1.0212  -27.8365  -46.2224 C.3       14 UNK         0.1400 
     81 CB          0.4251  -27.8021  -45.7042 C.3       14 UNK        -0.1800 
     82 C          -1.0416  -28.0198  -47.7460 C.2       14 UNK         0.5000 
     83 O          -1.1836  -29.1503  -48.2135 O.2       14 UNK        -0.5000 
     84 N          -0.9116  -26.9152  -48.4923 N.am      15 UNK        -0.5000 
     85 CA         -0.9620  -26.9077  -49.9582 C.3       15 UNK         0.1400 
     86 CB          0.0543  -25.8909  -50.5060 C.3       15 UNK        -0.1800 
     87 C          -2.3830  -26.6374  -50.4901 C.2       15 UNK         0.5000 
     88 O          -2.5641  -26.5619  -51.7047 O.2       15 UNK        -0.5000 
     89 N          -3.3605  -26.4846  -49.5825 N.am      16 UNK        -0.5000 
     90 CA         -4.7891  -26.2649  -49.8313 C.3       16 UNK         0.1400 
     91 CB         -5.4233  -27.5372  -50.4310 C.3       16 UNK        -0.1800 
     92 C          -5.0938  -25.0009  -50.6661 C.2       16 UNK         0.5000 
     93 O          -6.1029  -24.9689  -51.3728 O.2       16 UNK        -0.5000 
     94 N          -4.2095  -23.9932  -50.5838 N.am      17 UNK        -0.5000 
     95 CA         -4.2317  -22.7359  -51.3403 C.3       17 UNK         0.1400 
     96 CB         -5.4610  -21.8853  -50.9554 C.3       17 UNK        -0.1800 
     97 C          -4.1238  -22.9296  -52.8705 C.2       17 UNK         0.5000 
     98 O          -4.6577  -22.1092  -53.6232 O.2       17 UNK        -0.5000 
     99 N          -3.4501  -24.0045  -53.3124 N.am      18 UNK        -0.5000 
    100 CA        -3.2694  -24.3789  -54.7181 C.3       18 UNK         0.1400 
    101 CB        -2.4037  -25.6447  -54.8103 C.3       18 UNK        -0.1800 
    102 C         -2.6703  -23.2430  -55.5694 C.2       18 UNK         0.5000 
    103 O         -1.5401  -22.8209  -55.3185 O.2       18 UNK        -0.5000 
    104 N         -3.4700  -22.7584  -56.5304 N.am      19 UNK        -0.5000 
    105 CA        -3.2085  -21.6381  -57.4438 C.3       19 UNK         0.1400 
    106 CB        -1.9898  -21.9314  -58.3442 C.3       19 UNK        -0.1800 
    107 C         -3.1137  -20.2535  -56.7609 C.2       19 UNK         0.5000 
    108 O         -2.7286  -19.2876  -57.4225 O.2       19 UNK        -0.5000 
    109 N         -3.4819  -20.1638  -55.4760 N.am      20 UNK        -0.5000 
    110 CA        -3.4753  -18.9338  -54.6839 C.3       20 UNK         0.1400 
    111 CB        -2.6065  -19.1446  -53.4360 C.3       20 UNK        -0.1800 
    112 C         -4.8964  -18.5132  -54.2784 C.2       20 UNK         0.5000 
    113 O         -5.1738  -17.3141  -54.2301 O.2       20 UNK        -0.5000 
    114 N         -5.7649  -19.4945  -53.9863 N.am      21 UNK        -0.5000 
    115 CA        -7.1628  -19.3970  -53.5373 C.3       21 UNK         0.1400 
    116 CB        -8.0436  -18.6729  -54.5729 C.3       21 UNK        -0.1800 
    117 C         -7.3438  -18.7970  -52.1267 C.2       21 UNK         0.5000 
    118 O         -8.1041  -19.3507  -51.3323 O.2       21 UNK        -0.5000 
    119 N         -6.6269  -17.7059  -51.8348 N.am      22 UNK        -0.5000 
    120 CA        -6.5015  -17.0423  -50.5235 C.3       22 UNK         0.1400 
    121 C         -7.7999  -16.3537  -50.0013 C.2       22 UNK         0.5000 
    122 N         -8.8030  -16.1138  -50.8369 N.am      22 UNK        -0.7600 
    123 O         -7.8920  -15.9977  -48.8295 O.2       22 UNK        -0.5000 
    124 C124       -5.8268  -17.9423  -49.4472 C.3       23 UNK        -0.0398 
    125 S125       -4.2406  -18.6455  -50.0137 S.3       23 UNK        -0.2404 
    126 C126       -3.0310  -17.4982  -49.2756 C.3       23 UNK        -0.0205 
    127 H127        5.8780  -11.6674  -45.0035 H         1 UNK         0.0600 
    128 H128        5.1100  -11.9684  -43.4410 H         1 UNK         0.0600 
    129 H129        4.7719  -10.4723  -44.3171 H         1 UNK         0.0600 
    130 H130        4.9279  -12.8550  -46.6553 H         1 UNK         0.3000 
    131 H131        2.4985  -14.2384  -46.3373 H         1 UNK         0.0600 
    132 H132        4.6020  -14.6041  -48.0040 H         1 UNK         0.0800 
    133 H133        3.5850  -13.7861  -49.1488 H         1 UNK         0.0800 
    134 H134        1.0599  -14.6374  -49.6379 H         1 UNK         0.0800 
    135 H135        2.1857  -15.3994  -50.7415 H         1 UNK         0.0800 
    136 H136       -1.0413  -15.6773  -49.1690 H         1 UNK         0.1150 
    137 H137       -1.8048  -19.6841  -50.4976 H         1 UNK         0.1150 
    138 H138        2.0899  -17.9800  -50.9607 H         1 UNK         0.1150 
    139 H139        0.4388  -20.2779  -52.4839 H         1 UNK         0.0800 
    140 H140        1.7964  -20.2962  -51.3841 H         1 UNK         0.0800 
    141 H141       -0.0224  -20.5533  -48.5591 H         1 UNK         0.0800 
    142 H142        1.5234  -21.3203  -48.7929 H         1 UNK         0.0800 
    143 H143        0.5200  -23.5400  -48.2930 H         1 UNK         0.0600 
    144 H144        0.7815  -21.4657  -46.3506 H         1 UNK         0.3000 
    145 H145        0.4551  -23.6004  -43.4824 H         1 UNK         0.0600 
    146 H146        2.6605  -22.5976  -43.0264 H         1 UNK         0.0600 
    147 H147        2.8150  -23.7713  -44.3240 H         1 UNK         0.0600 
    148 H148        2.8045  -22.0500  -44.6955 H         1 UNK         0.0600 
    149 H149        0.9257  -20.8197  -43.6365 H         1 UNK         0.3000 
    150 H150       -2.5165  -19.7547  -43.7260 H         1 UNK         0.0600 
    151 H151       -1.9424  -20.1635  -41.3583 H         1 UNK         0.0600 
    152 H152       -1.6058  -18.4868  -41.7672 H         1 UNK         0.0600 
    153 H153       -0.2853  -19.6472  -41.6301 H         1 UNK         0.0600 
    154 H154       -0.1376  -18.2244  -43.7638 H         1 UNK         0.3000 
    155 H155        0.3358  -18.0767  -47.2997 H         1 UNK         0.0600 
    156 H156       -1.4085  -16.3970  -46.7190 H         1 UNK         0.0600 
    157 H157        0.1851  -15.6591  -46.6772 H         1 UNK         0.0600 
    158 H158       -0.6346  -16.0873  -45.1755 H         1 UNK         0.0600 
    159 H159        1.6412  -17.0281  -44.9211 H         1 UNK         0.3000 
    160 H160        4.1892  -19.5194  -44.8039 H         1 UNK         0.0600 
    161 H161        4.2657  -16.5730  -45.6587 H         1 UNK         0.0600 
    162 H162        4.8894  -17.9171  -46.6055 H         1 UNK         0.0600 
    163 H163        5.6272  -17.5220  -45.0607 H         1 UNK         0.0600 
    164 H164        3.7887  -17.1346  -43.2975 H         1 UNK         0.3000 
    165 H165        1.5586  -18.4211  -40.8527 H         1 UNK         0.0600 
    166 H166        3.3874  -17.9386  -39.2718 H         1 UNK         0.0600 
    167 H167        3.7523  -19.4086  -40.1592 H         1 UNK         0.0600 
    168 H168        4.5648  -17.9071  -40.5854 H         1 UNK         0.0600 
    169 H169        2.8643  -16.0189  -40.6911 H         1 UNK         0.3000 
    170 H170        0.8763  -14.1786  -41.0075 H         1 UNK         0.0600 
    171 H171        3.3177  -14.0644  -40.9440 H         1 UNK         0.0600 
    172 H172        3.4246  -14.0383  -42.7003 H         1 UNK         0.0600 
    173 H173        2.7520  -12.6632  -41.8264 H         1 UNK         0.0600 
    174 H174        1.2200  -13.2284  -43.7202 H         1 UNK         0.3000 
    175 H175       -1.0250  -13.7365  -45.2479 H         1 UNK         0.0600 
    176 H176       -3.0786  -12.2094  -43.5699 H         1 UNK         0.0600 
    177 H177       -3.1266  -12.3936  -45.3232 H         1 UNK         0.0600 
    178 H178       -3.2838  -13.8012  -44.2859 H         1 UNK         0.0600 
    179 H179       -0.0190  -11.8435  -45.6421 H         1 UNK         0.3000 
    180 H180       -0.3275   -8.6702  -44.8301 H         1 UNK         0.0600 
    181 H181        2.0889   -9.8642  -43.3691 H         1 UNK         0.0600 
    182 H182        0.9552   -8.6866  -42.7252 H         1 UNK         0.0600 
    183 H183        2.0173   -8.2390  -44.0490 H         1 UNK         0.0600 
    184 H184        1.8687  -10.4062  -45.8019 H         1 UNK         0.3000 
    185 H185        0.5937  -10.6897  -49.0320 H         1 UNK         0.0600 
    186 H186        1.4715   -8.3704  -49.3329 H         1 UNK         0.0600 
    187 H187        2.8668   -8.7525  -48.3315 H         1 UNK         0.0600 
    188 H188        2.6380   -9.5623  -49.8823 H         1 UNK         0.0600 
    189 H189        3.2057  -11.1538  -47.9287 H         1 UNK         0.3000 
    190 H190       -1.9108  -21.3341  -46.7838 H         1 UNK         0.3000 
    191 H191       -4.1483  -22.3106  -48.1998 H         1 UNK         0.0600 
    192 H192       -4.1649  -20.1849  -46.9463 H         1 UNK         0.0600 
    193 H193       -5.4592  -21.2263  -46.3731 H         1 UNK         0.0600 
    194 H194       -3.9914  -21.0466  -45.4179 H         1 UNK         0.0600 
    195 H195       -2.6394  -23.4927  -45.1969 H         1 UNK         0.3000 
    196 H196       -4.6612  -25.4964  -44.6763 H         1 UNK         0.0600 
    197 H197       -3.0625  -26.1859  -42.8754 H         1 UNK         0.0600 
    198 H198       -3.4160  -24.4654  -42.8345 H         1 UNK         0.0600 
    199 H199       -1.8805  -25.0304  -43.4817 H         1 UNK         0.0600 
    200 H200       -1.1443  -25.8363  -45.5338 H         1 UNK         0.3000 
    201 H201       -1.5084  -28.7076  -45.7784 H         1 UNK         0.0600 
    202 H202        0.4537  -27.6992  -44.6193 H         1 UNK         0.0600 
    203 H203        0.9908  -26.9751  -46.1345 H         1 UNK         0.0600 
    204 H204        0.9510  -28.7234  -45.9576 H         1 UNK         0.0600 
    205 H205       -0.8342  -26.0165  -48.0343 H         1 UNK         0.3000 
    206 H206       -0.6685  -27.8879  -50.3392 H         1 UNK         0.0600 
    207 H207        1.0525  -26.0764  -50.1095 H         1 UNK         0.0600 
    208 H208        0.1211  -25.9566  -51.5926 H         1 UNK         0.0600 
    209 H209       -0.2169  -24.8654  -50.2649 H         1 UNK         0.0600 
    210 H210       -3.0912  -26.5246  -48.6101 H         1 UNK         0.3000 
    211 H211       -5.2467  -26.1027  -48.8554 H         1 UNK         0.0600 
    212 H212       -5.0598  -27.7319  -51.4405 H         1 UNK         0.0600 
    213 H213       -6.5088  -27.4476  -50.4851 H         1 UNK         0.0600 
    214 H214       -5.2028  -28.4126  -49.8200 H         1 UNK         0.0600 
    215 H215       -3.4068  -24.1194  -49.9722 H         1 UNK         0.3000 
    216 H216       -3.3397  -22.1843  -51.0394 H         1 UNK         0.0600 
    217 H217       -5.4007  -20.8983  -51.4102 H         1 UNK         0.0600 
    218 H218       -5.5357  -21.7360  -49.8800 H         1 UNK         0.0600 
    219 H219       -6.3937  -22.3356  -51.2951 H         1 UNK         0.0600 
    220 H220       -3.0676  -24.6498  -52.6313 H         1 UNK         0.3000 
    221 H221       -4.2574  -24.6254  -55.1120 H         1 UNK         0.0600 
    222 H222       -1.4427  -25.5118  -54.3116 H         1 UNK         0.0600 
    223 H223       -2.9051  -26.4977  -54.3534 H         1 UNK         0.0600 
    224 H224       -2.2027  -25.9091  -55.8493 H         1 UNK         0.0600 
    225 H225       -4.3910  -23.1652  -56.6195 H         1 UNK         0.3000 
    226 H226       -4.0826  -21.5814  -58.0938 H         1 UNK         0.0600 
    227 H227       -2.0798  -22.9049  -58.8262 H         1 UNK         0.0600 
    228 H228       -1.8997  -21.1874  -59.1365 H         1 UNK         0.0600 
    229 H229       -1.0562  -21.9196  -57.7815 H         1 UNK         0.0600 
    230 H230       -3.8007  -21.0025  -55.0020 H         1 UNK         0.3000 
    231 H231       -3.0437  -18.1092  -55.2547 H         1 UNK         0.0600 
    232 H232       -1.5827  -19.4005  -53.7079 H         1 UNK         0.0600 
    233 H233       -2.9929  -19.9415  -52.7999 H         1 UNK         0.0600 
    234 H234       -2.5661  -18.2355  -52.8347 H         1 UNK         0.0600 
    235 H235       -5.4021  -20.4446  -53.9867 H         1 UNK         0.3000 
    236 H236       -7.5142  -20.4285  -53.4793 H         1 UNK         0.0600 
    237 H237       -7.9613  -19.1399  -55.5543 H         1 UNK         0.0600 
    238 H238       -9.0940  -18.7111  -54.2818 H         1 UNK         0.0600 
    239 H239       -7.7748  -17.6217  -54.6779 H         1 UNK         0.0600 
    240 H240       -6.0449  -17.3311  -52.5791 H         1 UNK         0.3000 
    241 H241       -5.8194  -16.2106  -50.7021 H         1 UNK         0.0600 
    242 H242       -9.6360  -15.6587  -50.4977 H         1 UNK         0.3800 
    243 H243       -8.7397  -16.3933  -51.8026 H         1 UNK         0.3800 
    244 H244       -5.6527  -17.3840  -48.5261 H         1 UNK         0.0800 
    245 H245       -6.4860  -18.7687  -49.1777 H         1 UNK         0.0800 
    246 H246       -3.3670  -16.4770  -49.4613 H         1 UNK         0.0800 
    247 H247       -3.0298  -17.6418  -48.1944 H         1 UNK         0.0800 
@<TRIPOS>BOND
     1    1    2 1    
     2    1  127 1    
     3    1  128 1    
     4    1  129 1    
     5    2    3 2    
     6    2    4 am   BACKBONE|DICT|INTERRES
     7    4    5 1    
     8    4  130 1    
     9    5    6 1    
    10    5   65 1    
    11    5  131 1    
    12    6    7 1    
    13    6  132 1    
    14    6  133 1    
    15    7    8 1    
    16    8    9 1    
    17    8  134 1    
    18    8  135 1    
    19    9   10 ar   
    20    9   14 ar   
    21   10   11 ar   
    22   10  136 1    
    23   11   12 ar   
    24   11  126 1    
    25   12   13 ar   
    26   12  137 1    
    27   13   14 ar   
    28   13   15 1    
    29   14  138 1    
    30   15   16 1    
    31   15  139 1    
    32   15  140 1    
    33   16   17 1    
    34   17   18 1    
    35   17  141 1    
    36   17  142 1    
    37   18   19 1    
    38   18   67 1    
    39   18  143 1    
    40   19   20 am   BACKBONE|DICT|INTERRES
    41   19  144 1    
    42   20   21 2    
    43   20   22 1    
    44   22   23 1    
    45   22   24 1    
    46   22  145 1    
    47   23  146 1    
    48   23  147 1    
    49   23  148 1    
    50   24   25 am   BACKBONE|DICT|INTERRES
    51   24  149 1    
    52   25   26 2    
    53   25   27 1    
    54   27   28 1    
    55   27   29 1    
    56   27  150 1    
    57   28  151 1    
    58   28  152 1    
    59   28  153 1    
    60   29   30 am   BACKBONE|DICT|INTERRES
    61   29  154 1    
    62   30   31 2    
    63   30   32 1    
    64   32   33 1    
    65   32   34 1    
    66   32  155 1    
    67   33  156 1    
    68   33  157 1    
    69   33  158 1    
    70   34   35 am   BACKBONE|DICT|INTERRES
    71   34  159 1    
    72   35   36 2    
    73   35   37 1    
    74   37   38 1    
    75   37   39 1    
    76   37  160 1    
    77   38  161 1    
    78   38  162 1    
    79   38  163 1    
    80   39   40 am   BACKBONE|DICT|INTERRES
    81   39  164 1    
    82   40   41 2    
    83   40   42 1    
    84   42   43 1    
    85   42   44 1    
    86   42  165 1    
    87   43  166 1    
    88   43  167 1    
    89   43  168 1    
    90   44   45 am   BACKBONE|DICT|INTERRES
    91   44  169 1    
    92   45   46 2    
    93   45   47 1    
    94   47   48 1    
    95   47   49 1    
    96   47  170 1    
    97   48  171 1    
    98   48  172 1    
    99   48  173 1    
   100   49   50 am   BACKBONE|DICT|INTERRES
   101   49  174 1    
   102   50   51 2    
   103   50   52 1    
   104   52   53 1    
   105   52   54 1    
   106   52  175 1    
   107   53  176 1    
   108   53  177 1    
   109   53  178 1    
   110   54   55 am   BACKBONE|DICT|INTERRES
   111   54  179 1    
   112   55   56 2    
   113   55   57 1    
   114   57   58 1    
   115   57   59 1    
   116   57  180 1    
   117   58  181 1    
   118   58  182 1    
   119   58  183 1    
   120   59   60 am   BACKBONE|DICT|INTERRES
   121   59  184 1    
   122   60   61 2    
   123   60   62 1    
   124   62   63 1    
   125   62   64 1    
   126   62  185 1    
   127   63  186 1    
   128   63  187 1    
   129   63  188 1    
   130   64   65 am   BACKBONE|DICT|INTERRES
   131   64  189 1    
   132   65   66 2    
   133   67   68 2    
   134   67   69 am   BACKBONE|DICT|INTERRES
   135   69   70 1    
   136   69  190 1    
   137   70   71 1    
   138   70   72 1    
   139   70  191 1    
   140   71  192 1    
   141   71  193 1    
   142   71  194 1    
   143   72   73 2    
   144   72   74 am   BACKBONE|DICT|INTERRES
   145   74   75 1    
   146   74  195 1    
   147   75   76 1    
   148   75   77 1    
   149   75  196 1    
   150   76  197 1    
   151   76  198 1    
   152   76  199 1    
   153   77   78 2    
   154   77   79 am   BACKBONE|DICT|INTERRES
   155   79   80 1    
   156   79  200 1    
   157   80   81 1    
   158   80   82 1    
   159   80  201 1    
   160   81  202 1    
   161   81  203 1    
   162   81  204 1    
   163   82   83 2    
   164   82   84 am   BACKBONE|DICT|INTERRES
   165   84   85 1    
   166   84  205 1    
   167   85   86 1    
   168   85   87 1    
   169   85  206 1    
   170   86  207 1    
   171   86  208 1    
   172   86  209 1    
   173   87   88 2    
   174   87   89 am   BACKBONE|DICT|INTERRES
   175   89   90 1    
   176   89  210 1    
   177   90   91 1    
   178   90   92 1    
   179   90  211 1    
   180   91  212 1    
   181   91  213 1    
   182   91  214 1    
   183   92   93 2    
   184   92   94 am   BACKBONE|DICT|INTERRES
   185   94   95 1    
   186   94  215 1    
   187   95   96 1    
   188   95   97 1    
   189   95  216 1    
   190   96  217 1    
   191   96  218 1    
   192   96  219 1    
   193   97   98 2    
   194   97   99 am   BACKBONE|DICT|INTERRES
   195   99  100 1    
   196   99  220 1    
   197  100  101 1    
   198  100  102 1    
   199  100  221 1    
   200  101  222 1    
   201  101  223 1    
   202  101  224 1    
   203  102  103 2    
   204  102  104 am   BACKBONE|DICT|INTERRES
   205  104  105 1    
   206  104  225 1    
   207  105  106 1    
   208  105  107 1    
   209  105  226 1    
   210  106  227 1    
   211  106  228 1    
   212  106  229 1    
   213  107  108 2    
   214  107  109 am   BACKBONE|DICT|INTERRES
   215  109  110 1    
   216  109  230 1    
   217  110  111 1    
   218  110  112 1    
   219  110  231 1    
   220  111  232 1    
   221  111  233 1    
   222  111  234 1    
   223  112  113 2    
   224  112  114 am   BACKBONE|DICT|INTERRES
   225  114  115 1    
   226  114  235 1    
   227  115  116 1    
   228  115  117 1    
   229  115  236 1    
   230  116  237 1    
   231  116  238 1    
   232  116  239 1    
   233  117  118 2    
   234  117  119 am   BACKBONE|DICT|INTERRES
   235  119  120 1    
   236  119  240 1    
   237  120  121 1    
   238  120  124 1    
   239  120  241 1    
   240  121  122 am   BACKBONE|DICT|INTERRES
   241  121  123 2    
   242  122  242 1    
   243  122  243 1    
   244  124  125 1    
   245  124  244 1    
   246  124  245 1    
   247  125  126 1    
   248  126  246 1    
   249  126  247 1    
@<TRIPOS>SUBSTRUCTURE
     1 UNK         1 GROUP             0       ****    0 ROOT    
