@<TRIPOS>MOLECULE
3R540
247   249    1
SMALL
USER_CHARGES


@<TRIPOS>ATOM
      1 CA          0.6980  -11.8796  -51.3702 C.3       0 UNK        -0.1800 
      2 C           1.1992  -12.2843  -49.9917 C.2       0 UNK         0.5000 
      3 O           1.1128  -11.4968  -49.0490 O.2       0 UNK        -0.5000 
      4 N           1.7070  -13.5175  -49.8616 N.am      1 UNK        -0.5000 
      5 CA          2.2479  -14.0761  -48.6143 C.3       1 UNK         0.1400 
      6 C6          3.1895  -15.2762  -48.8730 C.3       23 UNK        -0.0398 
      7 S7          2.3644  -16.7475  -49.5699 S.3       23 UNK        -0.2404 
      8 C8          3.0155  -16.8102  -51.2666 C.3       23 UNK        -0.0205 
      9 C9          2.8950  -18.2224  -51.8124 C.ar      23 UNK        -0.0193 
     10 C10         1.8564  -18.5797  -52.6765 C.ar      23 UNK        -0.1150 
     11 C11         1.7381  -19.8968  -53.1334 C.ar      23 UNK        -0.0193 
     12 C12         2.6582  -20.8613  -52.7067 C.ar      23 UNK        -0.1150 
     13 C13         3.6989  -20.5121  -51.8407 C.ar      23 UNK        -0.0193 
     14 C14         3.8237  -19.1867  -51.4196 C.ar      23 UNK        -0.1150 
     15 C15         4.6955  -21.5546  -51.3528 C.3       23 UNK        -0.0205 
     16 S16         4.0320  -22.6092  -50.0188 S.3       23 UNK        -0.2404 
     17 C17         3.5110  -21.4099  -48.7403 C.3       23 UNK        -0.0398 
     18 CA          2.0458  -21.6717  -48.3001 C.3       11 UNK         0.1400 
     19 N           1.9871  -22.4598  -47.0654 N.am      11 UNK        -0.5000 
     20 C           0.8898  -23.0801  -46.6142 C.2       10 UNK         0.5000 
     21 O          -0.1856  -23.0788  -47.2090 O.2       10 UNK        -0.5000 
     22 CA          1.0007  -23.7897  -45.2524 C.3       10 UNK         0.1400 
     23 CB          1.4808  -25.2366  -45.4381 C.3       10 UNK        -0.1800 
     24 N           1.8777  -23.1072  -44.2969 N.am      10 UNK        -0.5000 
     25 C           1.6843  -21.8681  -43.8277 C.2       9 UNK         0.5000 
     26 O           0.7669  -21.1294  -44.1929 O.2       9 UNK        -0.5000 
     27 CA          2.6724  -21.3817  -42.7588 C.3       9 UNK         0.1400 
     28 CB          3.2370  -19.9915  -43.0935 C.3       9 UNK        -0.1800 
     29 N           1.9794  -21.3246  -41.4787 N.am      9 UNK        -0.5000 
     30 C           1.8635  -22.3532  -40.6288 C.2       8 UNK         0.5000 
     31 O           2.4114  -23.4441  -40.7927 O.2       8 UNK        -0.5000 
     32 CA          0.9662  -22.1283  -39.3998 C.3       8 UNK         0.1400 
     33 CB          1.6950  -21.2860  -38.3413 C.3       8 UNK        -0.1800 
     34 N          -0.2876  -21.4697  -39.7640 N.am      8 UNK        -0.5000 
     35 C          -1.3291  -22.0840  -40.3455 C.2       7 UNK         0.5000 
     36 O          -1.3735  -23.2919  -40.5785 O.2       7 UNK        -0.5000 
     37 CA         -2.4996  -21.1853  -40.7668 C.3       7 UNK         0.1400 
     38 CB         -3.3609  -20.7846  -39.5549 C.3       7 UNK        -0.1800 
     39 N          -1.9627  -20.0116  -41.4432 N.am      7 UNK        -0.5000 
     40 C          -2.6179  -19.1397  -42.2083 C.2       6 UNK         0.5000 
     41 O          -3.8348  -19.1726  -42.3962 O.2       6 UNK        -0.5000 
     42 CA         -1.7406  -18.0673  -42.8909 C.3       6 UNK         0.1400 
     43 CB         -2.5568  -17.0944  -43.7597 C.3       6 UNK        -0.1800 
     44 N          -0.9160  -17.2810  -41.9691 N.am      6 UNK        -0.5000 
     45 C           0.1291  -17.6909  -41.2398 C.2       5 UNK         0.5000 
     46 O           0.5345  -18.8560  -41.2189 O.2       5 UNK        -0.5000 
     47 CA          0.8465  -16.6044  -40.4110 C.3       5 UNK         0.1400 
     48 CB          1.8656  -17.2012  -39.4239 C.3       5 UNK        -0.1800 
     49 N           1.5339  -15.6319  -41.2637 N.am      5 UNK        -0.5000 
     50 C           0.9441  -14.6781  -41.9968 C.2       4 UNK         0.5000 
     51 O          -0.2764  -14.4972  -41.9978 O.2       4 UNK        -0.5000 
     52 CA          1.8757  -13.7948  -42.8589 C.3       4 UNK         0.1400 
     53 CB          2.9974  -14.6124  -43.5287 C.3       4 UNK        -0.1800 
     54 N           1.1374  -13.0745  -43.8977 N.am      4 UNK        -0.5000 
     55 C           0.4194  -11.9574  -43.7039 C.2       3 UNK         0.5000 
     56 O           0.3913  -11.3468  -42.6338 O.2       3 UNK        -0.5000 
     57 CA         -0.3976  -11.4100  -44.8964 C.3       3 UNK         0.1400 
     58 CB          0.2811  -10.1640  -45.4869 C.3       3 UNK        -0.1800 
     59 N          -0.5979  -12.3813  -45.9721 N.am      3 UNK        -0.5000 
     60 C          -1.3719  -13.4737  -45.8997 C.2       2 UNK         0.5000 
     61 O          -2.1165  -13.7160  -44.9511 O.2       2 UNK        -0.5000 
     62 CA         -1.2958  -14.4718  -47.0768 C.3       2 UNK         0.1400 
     63 CB         -2.5489  -14.3466  -47.9542 C.3       2 UNK        -0.1800 
     64 N          -0.1169  -14.3162  -47.9354 N.am      2 UNK        -0.5000 
     65 C           1.1669  -14.3920  -47.5533 C.2       1 UNK         0.5000 
     66 O           1.5111  -14.6487  -46.4008 O.2       1 UNK        -0.5000 
     67 C           1.2175  -20.3734  -48.1877 C.2       11 UNK         0.5000 
     68 O           0.4911  -20.0394  -49.1222 O.2       11 UNK        -0.5000 
     69 N           1.2789  -19.7010  -47.0284 N.am      12 UNK        -0.5000 
     70 CA          0.4554  -18.5264  -46.7310 C.3       12 UNK         0.1400 
     71 CB          0.9962  -17.8109  -45.4854 C.3       12 UNK        -0.1800 
     72 C          -1.0299  -18.8924  -46.5669 C.2       12 UNK         0.5000 
     73 O          -1.8924  -18.1558  -47.0437 O.2       12 UNK        -0.5000 
     74 N          -1.2993  -20.0435  -45.9334 N.am      13 UNK        -0.5000 
     75 CA         -2.6372  -20.6191  -45.7861 C.3       13 UNK         0.1400 
     76 CB         -2.5742  -21.8311  -44.8441 C.3       13 UNK        -0.1800 
     77 C          -3.2726  -21.0073  -47.1352 C.2       13 UNK         0.5000 
     78 O          -4.4811  -20.8486  -47.2985 O.2       13 UNK        -0.5000 
     79 N          -2.4512  -21.4908  -48.0775 N.am      14 UNK        -0.5000 
     80 CA         -2.8505  -21.7828  -49.4519 C.3       14 UNK         0.1400 
     81 CB         -1.7945  -22.6714  -50.1247 C.3       14 UNK        -0.1800 
     82 C          -3.0944  -20.5058  -50.2741 C.2       14 UNK         0.5000 
     83 O          -4.0648  -20.4506  -51.0298 O.2       14 UNK        -0.5000 
     84 N          -2.2245  -19.4990  -50.1073 N.am      15 UNK        -0.5000 
     85 CA         -2.3334  -18.1975  -50.7668 C.3       15 UNK         0.1400 
     86 CB         -1.0756  -17.3652  -50.4828 C.3       15 UNK        -0.1800 
     87 C          -3.5970  -17.4252  -50.3512 C.2       15 UNK         0.5000 
     88 O          -4.2309  -16.8001  -51.2028 O.2       15 UNK        -0.5000 
     89 N          -3.9535  -17.5037  -49.0611 N.am      16 UNK        -0.5000 
     90 CA         -5.1693  -16.9392  -48.4790 C.3       16 UNK         0.1400 
     91 CB         -5.1669  -17.1822  -46.9616 C.3       16 UNK        -0.1800 
     92 C          -6.4345  -17.5114  -49.1469 C.2       16 UNK         0.5000 
     93 O          -6.7335  -18.6954  -48.9882 O.2       16 UNK        -0.5000 
     94 N          -7.1186  -16.6545  -49.9176 N.am      17 UNK        -0.5000 
     95 CA         -8.2923  -16.9403  -50.7521 C.3       17 UNK         0.1400 
     96 CB         -9.4808  -17.4333  -49.8990 C.3       17 UNK        -0.1800 
     97 C          -8.0097  -17.8574  -51.9653 C.2       17 UNK         0.5000 
     98 O          -8.9643  -18.3276  -52.5855 O.2       17 UNK        -0.5000 
     99 N          -6.7248  -18.0538  -52.3080 N.am      18 UNK        -0.5000 
    100 CA        -6.1990  -18.8107  -53.4506 C.3       18 UNK         0.1400 
    101 CB        -6.4200  -18.0154  -54.7532 C.3       18 UNK        -0.1800 
    102 C         -6.7481  -20.2509  -53.5332 C.2       18 UNK         0.5000 
    103 O         -7.5461  -20.5666  -54.4197 O.2       18 UNK        -0.5000 
    104 N         -6.3231  -21.0944  -52.5859 N.am      19 UNK        -0.5000 
    105 CA        -6.6672  -22.5144  -52.5157 C.3       19 UNK         0.1400 
    106 CB        -6.1979  -23.0702  -51.1622 C.3       19 UNK        -0.1800 
    107 C         -6.0364  -23.3262  -53.6635 C.2       19 UNK         0.5000 
    108 O         -5.0655  -22.8819  -54.2820 O.2       19 UNK        -0.5000 
    109 N         -6.5678  -24.5368  -53.8855 N.am      20 UNK        -0.5000 
    110 CA        -6.1489  -25.4783  -54.9319 C.3       20 UNK         0.1400 
    111 CB        -7.0428  -26.7260  -54.8702 C.3       20 UNK        -0.1800 
    112 C         -4.6607  -25.8807  -54.8801 C.2       20 UNK         0.5000 
    113 O         -4.0810  -26.1850  -55.9230 O.2       20 UNK        -0.5000 
    114 N         -4.0532  -25.8204  -53.6866 N.am      21 UNK        -0.5000 
    115 CA        -2.6199  -26.0188  -53.4545 C.3       21 UNK         0.1400 
    116 CB        -2.3613  -26.0368  -51.9404 C.3       21 UNK        -0.1800 
    117 C         -1.7174  -24.9803  -54.1586 C.2       21 UNK         0.5000 
    118 O         -0.5620  -25.2932  -54.4483 O.2       21 UNK        -0.5000 
    119 N         -2.2617  -23.7915  -54.4512 N.am      22 UNK        -0.5000 
    120 CA        -1.6391  -22.7577  -55.2933 C.3       22 UNK         0.1400 
    121 C         -2.0612  -22.8473  -56.7919 C.2       22 UNK         0.5000 
    122 N         -2.8220  -23.8445  -57.2289 N.am      22 UNK        -0.7600 
    123 O         -1.6668  -22.0039  -57.5927 O.2       22 UNK        -0.5000 
    124 C124       -1.8686  -21.3361  -54.7107 C.3       23 UNK        -0.0398 
    125 S125       -0.8032  -21.0077  -53.2672 S.3       23 UNK        -0.2404 
    126 C126        0.6329  -20.2715  -54.1075 C.3       23 UNK        -0.0205 
    127 H127        0.8270  -12.6794  -52.0997 H         1 UNK         0.0600 
    128 H128        1.2426  -11.0046  -51.7247 H         1 UNK         0.0600 
    129 H129       -0.3616  -11.6278  -51.3249 H         1 UNK         0.0600 
    130 H130        1.7383  -14.1312  -50.6629 H         1 UNK         0.3000 
    131 H131        2.8671  -13.2958  -48.1661 H         1 UNK         0.0600 
    132 H132        4.0046  -14.9655  -49.5273 H         1 UNK         0.0800 
    133 H133        3.6706  -15.5777  -47.9408 H         1 UNK         0.0800 
    134 H134        2.4748  -16.1017  -51.8954 H         1 UNK         0.0800 
    135 H135        4.0641  -16.5095  -51.2814 H         1 UNK         0.0800 
    136 H136        1.1369  -17.8357  -52.9880 H         1 UNK         0.1150 
    137 H137        2.5613  -21.8836  -53.0446 H         1 UNK         0.1150 
    138 H138        4.6257  -18.9079  -50.7503 H         1 UNK         0.1150 
    139 H139        4.9909  -22.1899  -52.1889 H         1 UNK         0.0800 
    140 H140        5.6101  -21.0740  -51.0017 H         1 UNK         0.0800 
    141 H141        3.6449  -20.3952  -49.1092 H         1 UNK         0.0800 
    142 H142        4.1982  -21.4863  -47.8967 H         1 UNK         0.0800 
    143 H143        1.5469  -22.2573  -49.0764 H         1 UNK         0.0600 
    144 H144        2.8326  -22.5218  -46.5182 H         1 UNK         0.3000 
    145 H145        0.0011  -23.8190  -44.8151 H         1 UNK         0.0600 
    146 H146        1.4715  -25.7799  -44.4929 H         1 UNK         0.0600 
    147 H147        0.8320  -25.7777  -46.1283 H         1 UNK         0.0600 
    148 H148        2.4941  -25.2771  -45.8398 H         1 UNK         0.0600 
    149 H149        2.6400  -23.6535  -43.9218 H         1 UNK         0.3000 
    150 H150        3.5128  -22.0767  -42.7003 H         1 UNK         0.0600 
    151 H151        3.6893  -19.9775  -44.0857 H         1 UNK         0.0600 
    152 H152        4.0082  -19.7030  -42.3793 H         1 UNK         0.0600 
    153 H153        2.4664  -19.2225  -43.0694 H         1 UNK         0.0600 
    154 H154        1.4646  -20.4672  -41.2958 H         1 UNK         0.3000 
    155 H155        0.7391  -23.1025  -38.9613 H         1 UNK         0.0600 
    156 H156        2.6209  -21.7704  -38.0288 H         1 UNK         0.0600 
    157 H157        1.9546  -20.2970  -38.7200 H         1 UNK         0.0600 
    158 H158        1.0807  -21.1542  -37.4504 H         1 UNK         0.0600 
    159 H159       -0.3310  -20.4734  -39.6060 H         1 UNK         0.3000 
    160 H160       -3.1166  -21.7431  -41.4743 H         1 UNK         0.0600 
    161 H161       -2.8015  -20.1714  -38.8476 H         1 UNK         0.0600 
    162 H162       -3.7141  -21.6668  -39.0197 H         1 UNK         0.0600 
    163 H163       -4.2414  -20.2203  -39.8618 H         1 UNK         0.0600 
    164 H164       -0.9558  -19.8818  -41.3769 H         1 UNK         0.3000 
    165 H165       -1.0642  -18.6128  -43.5476 H         1 UNK         0.0600 
    166 H166       -1.9035  -16.4247  -44.3184 H         1 UNK         0.0600 
    167 H167       -3.1667  -17.6275  -44.4887 H         1 UNK         0.0600 
    168 H168       -3.2264  -16.4810  -43.1560 H         1 UNK         0.0600 
    169 H169       -1.1146  -16.2853  -41.9443 H         1 UNK         0.3000 
    170 H170        0.0860  -16.0818  -39.8270 H         1 UNK         0.0600 
    171 H171        2.6591  -17.7446  -39.9390 H         1 UNK         0.0600 
    172 H172        2.3304  -16.4233  -38.8179 H         1 UNK         0.0600 
    173 H173        1.3807  -17.8965  -38.7379 H         1 UNK         0.0600 
    174 H174        2.5354  -15.7376  -41.3315 H         1 UNK         0.3000 
    175 H175        2.3412  -13.0651  -42.1935 H         1 UNK         0.0600 
    176 H176        3.5681  -14.0009  -44.2280 H         1 UNK         0.0600 
    177 H177        2.5991  -15.4639  -44.0818 H         1 UNK         0.0600 
    178 H178        3.7058  -14.9973  -42.7948 H         1 UNK         0.0600 
    179 H179        1.1006  -13.5291  -44.8043 H         1 UNK         0.3000 
    180 H180       -1.3778  -11.1185  -44.5135 H         1 UNK         0.0600 
    181 H181        1.2615  -10.4005  -45.9027 H         1 UNK         0.0600 
    182 H182        0.4229   -9.3960  -44.7254 H         1 UNK         0.0600 
    183 H183       -0.3224   -9.7248  -46.2815 H         1 UNK         0.0600 
    184 H184       -0.0375  -12.2510  -46.8032 H         1 UNK         0.3000 
    185 H185       -1.2661  -15.4769  -46.6527 H         1 UNK         0.0600 
    186 H186       -3.4536  -14.5106  -47.3681 H         1 UNK         0.0600 
    187 H187       -2.6256  -13.3571  -48.4065 H         1 UNK         0.0600 
    188 H188       -2.5413  -15.0814  -48.7577 H         1 UNK         0.0600 
    189 H189       -0.2967  -14.0857  -48.9010 H         1 UNK         0.3000 
    190 H190        1.8429  -20.0645  -46.2752 H         1 UNK         0.3000 
    191 H191        0.5277  -17.8327  -47.5698 H         1 UNK         0.0600 
    192 H192        2.0208  -17.4731  -45.6409 H         1 UNK         0.0600 
    193 H193        0.3984  -16.9301  -45.2485 H         1 UNK         0.0600 
    194 H194        0.9844  -18.4587  -44.6114 H         1 UNK         0.0600 
    195 H195       -0.5300  -20.5621  -45.5191 H         1 UNK         0.3000 
    196 H196       -3.2745  -19.8630  -45.3244 H         1 UNK         0.0600 
    197 H197       -3.5773  -22.1726  -44.5868 H         1 UNK         0.0600 
    198 H198       -2.0620  -21.5904  -43.9132 H         1 UNK         0.0600 
    199 H199       -2.0525  -22.6704  -45.3023 H         1 UNK         0.0600 
    200 H200       -1.4863  -21.6852  -47.8323 H         1 UNK         0.3000 
    201 H201       -3.7867  -22.3411  -49.4142 H         1 UNK         0.0600 
    202 H202       -1.6866  -23.6225  -49.6033 H         1 UNK         0.0600 
    203 H203       -2.0726  -22.8897  -51.1562 H         1 UNK         0.0600 
    204 H204       -0.8168  -22.1898  -50.1488 H         1 UNK         0.0600 
    205 H205       -1.4019  -19.6499  -49.5313 H         1 UNK         0.3000 
    206 H206       -2.3876  -18.3766  -51.8426 H         1 UNK         0.0600 
    207 H207       -0.1793  -17.8964  -50.7998 H         1 UNK         0.0600 
    208 H208       -1.1015  -16.4169  -51.0204 H         1 UNK         0.0600 
    209 H209       -0.9693  -17.1391  -49.4218 H         1 UNK         0.0600 
    210 H210       -3.3452  -18.0106  -48.4258 H         1 UNK         0.3000 
    211 H211       -5.1429  -15.8605  -48.6433 H         1 UNK         0.0600 
    212 H212       -5.1364  -18.2458  -46.7237 H         1 UNK         0.0600 
    213 H213       -6.0615  -16.7661  -46.4973 H         1 UNK         0.0600 
    214 H214       -4.3050  -16.7110  -46.4893 H         1 UNK         0.0600 
    215 H215       -6.7575  -15.7145  -50.0070 H         1 UNK         0.3000 
    216 H216       -8.5835  -15.9797  -51.1793 H         1 UNK         0.0600 
    217 H217      -10.3991  -17.4613  -50.4867 H         1 UNK         0.0600 
    218 H218       -9.6611  -16.7715  -49.0519 H         1 UNK         0.0600 
    219 H219       -9.3145  -18.4386  -49.5117 H         1 UNK         0.0600 
    220 H220       -6.0146  -17.6135  -51.7320 H         1 UNK         0.3000 
    221 H221       -5.1216  -18.8937  -53.2970 H         1 UNK         0.0600 
    222 H222       -7.4796  -17.8645  -54.9625 H         1 UNK         0.0600 
    223 H223       -5.9465  -17.0351  -54.6999 H         1 UNK         0.0600 
    224 H224       -5.9881  -18.5389  -55.6070 H         1 UNK         0.0600 
    225 H225       -5.6090  -20.7749  -51.9329 H         1 UNK         0.3000 
    226 H226       -7.7536  -22.6028  -52.5783 H         1 UNK         0.0600 
    227 H227       -6.5416  -22.4498  -50.3339 H         1 UNK         0.0600 
    228 H228       -6.5820  -24.0770  -50.9953 H         1 UNK         0.0600 
    229 H229       -5.1105  -23.1248  -51.1145 H         1 UNK         0.0600 
    230 H230       -7.3489  -24.8313  -53.3171 H         1 UNK         0.3000 
    231 H231       -6.3138  -24.9875  -55.8932 H         1 UNK         0.0600 
    232 H232       -6.9492  -27.2405  -53.9131 H         1 UNK         0.0600 
    233 H233       -6.7763  -27.4376  -55.6529 H         1 UNK         0.0600 
    234 H234       -8.0923  -26.4680  -55.0130 H         1 UNK         0.0600 
    235 H235       -4.6086  -25.5586  -52.8861 H         1 UNK         0.3000 
    236 H236       -2.3514  -26.9982  -53.8558 H         1 UNK         0.0600 
    237 H237       -2.8571  -26.8850  -51.4682 H         1 UNK         0.0600 
    238 H238       -1.2959  -26.1214  -51.7217 H         1 UNK         0.0600 
    239 H239       -2.7267  -25.1295  -51.4610 H         1 UNK         0.0600 
    240 H240       -3.2341  -23.6198  -54.2145 H         1 UNK         0.3000 
    241 H241       -0.5611  -22.9260  -55.3152 H         1 UNK         0.0600 
    242 H242       -3.0672  -23.8778  -58.2056 H         1 UNK         0.3800 
    243 H243       -3.1410  -24.5838  -56.6133 H         1 UNK         0.3800 
    244 H244       -1.6775  -20.5579  -55.4512 H         1 UNK         0.0800 
    245 H245       -2.9104  -21.2073  -54.4133 H         1 UNK         0.0800 
    246 H246        1.0214  -20.9755  -54.8449 H         1 UNK         0.0800 
    247 H247        0.3127  -19.3894  -54.6643 H         1 UNK         0.0800 
@<TRIPOS>BOND
     1    1    2 1    
     2    1  127 1    
     3    1  128 1    
     4    1  129 1    
     5    2    3 2    
     6    2    4 am   BACKBONE|DICT|INTERRES
     7    4    5 1    
     8    4  130 1    
     9    5    6 1    
    10    5   65 1    
    11    5  131 1    
    12    6    7 1    
    13    6  132 1    
    14    6  133 1    
    15    7    8 1    
    16    8    9 1    
    17    8  134 1    
    18    8  135 1    
    19    9   10 ar   
    20    9   14 ar   
    21   10   11 ar   
    22   10  136 1    
    23   11   12 ar   
    24   11  126 1    
    25   12   13 ar   
    26   12  137 1    
    27   13   14 ar   
    28   13   15 1    
    29   14  138 1    
    30   15   16 1    
    31   15  139 1    
    32   15  140 1    
    33   16   17 1    
    34   17   18 1    
    35   17  141 1    
    36   17  142 1    
    37   18   19 1    
    38   18   67 1    
    39   18  143 1    
    40   19   20 am   BACKBONE|DICT|INTERRES
    41   19  144 1    
    42   20   21 2    
    43   20   22 1    
    44   22   23 1    
    45   22   24 1    
    46   22  145 1    
    47   23  146 1    
    48   23  147 1    
    49   23  148 1    
    50   24   25 am   BACKBONE|DICT|INTERRES
    51   24  149 1    
    52   25   26 2    
    53   25   27 1    
    54   27   28 1    
    55   27   29 1    
    56   27  150 1    
    57   28  151 1    
    58   28  152 1    
    59   28  153 1    
    60   29   30 am   BACKBONE|DICT|INTERRES
    61   29  154 1    
    62   30   31 2    
    63   30   32 1    
    64   32   33 1    
    65   32   34 1    
    66   32  155 1    
    67   33  156 1    
    68   33  157 1    
    69   33  158 1    
    70   34   35 am   BACKBONE|DICT|INTERRES
    71   34  159 1    
    72   35   36 2    
    73   35   37 1    
    74   37   38 1    
    75   37   39 1    
    76   37  160 1    
    77   38  161 1    
    78   38  162 1    
    79   38  163 1    
    80   39   40 am   BACKBONE|DICT|INTERRES
    81   39  164 1    
    82   40   41 2    
    83   40   42 1    
    84   42   43 1    
    85   42   44 1    
    86   42  165 1    
    87   43  166 1    
    88   43  167 1    
    89   43  168 1    
    90   44   45 am   BACKBONE|DICT|INTERRES
    91   44  169 1    
    92   45   46 2    
    93   45   47 1    
    94   47   48 1    
    95   47   49 1    
    96   47  170 1    
    97   48  171 1    
    98   48  172 1    
    99   48  173 1    
   100   49   50 am   BACKBONE|DICT|INTERRES
   101   49  174 1    
   102   50   51 2    
   103   50   52 1    
   104   52   53 1    
   105   52   54 1    
   106   52  175 1    
   107   53  176 1    
   108   53  177 1    
   109   53  178 1    
   110   54   55 am   BACKBONE|DICT|INTERRES
   111   54  179 1    
   112   55   56 2    
   113   55   57 1    
   114   57   58 1    
   115   57   59 1    
   116   57  180 1    
   117   58  181 1    
   118   58  182 1    
   119   58  183 1    
   120   59   60 am   BACKBONE|DICT|INTERRES
   121   59  184 1    
   122   60   61 2    
   123   60   62 1    
   124   62   63 1    
   125   62   64 1    
   126   62  185 1    
   127   63  186 1    
   128   63  187 1    
   129   63  188 1    
   130   64   65 am   BACKBONE|DICT|INTERRES
   131   64  189 1    
   132   65   66 2    
   133   67   68 2    
   134   67   69 am   BACKBONE|DICT|INTERRES
   135   69   70 1    
   136   69  190 1    
   137   70   71 1    
   138   70   72 1    
   139   70  191 1    
   140   71  192 1    
   141   71  193 1    
   142   71  194 1    
   143   72   73 2    
   144   72   74 am   BACKBONE|DICT|INTERRES
   145   74   75 1    
   146   74  195 1    
   147   75   76 1    
   148   75   77 1    
   149   75  196 1    
   150   76  197 1    
   151   76  198 1    
   152   76  199 1    
   153   77   78 2    
   154   77   79 am   BACKBONE|DICT|INTERRES
   155   79   80 1    
   156   79  200 1    
   157   80   81 1    
   158   80   82 1    
   159   80  201 1    
   160   81  202 1    
   161   81  203 1    
   162   81  204 1    
   163   82   83 2    
   164   82   84 am   BACKBONE|DICT|INTERRES
   165   84   85 1    
   166   84  205 1    
   167   85   86 1    
   168   85   87 1    
   169   85  206 1    
   170   86  207 1    
   171   86  208 1    
   172   86  209 1    
   173   87   88 2    
   174   87   89 am   BACKBONE|DICT|INTERRES
   175   89   90 1    
   176   89  210 1    
   177   90   91 1    
   178   90   92 1    
   179   90  211 1    
   180   91  212 1    
   181   91  213 1    
   182   91  214 1    
   183   92   93 2    
   184   92   94 am   BACKBONE|DICT|INTERRES
   185   94   95 1    
   186   94  215 1    
   187   95   96 1    
   188   95   97 1    
   189   95  216 1    
   190   96  217 1    
   191   96  218 1    
   192   96  219 1    
   193   97   98 2    
   194   97   99 am   BACKBONE|DICT|INTERRES
   195   99  100 1    
   196   99  220 1    
   197  100  101 1    
   198  100  102 1    
   199  100  221 1    
   200  101  222 1    
   201  101  223 1    
   202  101  224 1    
   203  102  103 2    
   204  102  104 am   BACKBONE|DICT|INTERRES
   205  104  105 1    
   206  104  225 1    
   207  105  106 1    
   208  105  107 1    
   209  105  226 1    
   210  106  227 1    
   211  106  228 1    
   212  106  229 1    
   213  107  108 2    
   214  107  109 am   BACKBONE|DICT|INTERRES
   215  109  110 1    
   216  109  230 1    
   217  110  111 1    
   218  110  112 1    
   219  110  231 1    
   220  111  232 1    
   221  111  233 1    
   222  111  234 1    
   223  112  113 2    
   224  112  114 am   BACKBONE|DICT|INTERRES
   225  114  115 1    
   226  114  235 1    
   227  115  116 1    
   228  115  117 1    
   229  115  236 1    
   230  116  237 1    
   231  116  238 1    
   232  116  239 1    
   233  117  118 2    
   234  117  119 am   BACKBONE|DICT|INTERRES
   235  119  120 1    
   236  119  240 1    
   237  120  121 1    
   238  120  124 1    
   239  120  241 1    
   240  121  122 am   BACKBONE|DICT|INTERRES
   241  121  123 2    
   242  122  242 1    
   243  122  243 1    
   244  124  125 1    
   245  124  244 1    
   246  124  245 1    
   247  125  126 1    
   248  126  246 1    
   249  126  247 1    
@<TRIPOS>SUBSTRUCTURE
     1 UNK         1 GROUP             0       ****    0 ROOT    
