@<TRIPOS>MOLECULE
3R540
247   249    1
SMALL
USER_CHARGES


@<TRIPOS>ATOM
      1 CA         -3.5396  -17.6555  -46.9751 C.3       0 UNK        -0.1800 
      2 C          -3.3589  -16.1468  -47.0846 C.2       0 UNK         0.5000 
      3 O          -4.1674  -15.3869  -46.5529 O.2       0 UNK        -0.5000 
      4 N          -2.2886  -15.7095  -47.7591 N.am      1 UNK        -0.5000 
      5 CA         -1.9463  -14.3098  -48.0445 C.3       1 UNK         0.1400 
      6 C6         -1.0707  -14.1952  -49.3216 C.3       23 UNK        -0.0398 
      7 S7         -2.0020  -14.5156  -50.8605 S.3       23 UNK        -0.2404 
      8 C8         -1.9225  -16.3240  -51.0584 C.3       23 UNK        -0.0205 
      9 C9         -0.5025  -16.8509  -51.1999 C.ar      23 UNK        -0.0193 
     10 C10         0.1847  -16.6917  -52.4049 C.ar      23 UNK        -0.1150 
     11 C11         1.4837  -17.1868  -52.5537 C.ar      23 UNK        -0.0193 
     12 C12         2.0969  -17.8381  -51.4788 C.ar      23 UNK        -0.1150 
     13 C13         1.4260  -17.9918  -50.2624 C.ar      23 UNK        -0.0193 
     14 C14         0.1213  -17.5063  -50.1341 C.ar      23 UNK        -0.1150 
     15 C15         2.1336  -18.6327  -49.0759 C.3       23 UNK        -0.0205 
     16 S16         1.9991  -20.4475  -49.0618 S.3       23 UNK        -0.2404 
     17 C17         0.2351  -20.7101  -48.6831 C.3       23 UNK        -0.0398 
     18 CA          0.0133  -21.8942  -47.7122 C.3       11 UNK         0.1400 
     19 N           0.5445  -21.6204  -46.3703 N.am      11 UNK        -0.5000 
     20 C           0.8197  -22.5671  -45.4639 C.2       10 UNK         0.5000 
     21 O           0.6181  -23.7673  -45.6476 O.2       10 UNK        -0.5000 
     22 CA          1.3620  -22.0806  -44.1109 C.3       10 UNK         0.1400 
     23 CB          2.7020  -21.3429  -44.2716 C.3       10 UNK        -0.1800 
     24 N           0.4182  -21.2314  -43.3798 N.am      10 UNK        -0.5000 
     25 C          -0.7729  -21.6296  -42.9126 C.2       9 UNK         0.5000 
     26 O          -1.3010  -22.6966  -43.2172 O.2       9 UNK        -0.5000 
     27 CA         -1.4948  -20.6940  -41.9334 C.3       9 UNK         0.1400 
     28 CB         -0.7436  -20.6303  -40.5936 C.3       9 UNK        -0.1800 
     29 N          -1.6238  -19.3424  -42.4684 N.am      9 UNK        -0.5000 
     30 C          -2.7858  -18.7149  -42.6843 C.2       8 UNK         0.5000 
     31 O          -3.8884  -19.2448  -42.5352 O.2       8 UNK        -0.5000 
     32 CA         -2.6906  -17.2406  -43.1306 C.3       8 UNK         0.1400 
     33 CB         -4.0516  -16.5141  -43.1293 C.3       8 UNK        -0.1800 
     34 N          -1.6962  -16.4638  -42.3803 N.am      8 UNK        -0.5000 
     35 C          -1.6662  -16.2424  -41.0561 C.2       7 UNK         0.5000 
     36 O          -2.4720  -16.7156  -40.2533 O.2       7 UNK        -0.5000 
     37 CA         -0.5420  -15.3056  -40.5712 C.3       7 UNK         0.1400 
     38 CB         -0.4877  -15.1299  -39.0382 C.3       7 UNK        -0.1800 
     39 N           0.7575  -15.6865  -41.1336 N.am      7 UNK        -0.5000 
     40 C           1.5009  -16.7586  -40.8266 C.2       6 UNK         0.5000 
     41 O           1.2269  -17.5620  -39.9342 O.2       6 UNK        -0.5000 
     42 CA          2.7567  -16.9630  -41.7020 C.3       6 UNK         0.1400 
     43 CB          3.4906  -18.2880  -41.4030 C.3       6 UNK        -0.1800 
     44 N           2.4689  -16.8489  -43.1376 N.am      6 UNK        -0.5000 
     45 C           1.6078  -17.6044  -43.8366 C.2       5 UNK         0.5000 
     46 O           0.9182  -18.4865  -43.3269 O.2       5 UNK        -0.5000 
     47 CA          1.4757  -17.3395  -45.3475 C.3       5 UNK         0.1400 
     48 CB          0.0276  -17.5114  -45.8353 C.3       5 UNK        -0.1800 
     49 N           1.9127  -15.9925  -45.6913 N.am      5 UNK        -0.5000 
     50 C           3.0189  -15.6716  -46.3727 C.2       4 UNK         0.5000 
     51 O           3.7879  -16.4984  -46.8621 O.2       4 UNK        -0.5000 
     52 CA          3.3323  -14.1679  -46.5081 C.3       4 UNK         0.1400 
     53 CB          2.9926  -13.6726  -47.9224 C.3       4 UNK        -0.1800 
     54 N           2.6311  -13.3441  -45.5153 N.am      4 UNK        -0.5000 
     55 C           2.9110  -13.3472  -44.2024 C.2       3 UNK         0.5000 
     56 O           3.8030  -14.0319  -43.7008 O.2       3 UNK        -0.5000 
     57 CA          2.0125  -12.5008  -43.2805 C.3       3 UNK         0.1400 
     58 CB          2.6058  -11.0966  -43.0957 C.3       3 UNK        -0.1800 
     59 N           0.6261  -12.3788  -43.7365 N.am      3 UNK        -0.5000 
     60 C          -0.2306  -13.3910  -43.9272 C.2       2 UNK         0.5000 
     61 O           0.0687  -14.5756  -43.7586 O.2       2 UNK        -0.5000 
     62 CA         -1.6582  -13.0398  -44.3963 C.3       2 UNK         0.1400 
     63 CB         -1.9409  -11.5234  -44.4760 C.3       2 UNK        -0.1800 
     64 N          -1.9947  -13.6747  -45.6731 N.am      2 UNK        -0.5000 
     65 C          -1.3004  -13.6206  -46.8186 C.2       1 UNK         0.5000 
     66 O          -0.2082  -13.0595  -46.9247 O.2       1 UNK        -0.5000 
     67 C          -1.4693  -22.3309  -47.6874 C.2       11 UNK         0.5000 
     68 O          -1.9569  -22.8521  -48.6900 O.2       11 UNK        -0.5000 
     69 N          -2.1614  -22.1246  -46.5583 N.am      12 UNK        -0.5000 
     70 CA         -3.5037  -22.6476  -46.3174 C.3       12 UNK         0.1400 
     71 CB         -4.1889  -21.8284  -45.2121 C.3       12 UNK        -0.1800 
     72 C          -3.4525  -24.1465  -45.9677 C.2       12 UNK         0.5000 
     73 O          -4.1436  -24.9425  -46.6042 O.2       12 UNK        -0.5000 
     74 N          -2.6106  -24.5092  -44.9880 N.am      13 UNK        -0.5000 
     75 CA         -2.4114  -25.8835  -44.5222 C.3       13 UNK         0.1400 
     76 CB         -1.5816  -25.8743  -43.2299 C.3       13 UNK        -0.1800 
     77 C          -1.7528  -26.7936  -45.5725 C.2       13 UNK         0.5000 
     78 O          -2.0869  -27.9779  -45.6397 O.2       13 UNK        -0.5000 
     79 N          -0.8543  -26.2300  -46.3916 N.am      14 UNK        -0.5000 
     80 CA         -0.1793  -26.8974  -47.5058 C.3       14 UNK         0.1400 
     81 CB          1.0772  -26.0930  -47.8830 C.3       14 UNK        -0.1800 
     82 C          -1.1208  -27.1159  -48.7097 C.2       14 UNK         0.5000 
     83 O          -0.8910  -26.5601  -49.7834 O.2       14 UNK        -0.5000 
     84 N          -2.1810  -27.9080  -48.4974 N.am      15 UNK        -0.5000 
     85 CA         -3.1831  -28.3522  -49.4749 C.3       15 UNK         0.1400 
     86 CB         -2.5483  -29.3590  -50.4567 C.3       15 UNK        -0.1800 
     87 C          -3.9169  -27.2019  -50.2007 C.2       15 UNK         0.5000 
     88 O          -4.3165  -27.3634  -51.3554 O.2       15 UNK        -0.5000 
     89 N          -4.0737  -26.0611  -49.5118 N.am      16 UNK        -0.5000 
     90 CA         -4.6616  -24.8101  -49.9989 C.3       16 UNK         0.1400 
     91 CB         -6.1775  -24.9713  -50.2358 C.3       16 UNK        -0.1800 
     92 C          -3.9202  -24.2045  -51.2113 C.2       16 UNK         0.5000 
     93 O          -4.5526  -23.5712  -52.0592 O.2       16 UNK        -0.5000 
     94 N          -2.5868  -24.3649  -51.2499 N.am      17 UNK        -0.5000 
     95 CA         -1.6721  -23.8007  -52.2520 C.3       17 UNK         0.1400 
     96 CB         -0.2379  -24.2539  -51.9407 C.3       17 UNK        -0.1800 
     97 C          -1.7217  -22.2645  -52.3802 C.2       17 UNK         0.5000 
     98 O          -1.3245  -21.7325  -53.4179 O.2       17 UNK        -0.5000 
     99 N          -2.2334  -21.5830  -51.3454 N.am      18 UNK        -0.5000 
    100 CA        -2.5789  -20.1631  -51.3503 C.3       18 UNK         0.1400 
    101 CB        -3.1936  -19.7884  -49.9913 C.3       18 UNK        -0.1800 
    102 C         -3.5509  -19.7858  -52.4816 C.2       18 UNK         0.5000 
    103 O         -3.3642  -18.7476  -53.1145 O.2       18 UNK        -0.5000 
    104 N         -4.5755  -20.6244  -52.7065 N.am      19 UNK        -0.5000 
    105 CA        -5.5818  -20.5711  -53.7813 C.3       19 UNK         0.1400 
    106 CB        -4.9006  -20.9057  -55.1239 C.3       19 UNK        -0.1800 
    107 C         -6.4012  -19.2612  -53.8949 C.2       19 UNK         0.5000 
    108 O         -7.1736  -19.1169  -54.8431 O.2       19 UNK        -0.5000 
    109 N         -6.1831  -18.3173  -52.9664 N.am      20 UNK        -0.5000 
    110 CA        -6.5436  -16.8957  -53.0194 C.3       20 UNK         0.1400 
    111 CB        -8.0743  -16.7125  -52.9567 C.3       20 UNK        -0.1800 
    112 C         -5.8970  -16.1443  -54.2105 C.2       20 UNK         0.5000 
    113 O         -6.4082  -15.0977  -54.6136 O.2       20 UNK        -0.5000 
    114 N         -4.7992  -16.6857  -54.7631 N.am      21 UNK        -0.5000 
    115 CA        -4.1776  -16.2197  -56.0079 C.3       21 UNK         0.1400 
    116 CB        -5.0794  -16.5918  -57.2052 C.3       21 UNK        -0.1800 
    117 C         -2.7459  -16.7467  -56.2415 C.2       21 UNK         0.5000 
    118 O         -2.1353  -16.3468  -57.2336 O.2       21 UNK        -0.5000 
    119 N         -2.2303  -17.6170  -55.3607 N.am      22 UNK        -0.5000 
    120 CA        -0.9893  -18.3952  -55.5052 C.3       22 UNK         0.1400 
    121 C         -1.1674  -19.5558  -56.5249 C.2       22 UNK         0.5000 
    122 N         -1.2817  -20.7942  -56.0668 N.am      22 UNK        -0.7600 
    123 O         -1.1890  -19.3501  -57.7360 O.2       22 UNK        -0.5000 
    124 C124        0.2620  -17.5225  -55.8105 C.3       23 UNK        -0.0398 
    125 S125        1.7970  -18.2258  -55.1158 S.3       23 UNK        -0.2404 
    126 C126        2.2431  -16.9866  -53.8574 C.3       23 UNK        -0.0205 
    127 H127       -2.6292  -18.1942  -47.2370 H         1 UNK         0.0600 
    128 H128       -4.3361  -17.9835  -47.6427 H         1 UNK         0.0600 
    129 H129       -3.8173  -17.9355  -45.9598 H         1 UNK         0.0600 
    130 H130       -1.6447  -16.3838  -48.1372 H         1 UNK         0.3000 
    131 H131       -2.8726  -13.7630  -48.2344 H         1 UNK         0.0600 
    132 H132       -0.1929  -14.8388  -49.2602 H         1 UNK         0.0800 
    133 H133       -0.6821  -13.1807  -49.4273 H         1 UNK         0.0800 
    134 H134       -2.4892  -16.5882  -51.9512 H         1 UNK         0.0800 
    135 H135       -2.4360  -16.8028  -50.2272 H         1 UNK         0.0800 
    136 H136       -0.2966  -16.1742  -53.2214 H         1 UNK         0.1150 
    137 H137        3.1064  -18.2111  -51.5815 H         1 UNK         0.1150 
    138 H138       -0.4045  -17.6275  -49.2009 H         1 UNK         0.1150 
    139 H139        1.7496  -18.2284  -48.1426 H         1 UNK         0.0800 
    140 H140        3.1909  -18.3640  -49.0976 H         1 UNK         0.0800 
    141 H141       -0.2556  -20.8907  -49.6387 H         1 UNK         0.0800 
    142 H142       -0.2013  -19.8000  -48.2722 H         1 UNK         0.0800 
    143 H143        0.5618  -22.7473  -48.1161 H         1 UNK         0.0600 
    144 H144        0.7377  -20.6576  -46.1430 H         1 UNK         0.3000 
    145 H145        1.5438  -22.9671  -43.4996 H         1 UNK         0.0600 
    146 H146        2.5940  -20.4121  -44.8279 H         1 UNK         0.0600 
    147 H147        3.4264  -21.9608  -44.8037 H         1 UNK         0.0600 
    148 H148        3.1347  -21.1005  -43.3008 H         1 UNK         0.0600 
    149 H149        0.7372  -20.2927  -43.1543 H         1 UNK         0.3000 
    150 H150       -2.4775  -21.1293  -41.7407 H         1 UNK         0.0600 
    151 H151        0.2466  -20.1856  -40.7043 H         1 UNK         0.0600 
    152 H152       -0.6139  -21.6259  -40.1675 H         1 UNK         0.0600 
    153 H153       -1.2931  -20.0325  -39.8660 H         1 UNK         0.0600 
    154 H154       -0.7534  -18.8509  -42.6573 H         1 UNK         0.3000 
    155 H155       -2.3485  -17.2687  -44.1619 H         1 UNK         0.0600 
    156 H156       -4.4854  -16.4670  -42.1301 H         1 UNK         0.0600 
    157 H157       -4.7696  -17.0228  -43.7736 H         1 UNK         0.0600 
    158 H158       -3.9541  -15.4946  -43.5019 H         1 UNK         0.0600 
    159 H159       -0.9778  -16.0139  -42.9386 H         1 UNK         0.3000 
    160 H160       -0.7712  -14.3248  -40.9895 H         1 UNK         0.0600 
    161 H161       -0.3599  -16.0795  -38.5184 H         1 UNK         0.0600 
    162 H162       -1.4114  -14.6836  -38.6686 H         1 UNK         0.0600 
    163 H163        0.3304  -14.4722  -38.7448 H         1 UNK         0.0600 
    164 H164        1.0328  -15.1560  -41.9502 H         1 UNK         0.3000 
    165 H165        3.4378  -16.1464  -41.4581 H         1 UNK         0.0600 
    166 H166        3.8217  -18.3238  -40.3646 H         1 UNK         0.0600 
    167 H167        2.8509  -19.1551  -41.5704 H         1 UNK         0.0600 
    168 H168        4.3756  -18.3988  -42.0294 H         1 UNK         0.0600 
    169 H169        2.9790  -16.1245  -43.6275 H         1 UNK         0.3000 
    170 H170        2.0989  -18.0871  -45.8403 H         1 UNK         0.0600 
    171 H171       -0.0298  -17.4260  -46.9174 H         1 UNK         0.0600 
    172 H172       -0.3872  -18.4829  -45.5640 H         1 UNK         0.0600 
    173 H173       -0.6144  -16.7369  -45.4190 H         1 UNK         0.0600 
    174 H174        1.3584  -15.2425  -45.2941 H         1 UNK         0.3000 
    175 H175        4.4061  -14.0419  -46.3544 H         1 UNK         0.0600 
    176 H176        3.5839  -14.2016  -48.6709 H         1 UNK         0.0600 
    177 H177        1.9435  -13.8344  -48.1674 H         1 UNK         0.0600 
    178 H178        3.2051  -12.6092  -48.0326 H         1 UNK         0.0600 
    179 H179        1.8377  -12.8102  -45.8493 H         1 UNK         0.3000 
    180 H180        1.9943  -12.9914  -42.3053 H         1 UNK         0.0600 
    181 H181        2.6188  -10.5390  -44.0331 H         1 UNK         0.0600 
    182 H182        3.6326  -11.1504  -42.7311 H         1 UNK         0.0600 
    183 H183        2.0348  -10.5191  -42.3685 H         1 UNK         0.0600 
    184 H184        0.3006  -11.4418  -43.9251 H         1 UNK         0.3000 
    185 H185       -2.3319  -13.4647  -43.6511 H         1 UNK         0.0600 
    186 H186       -1.7765  -11.0364  -43.5139 H         1 UNK         0.0600 
    187 H187       -1.3149  -11.0265  -45.2183 H         1 UNK         0.0600 
    188 H188       -2.9797  -11.3385  -44.7498 H         1 UNK         0.0600 
    189 H189       -2.8685  -14.1921  -45.6986 H         1 UNK         0.3000 
    190 H190       -1.6825  -21.7167  -45.7699 H         1 UNK         0.3000 
    191 H191       -4.0962  -22.5333  -47.2278 H         1 UNK         0.0600 
    192 H192       -4.2609  -20.7765  -45.4893 H         1 UNK         0.0600 
    193 H193       -5.2034  -22.1876  -45.0355 H         1 UNK         0.0600 
    194 H194       -3.6536  -21.8856  -44.2646 H         1 UNK         0.0600 
    195 H195       -2.0817  -23.7957  -44.4915 H         1 UNK         0.3000 
    196 H196       -3.3928  -26.3033  -44.2923 H         1 UNK         0.0600 
    197 H197       -0.5967  -25.4331  -43.3899 H         1 UNK         0.0600 
    198 H198       -1.4325  -26.8864  -42.8516 H         1 UNK         0.0600 
    199 H199       -2.0803  -25.3044  -42.4458 H         1 UNK         0.0600 
    200 H200       -0.5939  -25.2628  -46.2248 H         1 UNK         0.3000 
    201 H201        0.1501  -27.8830  -47.1706 H         1 UNK         0.0600 
    202 H202        0.8225  -25.0924  -48.2319 H         1 UNK         0.0600 
    203 H203        1.7506  -25.9899  -47.0320 H         1 UNK         0.0600 
    204 H204        1.6341  -26.5870  -48.6800 H         1 UNK         0.0600 
    205 H205       -2.3068  -28.2496  -47.5483 H         1 UNK         0.3000 
    206 H206       -3.9477  -28.8829  -48.9060 H         1 UNK         0.0600 
    207 H207       -2.0555  -30.1723  -49.9240 H         1 UNK         0.0600 
    208 H208       -3.3026  -29.8088  -51.1034 H         1 UNK         0.0600 
    209 H209       -1.8076  -28.8815  -51.0993 H         1 UNK         0.0600 
    210 H210       -3.7292  -26.0270  -48.5601 H         1 UNK         0.3000 
    211 H211       -4.5363  -24.0873  -49.1924 H         1 UNK         0.0600 
    212 H212       -6.6723  -25.3772  -49.3535 H         1 UNK         0.0600 
    213 H213       -6.6446  -24.0101  -50.4535 H         1 UNK         0.0600 
    214 H214       -6.3888  -25.6343  -51.0752 H         1 UNK         0.0600 
    215 H215       -2.1496  -24.9100  -50.5157 H         1 UNK         0.3000 
    216 H216       -1.9593  -24.2097  -53.2223 H         1 UNK         0.0600 
    217 H217        0.0637  -23.9642  -50.9330 H         1 UNK         0.0600 
    218 H218        0.4767  -23.8148  -52.6383 H         1 UNK         0.0600 
    219 H219       -0.1416  -25.3362  -52.0239 H         1 UNK         0.0600 
    220 H220       -2.4532  -22.1088  -50.5060 H         1 UNK         0.3000 
    221 H221       -1.6608  -19.5912  -51.4970 H         1 UNK         0.0600 
    222 H222       -4.0143  -20.4552  -49.7234 H         1 UNK         0.0600 
    223 H223       -2.4568  -19.8352  -49.1926 H         1 UNK         0.0600 
    224 H224       -3.5945  -18.7752  -50.0010 H         1 UNK         0.0600 
    225 H225       -4.6050  -21.4769  -52.1573 H         1 UNK         0.3000 
    226 H226       -6.2999  -21.3626  -53.5626 H         1 UNK         0.0600 
    227 H227       -4.3400  -21.8385  -55.0590 H         1 UNK         0.0600 
    228 H228       -5.6341  -21.0251  -55.9220 H         1 UNK         0.0600 
    229 H229       -4.2079  -20.1216  -55.4314 H         1 UNK         0.0600 
    230 H230       -5.5135  -18.5562  -52.2494 H         1 UNK         0.3000 
    231 H231       -6.1218  -16.4452  -52.1199 H         1 UNK         0.0600 
    232 H232       -8.5625  -17.0597  -53.8675 H         1 UNK         0.0600 
    233 H233       -8.3376  -15.6623  -52.8267 H         1 UNK         0.0600 
    234 H234       -8.5028  -17.2589  -52.1165 H         1 UNK         0.0600 
    235 H235       -4.4184  -17.5232  -54.3396 H         1 UNK         0.3000 
    236 H236       -4.0942  -15.1320  -55.9602 H         1 UNK         0.0600 
    237 H237       -5.2344  -17.6699  -57.2633 H         1 UNK         0.0600 
    238 H238       -6.0583  -16.1179  -57.1366 H         1 UNK         0.0600 
    239 H239       -4.6401  -16.2712  -58.1506 H         1 UNK         0.0600 
    240 H240       -2.7739  -17.8931  -54.5481 H         1 UNK         0.3000 
    241 H241       -0.8458  -18.8423  -54.5197 H         1 UNK         0.0600 
    242 H242       -1.3885  -21.5465  -56.7274 H         1 UNK         0.3800 
    243 H243       -1.2638  -21.0122  -55.0708 H         1 UNK         0.3800 
    244 H244        0.1257  -16.5170  -55.4148 H         1 UNK         0.0800 
    245 H245        0.3980  -17.3813  -56.8840 H         1 UNK         0.0800 
    246 H246        2.0759  -15.9790  -54.2409 H         1 UNK         0.0800 
    247 H247        3.3162  -17.0576  -53.6736 H         1 UNK         0.0800 
@<TRIPOS>BOND
     1    1    2 1    
     2    1  127 1    
     3    1  128 1    
     4    1  129 1    
     5    2    3 2    
     6    2    4 am   BACKBONE|DICT|INTERRES
     7    4    5 1    
     8    4  130 1    
     9    5    6 1    
    10    5   65 1    
    11    5  131 1    
    12    6    7 1    
    13    6  132 1    
    14    6  133 1    
    15    7    8 1    
    16    8    9 1    
    17    8  134 1    
    18    8  135 1    
    19    9   10 ar   
    20    9   14 ar   
    21   10   11 ar   
    22   10  136 1    
    23   11   12 ar   
    24   11  126 1    
    25   12   13 ar   
    26   12  137 1    
    27   13   14 ar   
    28   13   15 1    
    29   14  138 1    
    30   15   16 1    
    31   15  139 1    
    32   15  140 1    
    33   16   17 1    
    34   17   18 1    
    35   17  141 1    
    36   17  142 1    
    37   18   19 1    
    38   18   67 1    
    39   18  143 1    
    40   19   20 am   BACKBONE|DICT|INTERRES
    41   19  144 1    
    42   20   21 2    
    43   20   22 1    
    44   22   23 1    
    45   22   24 1    
    46   22  145 1    
    47   23  146 1    
    48   23  147 1    
    49   23  148 1    
    50   24   25 am   BACKBONE|DICT|INTERRES
    51   24  149 1    
    52   25   26 2    
    53   25   27 1    
    54   27   28 1    
    55   27   29 1    
    56   27  150 1    
    57   28  151 1    
    58   28  152 1    
    59   28  153 1    
    60   29   30 am   BACKBONE|DICT|INTERRES
    61   29  154 1    
    62   30   31 2    
    63   30   32 1    
    64   32   33 1    
    65   32   34 1    
    66   32  155 1    
    67   33  156 1    
    68   33  157 1    
    69   33  158 1    
    70   34   35 am   BACKBONE|DICT|INTERRES
    71   34  159 1    
    72   35   36 2    
    73   35   37 1    
    74   37   38 1    
    75   37   39 1    
    76   37  160 1    
    77   38  161 1    
    78   38  162 1    
    79   38  163 1    
    80   39   40 am   BACKBONE|DICT|INTERRES
    81   39  164 1    
    82   40   41 2    
    83   40   42 1    
    84   42   43 1    
    85   42   44 1    
    86   42  165 1    
    87   43  166 1    
    88   43  167 1    
    89   43  168 1    
    90   44   45 am   BACKBONE|DICT|INTERRES
    91   44  169 1    
    92   45   46 2    
    93   45   47 1    
    94   47   48 1    
    95   47   49 1    
    96   47  170 1    
    97   48  171 1    
    98   48  172 1    
    99   48  173 1    
   100   49   50 am   BACKBONE|DICT|INTERRES
   101   49  174 1    
   102   50   51 2    
   103   50   52 1    
   104   52   53 1    
   105   52   54 1    
   106   52  175 1    
   107   53  176 1    
   108   53  177 1    
   109   53  178 1    
   110   54   55 am   BACKBONE|DICT|INTERRES
   111   54  179 1    
   112   55   56 2    
   113   55   57 1    
   114   57   58 1    
   115   57   59 1    
   116   57  180 1    
   117   58  181 1    
   118   58  182 1    
   119   58  183 1    
   120   59   60 am   BACKBONE|DICT|INTERRES
   121   59  184 1    
   122   60   61 2    
   123   60   62 1    
   124   62   63 1    
   125   62   64 1    
   126   62  185 1    
   127   63  186 1    
   128   63  187 1    
   129   63  188 1    
   130   64   65 am   BACKBONE|DICT|INTERRES
   131   64  189 1    
   132   65   66 2    
   133   67   68 2    
   134   67   69 am   BACKBONE|DICT|INTERRES
   135   69   70 1    
   136   69  190 1    
   137   70   71 1    
   138   70   72 1    
   139   70  191 1    
   140   71  192 1    
   141   71  193 1    
   142   71  194 1    
   143   72   73 2    
   144   72   74 am   BACKBONE|DICT|INTERRES
   145   74   75 1    
   146   74  195 1    
   147   75   76 1    
   148   75   77 1    
   149   75  196 1    
   150   76  197 1    
   151   76  198 1    
   152   76  199 1    
   153   77   78 2    
   154   77   79 am   BACKBONE|DICT|INTERRES
   155   79   80 1    
   156   79  200 1    
   157   80   81 1    
   158   80   82 1    
   159   80  201 1    
   160   81  202 1    
   161   81  203 1    
   162   81  204 1    
   163   82   83 2    
   164   82   84 am   BACKBONE|DICT|INTERRES
   165   84   85 1    
   166   84  205 1    
   167   85   86 1    
   168   85   87 1    
   169   85  206 1    
   170   86  207 1    
   171   86  208 1    
   172   86  209 1    
   173   87   88 2    
   174   87   89 am   BACKBONE|DICT|INTERRES
   175   89   90 1    
   176   89  210 1    
   177   90   91 1    
   178   90   92 1    
   179   90  211 1    
   180   91  212 1    
   181   91  213 1    
   182   91  214 1    
   183   92   93 2    
   184   92   94 am   BACKBONE|DICT|INTERRES
   185   94   95 1    
   186   94  215 1    
   187   95   96 1    
   188   95   97 1    
   189   95  216 1    
   190   96  217 1    
   191   96  218 1    
   192   96  219 1    
   193   97   98 2    
   194   97   99 am   BACKBONE|DICT|INTERRES
   195   99  100 1    
   196   99  220 1    
   197  100  101 1    
   198  100  102 1    
   199  100  221 1    
   200  101  222 1    
   201  101  223 1    
   202  101  224 1    
   203  102  103 2    
   204  102  104 am   BACKBONE|DICT|INTERRES
   205  104  105 1    
   206  104  225 1    
   207  105  106 1    
   208  105  107 1    
   209  105  226 1    
   210  106  227 1    
   211  106  228 1    
   212  106  229 1    
   213  107  108 2    
   214  107  109 am   BACKBONE|DICT|INTERRES
   215  109  110 1    
   216  109  230 1    
   217  110  111 1    
   218  110  112 1    
   219  110  231 1    
   220  111  232 1    
   221  111  233 1    
   222  111  234 1    
   223  112  113 2    
   224  112  114 am   BACKBONE|DICT|INTERRES
   225  114  115 1    
   226  114  235 1    
   227  115  116 1    
   228  115  117 1    
   229  115  236 1    
   230  116  237 1    
   231  116  238 1    
   232  116  239 1    
   233  117  118 2    
   234  117  119 am   BACKBONE|DICT|INTERRES
   235  119  120 1    
   236  119  240 1    
   237  120  121 1    
   238  120  124 1    
   239  120  241 1    
   240  121  122 am   BACKBONE|DICT|INTERRES
   241  121  123 2    
   242  122  242 1    
   243  122  243 1    
   244  124  125 1    
   245  124  244 1    
   246  124  245 1    
   247  125  126 1    
   248  126  246 1    
   249  126  247 1    
@<TRIPOS>SUBSTRUCTURE
     1 UNK         1 GROUP             0       ****    0 ROOT    
