@<TRIPOS>MOLECULE
3R540
247   249    1
SMALL
USER_CHARGES


@<TRIPOS>ATOM
      1 CA          1.9987  -16.3778  -52.6095 C.3       0 UNK        -0.1800 
      2 C           2.4937  -15.0462  -52.0614 C.2       0 UNK         0.5000 
      3 O           3.4948  -14.5150  -52.5424 O.2       0 UNK        -0.5000 
      4 N           1.7937  -14.5096  -51.0607 N.am      1 UNK        -0.5000 
      5 CA          2.0769  -13.2580  -50.3626 C.3       1 UNK         0.1400 
      6 C6          3.3776  -13.3081  -49.4991 C.3       23 UNK        -0.0398 
      7 S7          3.2724  -14.0832  -47.8421 S.3       23 UNK        -0.2404 
      8 C8          3.7965  -15.8063  -48.1515 C.3       23 UNK        -0.0205 
      9 C9          2.7135  -16.7530  -48.6722 C.ar      23 UNK        -0.0193 
     10 C10         1.3507  -16.4255  -48.6652 C.ar      23 UNK        -0.1150 
     11 C11         0.3926  -17.3258  -49.1331 C.ar      23 UNK        -0.0193 
     12 C12         0.8021  -18.5674  -49.6159 C.ar      23 UNK        -0.1150 
     13 C13         2.1494  -18.9359  -49.5839 C.ar      23 UNK        -0.0193 
     14 C14         3.0991  -18.0190  -49.1250 C.ar      23 UNK        -0.1150 
     15 C15         2.5693  -20.3368  -50.0099 C.3       23 UNK        -0.0205 
     16 S16         2.4687  -21.5286  -48.6278 S.3       23 UNK        -0.2404 
     17 C17         0.6784  -21.5019  -48.2938 C.3       23 UNK        -0.0398 
     18 CA          0.1564  -22.6863  -47.4524 C.3       11 UNK         0.1400 
     19 N           0.5552  -22.5736  -46.0437 N.am      11 UNK        -0.5000 
     20 C           0.2852  -23.4786  -45.0920 C.2       10 UNK         0.5000 
     21 O          -0.2970  -24.5400  -45.3059 O.2       10 UNK        -0.5000 
     22 CA          0.6736  -23.1180  -43.6471 C.3       10 UNK         0.1400 
     23 CB          2.1846  -23.2751  -43.4204 C.3       10 UNK        -0.1800 
     24 N           0.2450  -21.7706  -43.2706 N.am      10 UNK        -0.5000 
     25 C          -1.0342  -21.3716  -43.2097 C.2       9 UNK         0.5000 
     26 O          -1.9930  -22.1125  -43.4259 O.2       9 UNK        -0.5000 
     27 CA         -1.2882  -19.8840  -42.9055 C.3       9 UNK         0.1400 
     28 CB         -1.1817  -19.6024  -41.3996 C.3       9 UNK        -0.1800 
     29 N          -0.3815  -18.9993  -43.6344 N.am      9 UNK        -0.5000 
     30 C          -0.3144  -18.9080  -44.9700 C.2       8 UNK         0.5000 
     31 O          -1.0492  -19.5230  -45.7419 O.2       8 UNK        -0.5000 
     32 CA          0.8031  -18.0207  -45.5368 C.3       8 UNK         0.1400 
     33 CB          0.4132  -16.5373  -45.4678 C.3       8 UNK        -0.1800 
     34 N           2.0764  -18.2311  -44.8527 N.am      8 UNK        -0.5000 
     35 C           2.7661  -19.3803  -44.8785 C.2       7 UNK         0.5000 
     36 O           2.4039  -20.3855  -45.4867 O.2       7 UNK        -0.5000 
     37 CA          4.0482  -19.4257  -44.0305 C.3       7 UNK         0.1400 
     38 CB          5.2118  -18.7535  -44.7753 C.3       7 UNK        -0.1800 
     39 N           3.8668  -18.7863  -42.7265 N.am      7 UNK        -0.5000 
     40 C           3.0378  -19.2328  -41.7711 C.2       6 UNK         0.5000 
     41 O           2.3847  -20.2720  -41.8609 O.2       6 UNK        -0.5000 
     42 CA          2.8692  -18.3313  -40.5342 C.3       6 UNK         0.1400 
     43 CB          3.9732  -18.6106  -39.5035 C.3       6 UNK        -0.1800 
     44 N           2.8642  -16.9044  -40.8732 N.am      6 UNK        -0.5000 
     45 C           1.9215  -16.3120  -41.6172 C.2       5 UNK         0.5000 
     46 O           0.9436  -16.9044  -42.0811 O.2       5 UNK        -0.5000 
     47 CA          2.1315  -14.8273  -41.9370 C.3       5 UNK         0.1400 
     48 CB          3.1006  -14.6539  -43.1211 C.3       5 UNK        -0.1800 
     49 N           0.8426  -14.2256  -42.2626 N.am      5 UNK        -0.5000 
     50 C           0.5301  -12.9360  -42.1002 C.2       4 UNK         0.5000 
     51 O           1.3269  -12.0909  -41.6874 O.2       4 UNK        -0.5000 
     52 CA         -0.9042  -12.5310  -42.4810 C.3       4 UNK         0.1400 
     53 CB         -1.1391  -11.0072  -42.4316 C.3       4 UNK        -0.1800 
     54 N          -1.2250  -13.0394  -43.8121 N.am      4 UNK        -0.5000 
     55 C          -2.4518  -13.3024  -44.2729 C.2       3 UNK         0.5000 
     56 O          -3.4701  -13.1972  -43.5868 O.2       3 UNK        -0.5000 
     57 CA         -2.5512  -13.7211  -45.7575 C.3       3 UNK         0.1400 
     58 CB         -4.0004  -13.9743  -46.2108 C.3       3 UNK        -0.1800 
     59 N          -1.9462  -12.7314  -46.6537 N.am      3 UNK        -0.5000 
     60 C          -0.6336  -12.5757  -46.8628 C.2       2 UNK         0.5000 
     61 O           0.2281  -13.2481  -46.2929 O.2       2 UNK        -0.5000 
     62 CA         -0.2135  -11.4510  -47.8292 C.3       2 UNK         0.1400 
     63 CB          0.2113  -10.2030  -47.0404 C.3       2 UNK        -0.1800 
     64 N           0.8890  -11.8666  -48.6981 N.am      2 UNK        -0.5000 
     65 C           0.7884  -12.8292  -49.6239 C.2       1 UNK         0.5000 
     66 O          -0.2832  -13.3726  -49.9081 O.2       1 UNK        -0.5000 
     67 C          -1.3760  -22.7866  -47.6214 C.2       11 UNK         0.5000 
     68 O          -1.8540  -23.5934  -48.4259 O.2       11 UNK        -0.5000 
     69 N          -2.1181  -21.9593  -46.8713 N.am      12 UNK        -0.5000 
     70 CA         -3.5783  -21.9414  -46.8567 C.3       12 UNK         0.1400 
     71 CB         -4.0855  -20.7337  -46.0556 C.3       12 UNK        -0.1800 
     72 C          -4.1702  -23.2563  -46.3226 C.2       12 UNK         0.5000 
     73 O          -5.0520  -23.8273  -46.9648 O.2       12 UNK        -0.5000 
     74 N          -3.6415  -23.7332  -45.1879 N.am      13 UNK        -0.5000 
     75 CA         -4.0259  -24.9976  -44.5612 C.3       13 UNK         0.1400 
     76 CB         -3.3694  -25.0990  -43.1760 C.3       13 UNK        -0.1800 
     77 C          -3.6773  -26.2306  -45.4152 C.2       13 UNK         0.5000 
     78 O          -4.4501  -27.1896  -45.4300 O.2       13 UNK        -0.5000 
     79 N          -2.5272  -26.1862  -46.1022 N.am      14 UNK        -0.5000 
     80 CA         -2.0245  -27.2622  -46.9518 C.3       14 UNK         0.1400 
     81 CB         -0.5661  -26.9818  -47.3491 C.3       14 UNK        -0.1800 
     82 C          -2.8889  -27.5056  -48.1990 C.2       14 UNK         0.5000 
     83 O          -3.3032  -28.6440  -48.4249 O.2       14 UNK        -0.5000 
     84 N          -3.1248  -26.4545  -48.9979 N.am      15 UNK        -0.5000 
     85 CA         -3.7620  -26.5867  -50.3116 C.3       15 UNK         0.1400 
     86 CB         -2.7540  -27.1783  -51.3241 C.3       15 UNK        -0.1800 
     87 C          -4.3765  -25.2724  -50.8214 C.2       15 UNK         0.5000 
     88 O          -4.4371  -25.0770  -52.0361 O.2       15 UNK        -0.5000 
     89 N          -4.7979  -24.3723  -49.9189 N.am      16 UNK        -0.5000 
     90 CA         -5.3789  -23.0562  -50.2343 C.3       16 UNK         0.1400 
     91 CB         -6.7748  -23.2144  -50.8736 C.3       16 UNK        -0.1800 
     92 C          -4.4317  -22.1725  -51.0772 C.2       16 UNK         0.5000 
     93 O          -4.8759  -21.5015  -52.0111 O.2       16 UNK        -0.5000 
     94 N          -3.1293  -22.2335  -50.7562 N.am      17 UNK        -0.5000 
     95 CA         -2.0205  -21.6111  -51.4875 C.3       17 UNK         0.1400 
     96 CB         -2.1282  -20.0719  -51.4442 C.3       17 UNK        -0.1800 
     97 C          -1.8692  -22.1728  -52.9154 C.2       17 UNK         0.5000 
     98 O          -1.6815  -21.4109  -53.8616 O.2       17 UNK        -0.5000 
     99 N          -1.9963  -23.5023  -53.0454 N.am      18 UNK        -0.5000 
    100 CA        -2.0536  -24.2611  -54.3030 C.3       18 UNK         0.1400 
    101 CB        -0.6954  -24.2275  -55.0340 C.3       18 UNK        -0.1800 
    102 C         -3.2375  -23.8086  -55.1853 C.2       18 UNK         0.5000 
    103 O         -3.0824  -23.5969  -56.3890 O.2       18 UNK        -0.5000 
    104 N         -4.3925  -23.6314  -54.5293 N.am      19 UNK        -0.5000 
    105 CA        -5.6655  -23.1186  -55.0408 C.3       19 UNK         0.1400 
    106 CB        -6.2463  -24.0656  -56.1113 C.3       19 UNK        -0.1800 
    107 C         -5.6364  -21.6456  -55.5090 C.2       19 UNK         0.5000 
    108 O         -6.5956  -21.2070  -56.1467 O.2       19 UNK        -0.5000 
    109 N         -4.5748  -20.8906  -55.1837 N.am      20 UNK        -0.5000 
    110 CA        -4.4632  -19.4648  -55.5040 C.3       20 UNK         0.1400 
    111 CB        -2.9997  -19.0108  -55.4061 C.3       20 UNK        -0.1800 
    112 C         -5.3558  -18.5832  -54.6121 C.2       20 UNK         0.5000 
    113 O         -5.8212  -17.5469  -55.0869 O.2       20 UNK        -0.5000 
    114 N         -5.5841  -19.0204  -53.3616 N.am      21 UNK        -0.5000 
    115 CA        -6.4307  -18.4072  -52.3342 C.3       21 UNK         0.1400 
    116 CB        -7.9172  -18.6051  -52.6941 C.3       21 UNK        -0.1800 
    117 C         -6.0750  -16.9302  -52.0592 C.2       21 UNK         0.5000 
    118 O         -6.7851  -16.0310  -52.5153 O.2       21 UNK        -0.5000 
    119 N         -4.9643  -16.7178  -51.3378 N.am      22 UNK        -0.5000 
    120 CA        -4.4380  -15.4043  -50.9181 C.3       22 UNK         0.1400 
    121 C         -5.4975  -14.4764  -50.2520 C.2       22 UNK         0.5000 
    122 N         -5.5126  -13.1943  -50.5910 N.am      22 UNK        -0.7600 
    123 O         -6.2667  -14.9008  -49.3924 O.2       22 UNK        -0.5000 
    124 C124       -3.2427  -15.5535  -49.9444 C.3       23 UNK        -0.0398 
    125 S125       -1.8099  -16.4649  -50.6094 S.3       23 UNK        -0.2404 
    126 C126       -1.0851  -16.9893  -49.0268 C.3       23 UNK        -0.0205 
    127 H127        2.7366  -17.1574  -52.4204 H         1 UNK         0.0600 
    128 H128        1.8381  -16.3084  -53.6852 H         1 UNK         0.0600 
    129 H129        1.0603  -16.6821  -52.1446 H         1 UNK         0.0600 
    130 H130        0.9453  -14.9600  -50.7371 H         1 UNK         0.3000 
    131 H131        2.2291  -12.5029  -51.1363 H         1 UNK         0.0600 
    132 H132        3.7211  -12.2861  -49.3352 H         1 UNK         0.0800 
    133 H133        4.1881  -13.7776  -50.0566 H         1 UNK         0.0800 
    134 H134        4.1660  -16.2138  -47.2096 H         1 UNK         0.0800 
    135 H135        4.6440  -15.8043  -48.8382 H         1 UNK         0.0800 
    136 H136        1.0173  -15.4759  -48.2742 H         1 UNK         0.1150 
    137 H137        0.0623  -19.2683  -49.9654 H         1 UNK         0.1150 
    138 H138        4.1423  -18.3011  -49.0998 H         1 UNK         0.1150 
    139 H139        1.9484  -20.6803  -50.8387 H         1 UNK         0.0800 
    140 H140        3.5933  -20.3193  -50.3857 H         1 UNK         0.0800 
    141 H141        0.1859  -21.4800  -49.2632 H         1 UNK         0.0800 
    142 H142        0.4320  -20.5614  -47.7994 H         1 UNK         0.0800 
    143 H143        0.5839  -23.6107  -47.8457 H         1 UNK         0.0600 
    144 H144        1.0825  -21.7406  -45.7921 H         1 UNK         0.3000 
    145 H145        0.1629  -23.8206  -42.9853 H         1 UNK         0.0600 
    146 H146        2.4466  -23.0944  -42.3778 H         1 UNK         0.0600 
    147 H147        2.7620  -22.5840  -44.0337 H         1 UNK         0.0600 
    148 H148        2.5123  -24.2853  -43.6681 H         1 UNK         0.0600 
    149 H149        0.9774  -21.1087  -43.0349 H         1 UNK         0.3000 
    150 H150       -2.3058  -19.6487  -43.2236 H         1 UNK         0.0600 
    151 H151       -1.8791  -20.2238  -40.8366 H         1 UNK         0.0600 
    152 H152       -1.4174  -18.5618  -41.1759 H         1 UNK         0.0600 
    153 H153       -0.1803  -19.8061  -41.0204 H         1 UNK         0.0600 
    154 H154        0.2367  -18.4180  -43.0760 H         1 UNK         0.3000 
    155 H155        0.9461  -18.2979  -46.5814 H         1 UNK         0.0600 
    156 H156       -0.4695  -16.3503  -46.0760 H         1 UNK         0.0600 
    157 H157        1.2097  -15.8966  -45.8458 H         1 UNK         0.0600 
    158 H158        0.1802  -16.2156  -44.4544 H         1 UNK         0.0600 
    159 H159        2.4201  -17.4714  -44.2872 H         1 UNK         0.3000 
    160 H160        4.3049  -20.4741  -43.8644 H         1 UNK         0.0600 
    161 H161        5.0258  -17.6921  -44.9445 H         1 UNK         0.0600 
    162 H162        5.3694  -19.2177  -45.7500 H         1 UNK         0.0600 
    163 H163        6.1435  -18.8468  -44.2172 H         1 UNK         0.0600 
    164 H164        4.3697  -17.9269  -42.5643 H         1 UNK         0.3000 
    165 H165        1.9072  -18.5730  -40.0773 H         1 UNK         0.0600 
    166 H166        3.8160  -18.0343  -38.5916 H         1 UNK         0.0600 
    167 H167        3.9858  -19.6645  -39.2222 H         1 UNK         0.0600 
    168 H168        4.9617  -18.3626  -39.8920 H         1 UNK         0.0600 
    169 H169        3.6377  -16.3550  -40.5268 H         1 UNK         0.3000 
    170 H170        2.5463  -14.3446  -41.0494 H         1 UNK         0.0600 
    171 H171        2.7085  -15.1042  -44.0333 H         1 UNK         0.0600 
    172 H172        3.2848  -13.5995  -43.3277 H         1 UNK         0.0600 
    173 H173        4.0669  -15.1147  -42.9136 H         1 UNK         0.0600 
    174 H174        0.1340  -14.8858  -42.5566 H         1 UNK         0.3000 
    175 H175       -1.5622  -13.0044  -41.7495 H         1 UNK         0.0600 
    176 H176       -0.5112  -10.4831  -43.1531 H         1 UNK         0.0600 
    177 H177       -2.1776  -10.7579  -42.6493 H         1 UNK         0.0600 
    178 H178       -0.9137  -10.6064  -41.4427 H         1 UNK         0.0600 
    179 H179       -0.4430  -13.1497  -44.4536 H         1 UNK         0.3000 
    180 H180       -2.0103  -14.6621  -45.8604 H         1 UNK         0.0600 
    181 H181       -4.6114  -13.0744  -46.1304 H         1 UNK         0.0600 
    182 H182       -4.4718  -14.7481  -45.6036 H         1 UNK         0.0600 
    183 H183       -4.0384  -14.3110  -47.2464 H         1 UNK         0.0600 
    184 H184       -2.5897  -12.1103  -47.1224 H         1 UNK         0.3000 
    185 H185       -1.0649  -11.1893  -48.4611 H         1 UNK         0.0600 
    186 H186        1.0742  -10.4042  -46.4039 H         1 UNK         0.0600 
    187 H187        0.4704   -9.3818  -47.7089 H         1 UNK         0.0600 
    188 H188       -0.5965   -9.8543  -46.3955 H         1 UNK         0.0600 
    189 H189        1.7993  -11.4947  -48.4724 H         1 UNK         0.3000 
    190 H190       -1.6529  -21.2741  -46.2814 H         1 UNK         0.3000 
    191 H191       -3.9097  -21.8133  -47.8864 H         1 UNK         0.0600 
    192 H192       -3.7340  -19.7980  -46.4908 H         1 UNK         0.0600 
    193 H193       -3.7508  -20.7655  -45.0189 H         1 UNK         0.0600 
    194 H194       -5.1755  -20.6996  -46.0484 H         1 UNK         0.0600 
    195 H195       -2.9327  -23.1861  -44.7054 H         1 UNK         0.3000 
    196 H196       -5.1091  -24.9860  -44.4240 H         1 UNK         0.0600 
    197 H197       -3.6803  -24.2764  -42.5318 H         1 UNK         0.0600 
    198 H198       -2.2810  -25.0755  -43.2454 H         1 UNK         0.0600 
    199 H199       -3.6485  -26.0275  -42.6764 H         1 UNK         0.0600 
    200 H200       -1.9097  -25.3906  -45.9686 H         1 UNK         0.3000 
    201 H201       -2.0344  -28.1811  -46.3617 H         1 UNK         0.0600 
    202 H202        0.0825  -26.9630  -46.4733 H         1 UNK         0.0600 
    203 H203       -0.4625  -26.0257  -47.8628 H         1 UNK         0.0600 
    204 H204       -0.1847  -27.7566  -48.0155 H         1 UNK         0.0600 
    205 H205       -2.7484  -25.5446  -48.7525 H         1 UNK         0.3000 
    206 H206       -4.6019  -27.2787  -50.2238 H         1 UNK         0.0600 
    207 H207       -2.3796  -28.1492  -51.0003 H         1 UNK         0.0600 
    208 H208       -1.8955  -26.5202  -51.4620 H         1 UNK         0.0600 
    209 H209       -3.2131  -27.3322  -52.3015 H         1 UNK         0.0600 
    210 H210       -4.7380  -24.5920  -48.9306 H         1 UNK         0.3000 
    211 H211       -5.5246  -22.5353  -49.2895 H         1 UNK         0.0600 
    212 H212       -6.7265  -23.7031  -51.8465 H         1 UNK         0.0600 
    213 H213       -7.2517  -22.2443  -51.0192 H         1 UNK         0.0600 
    214 H214       -7.4326  -23.8049  -50.2361 H         1 UNK         0.0600 
    215 H215       -2.8574  -22.8269  -49.9785 H         1 UNK         0.3000 
    216 H216       -1.1091  -21.8994  -50.9687 H         1 UNK         0.0600 
    217 H217       -1.2438  -19.6047  -51.8788 H         1 UNK         0.0600 
    218 H218       -2.2220  -19.7132  -50.4196 H         1 UNK         0.0600 
    219 H219       -2.9877  -19.7033  -52.0028 H         1 UNK         0.0600 
    220 H220       -2.2056  -24.0353  -52.2141 H         1 UNK         0.3000 
    221 H221       -2.2552  -25.2980  -54.0299 H         1 UNK         0.0600 
    222 H222       -0.4478  -23.2268  -55.3893 H         1 UNK         0.0600 
    223 H223        0.1112  -24.5608  -54.3812 H         1 UNK         0.0600 
    224 H224       -0.7046  -24.8879  -55.9017 H         1 UNK         0.0600 
    225 H225       -4.4029  -23.8905  -53.5459 H         1 UNK         0.3000 
    226 H226       -6.3464  -23.1362  -54.1893 H         1 UNK         0.0600 
    227 H227       -6.2782  -25.0941  -55.7517 H         1 UNK         0.0600 
    228 H228       -7.2671  -23.7845  -56.3725 H         1 UNK         0.0600 
    229 H229       -5.6590  -24.0481  -57.0296 H         1 UNK         0.0600 
    230 H230       -3.8133  -21.3045  -54.6610 H         1 UNK         0.3000 
    231 H231       -4.7833  -19.3242  -56.5387 H         1 UNK         0.0600 
    232 H232       -2.8864  -17.9894  -55.7711 H         1 UNK         0.0600 
    233 H233       -2.3454  -19.6452  -56.0044 H         1 UNK         0.0600 
    234 H234       -2.6396  -19.0270  -54.3774 H         1 UNK         0.0600 
    235 H235       -5.1642  -19.9043  -53.0851 H         1 UNK         0.3000 
    236 H236       -6.2452  -18.9581  -51.4107 H         1 UNK         0.0600 
    237 H237       -8.1785  -18.1128  -53.6315 H         1 UNK         0.0600 
    238 H238       -8.1578  -19.6635  -52.7951 H         1 UNK         0.0600 
    239 H239       -8.5641  -18.1964  -51.9171 H         1 UNK         0.0600 
    240 H240       -4.4270  -17.5150  -51.0320 H         1 UNK         0.3000 
    241 H241       -4.0793  -14.9125  -51.8240 H         1 UNK         0.0600 
    242 H242       -6.1846  -12.5820  -50.1552 H         1 UNK         0.3800 
    243 H243       -4.8866  -12.8225  -51.2887 H         1 UNK         0.3800 
    244 H244       -3.5787  -16.0477  -49.0305 H         1 UNK         0.0800 
    245 H245       -2.8751  -14.5710  -49.6402 H         1 UNK         0.0800 
    246 H246       -1.6335  -17.8512  -48.6430 H         1 UNK         0.0800 
    247 H247       -1.2216  -16.1912  -48.2956 H         1 UNK         0.0800 
@<TRIPOS>BOND
     1    1    2 1    
     2    1  127 1    
     3    1  128 1    
     4    1  129 1    
     5    2    3 2    
     6    2    4 am   BACKBONE|DICT|INTERRES
     7    4    5 1    
     8    4  130 1    
     9    5    6 1    
    10    5   65 1    
    11    5  131 1    
    12    6    7 1    
    13    6  132 1    
    14    6  133 1    
    15    7    8 1    
    16    8    9 1    
    17    8  134 1    
    18    8  135 1    
    19    9   10 ar   
    20    9   14 ar   
    21   10   11 ar   
    22   10  136 1    
    23   11   12 ar   
    24   11  126 1    
    25   12   13 ar   
    26   12  137 1    
    27   13   14 ar   
    28   13   15 1    
    29   14  138 1    
    30   15   16 1    
    31   15  139 1    
    32   15  140 1    
    33   16   17 1    
    34   17   18 1    
    35   17  141 1    
    36   17  142 1    
    37   18   19 1    
    38   18   67 1    
    39   18  143 1    
    40   19   20 am   BACKBONE|DICT|INTERRES
    41   19  144 1    
    42   20   21 2    
    43   20   22 1    
    44   22   23 1    
    45   22   24 1    
    46   22  145 1    
    47   23  146 1    
    48   23  147 1    
    49   23  148 1    
    50   24   25 am   BACKBONE|DICT|INTERRES
    51   24  149 1    
    52   25   26 2    
    53   25   27 1    
    54   27   28 1    
    55   27   29 1    
    56   27  150 1    
    57   28  151 1    
    58   28  152 1    
    59   28  153 1    
    60   29   30 am   BACKBONE|DICT|INTERRES
    61   29  154 1    
    62   30   31 2    
    63   30   32 1    
    64   32   33 1    
    65   32   34 1    
    66   32  155 1    
    67   33  156 1    
    68   33  157 1    
    69   33  158 1    
    70   34   35 am   BACKBONE|DICT|INTERRES
    71   34  159 1    
    72   35   36 2    
    73   35   37 1    
    74   37   38 1    
    75   37   39 1    
    76   37  160 1    
    77   38  161 1    
    78   38  162 1    
    79   38  163 1    
    80   39   40 am   BACKBONE|DICT|INTERRES
    81   39  164 1    
    82   40   41 2    
    83   40   42 1    
    84   42   43 1    
    85   42   44 1    
    86   42  165 1    
    87   43  166 1    
    88   43  167 1    
    89   43  168 1    
    90   44   45 am   BACKBONE|DICT|INTERRES
    91   44  169 1    
    92   45   46 2    
    93   45   47 1    
    94   47   48 1    
    95   47   49 1    
    96   47  170 1    
    97   48  171 1    
    98   48  172 1    
    99   48  173 1    
   100   49   50 am   BACKBONE|DICT|INTERRES
   101   49  174 1    
   102   50   51 2    
   103   50   52 1    
   104   52   53 1    
   105   52   54 1    
   106   52  175 1    
   107   53  176 1    
   108   53  177 1    
   109   53  178 1    
   110   54   55 am   BACKBONE|DICT|INTERRES
   111   54  179 1    
   112   55   56 2    
   113   55   57 1    
   114   57   58 1    
   115   57   59 1    
   116   57  180 1    
   117   58  181 1    
   118   58  182 1    
   119   58  183 1    
   120   59   60 am   BACKBONE|DICT|INTERRES
   121   59  184 1    
   122   60   61 2    
   123   60   62 1    
   124   62   63 1    
   125   62   64 1    
   126   62  185 1    
   127   63  186 1    
   128   63  187 1    
   129   63  188 1    
   130   64   65 am   BACKBONE|DICT|INTERRES
   131   64  189 1    
   132   65   66 2    
   133   67   68 2    
   134   67   69 am   BACKBONE|DICT|INTERRES
   135   69   70 1    
   136   69  190 1    
   137   70   71 1    
   138   70   72 1    
   139   70  191 1    
   140   71  192 1    
   141   71  193 1    
   142   71  194 1    
   143   72   73 2    
   144   72   74 am   BACKBONE|DICT|INTERRES
   145   74   75 1    
   146   74  195 1    
   147   75   76 1    
   148   75   77 1    
   149   75  196 1    
   150   76  197 1    
   151   76  198 1    
   152   76  199 1    
   153   77   78 2    
   154   77   79 am   BACKBONE|DICT|INTERRES
   155   79   80 1    
   156   79  200 1    
   157   80   81 1    
   158   80   82 1    
   159   80  201 1    
   160   81  202 1    
   161   81  203 1    
   162   81  204 1    
   163   82   83 2    
   164   82   84 am   BACKBONE|DICT|INTERRES
   165   84   85 1    
   166   84  205 1    
   167   85   86 1    
   168   85   87 1    
   169   85  206 1    
   170   86  207 1    
   171   86  208 1    
   172   86  209 1    
   173   87   88 2    
   174   87   89 am   BACKBONE|DICT|INTERRES
   175   89   90 1    
   176   89  210 1    
   177   90   91 1    
   178   90   92 1    
   179   90  211 1    
   180   91  212 1    
   181   91  213 1    
   182   91  214 1    
   183   92   93 2    
   184   92   94 am   BACKBONE|DICT|INTERRES
   185   94   95 1    
   186   94  215 1    
   187   95   96 1    
   188   95   97 1    
   189   95  216 1    
   190   96  217 1    
   191   96  218 1    
   192   96  219 1    
   193   97   98 2    
   194   97   99 am   BACKBONE|DICT|INTERRES
   195   99  100 1    
   196   99  220 1    
   197  100  101 1    
   198  100  102 1    
   199  100  221 1    
   200  101  222 1    
   201  101  223 1    
   202  101  224 1    
   203  102  103 2    
   204  102  104 am   BACKBONE|DICT|INTERRES
   205  104  105 1    
   206  104  225 1    
   207  105  106 1    
   208  105  107 1    
   209  105  226 1    
   210  106  227 1    
   211  106  228 1    
   212  106  229 1    
   213  107  108 2    
   214  107  109 am   BACKBONE|DICT|INTERRES
   215  109  110 1    
   216  109  230 1    
   217  110  111 1    
   218  110  112 1    
   219  110  231 1    
   220  111  232 1    
   221  111  233 1    
   222  111  234 1    
   223  112  113 2    
   224  112  114 am   BACKBONE|DICT|INTERRES
   225  114  115 1    
   226  114  235 1    
   227  115  116 1    
   228  115  117 1    
   229  115  236 1    
   230  116  237 1    
   231  116  238 1    
   232  116  239 1    
   233  117  118 2    
   234  117  119 am   BACKBONE|DICT|INTERRES
   235  119  120 1    
   236  119  240 1    
   237  120  121 1    
   238  120  124 1    
   239  120  241 1    
   240  121  122 am   BACKBONE|DICT|INTERRES
   241  121  123 2    
   242  122  242 1    
   243  122  243 1    
   244  124  125 1    
   245  124  244 1    
   246  124  245 1    
   247  125  126 1    
   248  126  246 1    
   249  126  247 1    
@<TRIPOS>SUBSTRUCTURE
     1 UNK         1 GROUP             0       ****    0 ROOT    
