@<TRIPOS>MOLECULE
3R540
247   249    1
SMALL
USER_CHARGES


@<TRIPOS>ATOM
      1 CA         -1.0265  -13.1426  -52.7944 C.3       0 UNK        -0.1800 
      2 C          -0.4103  -12.6076  -51.5103 C.2       0 UNK         0.5000 
      3 O          -0.5758  -11.4305  -51.1930 O.2       0 UNK        -0.5000 
      4 N           0.2845  -13.4705  -50.7601 N.am      1 UNK        -0.5000 
      5 CA          0.9727  -13.1471  -49.5021 C.3       1 UNK         0.1400 
      6 C6          2.2843  -13.9589  -49.3445 C.3       23 UNK        -0.0398 
      7 S7          2.0301  -15.7660  -49.2804 S.3       23 UNK        -0.2404 
      8 C8          2.7858  -16.3011  -50.8471 C.3       23 UNK        -0.0205 
      9 C9          2.6718  -17.8076  -51.0181 C.ar      23 UNK        -0.0193 
     10 C10         1.9299  -18.3561  -52.0691 C.ar      23 UNK        -0.1150 
     11 C11         1.8196  -19.7436  -52.2081 C.ar      23 UNK        -0.0193 
     12 C12         2.4362  -20.5823  -51.2762 C.ar      23 UNK        -0.1150 
     13 C13         3.1669  -20.0435  -50.2136 C.ar      23 UNK        -0.0193 
     14 C14         3.3037  -18.6581  -50.1072 C.ar      23 UNK        -0.1150 
     15 C15         3.7685  -20.9524  -49.1518 C.3       23 UNK        -0.0205 
     16 S16         3.0157  -20.6693  -47.5144 S.3       23 UNK        -0.2404 
     17 C17         1.2553  -21.0303  -47.8399 C.3       23 UNK        -0.0398 
     18 CA          0.7978  -22.3360  -47.1591 C.3       11 UNK         0.1400 
     19 N           0.7814  -22.2277  -45.6983 N.am      11 UNK        -0.5000 
     20 C           0.5641  -23.2490  -44.8588 C.2       10 UNK         0.5000 
     21 O           0.3954  -24.4127  -45.2233 O.2       10 UNK        -0.5000 
     22 CA          0.4561  -22.8980  -43.3657 C.3       10 UNK         0.1400 
     23 CB          1.8436  -22.7151  -42.7322 C.3       10 UNK        -0.1800 
     24 N          -0.3516  -21.6964  -43.1559 N.am      10 UNK        -0.5000 
     25 C          -1.6765  -21.6443  -43.3536 C.2       9 UNK         0.5000 
     26 O          -2.3553  -22.6190  -43.6803 O.2       9 UNK        -0.5000 
     27 CA         -2.3507  -20.2686  -43.1924 C.3       9 UNK         0.1400 
     28 CB         -2.6816  -20.0033  -41.7164 C.3       9 UNK        -0.1800 
     29 N          -1.5443  -19.1649  -43.7194 N.am      9 UNK        -0.5000 
     30 C          -1.2170  -19.0168  -45.0113 C.2       8 UNK         0.5000 
     31 O          -1.5914  -19.7769  -45.9002 O.2       8 UNK        -0.5000 
     32 CA         -0.2776  -17.8583  -45.3807 C.3       8 UNK         0.1400 
     33 CB         -1.0708  -16.5647  -45.5917 C.3       8 UNK        -0.1800 
     34 N           0.7813  -17.6299  -44.4027 N.am      8 UNK        -0.5000 
     35 C           1.7059  -18.5292  -44.0406 C.2       7 UNK         0.5000 
     36 O           1.7385  -19.6872  -44.4567 O.2       7 UNK        -0.5000 
     37 CA          2.7413  -18.0578  -43.0096 C.3       7 UNK         0.1400 
     38 CB          3.8114  -17.1767  -43.6730 C.3       7 UNK        -0.1800 
     39 N           2.0939  -17.3140  -41.9306 N.am      7 UNK        -0.5000 
     40 C           1.4903  -17.8870  -40.8811 C.2       6 UNK         0.5000 
     41 O           1.4803  -19.1014  -40.6759 O.2       6 UNK        -0.5000 
     42 CA          0.7575  -16.9474  -39.9038 C.3       6 UNK         0.1400 
     43 CB          1.7248  -16.4220  -38.8323 C.3       6 UNK        -0.1800 
     44 N           0.1050  -15.8127  -40.5618 N.am      6 UNK        -0.5000 
     45 C          -0.9228  -15.9210  -41.4147 C.2       5 UNK         0.5000 
     46 O          -1.4178  -16.9944  -41.7569 O.2       5 UNK        -0.5000 
     47 CA         -1.4719  -14.6128  -42.0133 C.3       5 UNK         0.1400 
     48 CB         -2.4579  -13.9501  -41.0400 C.3       5 UNK        -0.1800 
     49 N          -0.4642  -13.6273  -42.4179 N.am      5 UNK        -0.5000 
     50 C           0.6205  -13.8457  -43.1744 C.2       4 UNK         0.5000 
     51 O           1.0234  -14.9643  -43.4957 O.2       4 UNK        -0.5000 
     52 CA          1.3369  -12.5862  -43.6938 C.3       4 UNK         0.1400 
     53 CB          2.6513  -12.9121  -44.4265 C.3       4 UNK        -0.1800 
     54 N           0.4466  -11.8677  -44.6055 N.am      4 UNK        -0.5000 
     55 C          -0.4701  -10.9621  -44.2339 C.2       3 UNK         0.5000 
     56 O          -0.6064  -10.5789  -43.0711 O.2       3 UNK        -0.5000 
     57 CA         -1.4187  -10.4184  -45.3233 C.3       3 UNK         0.1400 
     58 CB         -0.8573   -9.1216  -45.9254 C.3       3 UNK        -0.1800 
     59 N          -1.6741  -11.3734  -46.4032 N.am      3 UNK        -0.5000 
     60 C          -2.3144  -12.5427  -46.2624 C.2       2 UNK         0.5000 
     61 O          -2.8606  -12.8977  -45.2175 O.2       2 UNK        -0.5000 
     62 CA         -2.3294  -13.4928  -47.4794 C.3       2 UNK         0.1400 
     63 CB         -3.6916  -13.4525  -48.1873 C.3       2 UNK        -0.1800 
     64 N          -1.2753  -13.2769  -48.4780 N.am      2 UNK        -0.5000 
     65 C           0.0494  -13.2599  -48.2639 C.2       1 UNK         0.5000 
     66 O           0.5482  -13.3198  -47.1403 O.2       1 UNK        -0.5000 
     67 C          -0.5622  -22.7937  -47.7219 C.2       11 UNK         0.5000 
     68 O          -0.5861  -23.6687  -48.5851 O.2       11 UNK        -0.5000 
     69 N          -1.6636  -22.2340  -47.2012 N.am      12 UNK        -0.5000 
     70 CA         -3.0397  -22.6001  -47.5371 C.3       12 UNK         0.1400 
     71 CB         -4.0150  -21.7047  -46.7568 C.3       12 UNK        -0.1800 
     72 C          -3.3409  -24.0807  -47.2601 C.2       12 UNK         0.5000 
     73 O          -3.9044  -24.7549  -48.1227 O.2       12 UNK        -0.5000 
     74 N          -2.9197  -24.5615  -46.0819 N.am      13 UNK        -0.5000 
     75 CA         -3.0319  -25.9587  -45.6688 C.3       13 UNK         0.1400 
     76 CB         -2.6682  -26.0834  -44.1815 C.3       13 UNK        -0.1800 
     77 C          -2.1719  -26.9036  -46.5282 C.2       13 UNK         0.5000 
     78 O          -2.6533  -27.9677  -46.9175 O.2       13 UNK        -0.5000 
     79 N          -0.9316  -26.4915  -46.8277 N.am      14 UNK        -0.5000 
     80 CA          0.0152  -27.2369  -47.6599 C.3       14 UNK         0.1400 
     81 CB          1.4049  -26.5886  -47.5643 C.3       14 UNK        -0.1800 
     82 C          -0.4332  -27.3518  -49.1288 C.2       14 UNK         0.5000 
     83 O          -0.3336  -28.4322  -49.7118 O.2       14 UNK        -0.5000 
     84 N          -0.9314  -26.2443  -49.6943 N.am      15 UNK        -0.5000 
     85 CA         -1.4573  -26.1701  -51.0587 C.3       15 UNK         0.1400 
     86 CB         -1.5210  -24.6946  -51.4897 C.3       15 UNK        -0.1800 
     87 C          -2.8452  -26.8204  -51.2121 C.2       15 UNK         0.5000 
     88 O          -3.2242  -27.1589  -52.3339 O.2       15 UNK        -0.5000 
     89 N          -3.5804  -26.9470  -50.0960 N.am      16 UNK        -0.5000 
     90 CA         -4.9966  -27.3169  -49.9967 C.3       16 UNK         0.1400 
     91 CB         -5.2261  -28.7782  -50.4349 C.3       16 UNK        -0.1800 
     92 C          -5.8875  -26.2989  -50.7405 C.2       16 UNK         0.5000 
     93 O          -6.7694  -26.6791  -51.5136 O.2       16 UNK        -0.5000 
     94 N          -5.5976  -25.0131  -50.5140 N.am      17 UNK        -0.5000 
     95 CA         -6.1872  -23.8694  -51.1993 C.3       17 UNK         0.1400 
     96 CB         -5.5195  -23.6864  -52.5822 C.3       17 UNK        -0.1800 
     97 C          -6.0844  -22.6439  -50.2752 C.2       17 UNK         0.5000 
     98 O          -6.5261  -22.7173  -49.1278 O.2       17 UNK        -0.5000 
     99 N          -5.5036  -21.5487  -50.7730 N.am      18 UNK        -0.5000 
    100 CA        -5.2493  -20.3063  -50.0564 C.3       18 UNK         0.1400 
    101 CB        -6.4964  -19.4071  -50.0989 C.3       18 UNK        -0.1800 
    102 C         -4.0561  -19.6156  -50.7231 C.2       18 UNK         0.5000 
    103 O         -3.8598  -19.7908  -51.9281 O.2       18 UNK        -0.5000 
    104 N         -3.3163  -18.8042  -49.9558 N.am      19 UNK        -0.5000 
    105 CA        -2.1586  -18.0345  -50.4293 C.3       19 UNK         0.1400 
    106 CB        -1.5385  -17.2790  -49.2459 C.3       19 UNK        -0.1800 
    107 C         -2.5009  -17.0570  -51.5707 C.2       19 UNK         0.5000 
    108 O         -1.7252  -16.9122  -52.5153 O.2       19 UNK        -0.5000 
    109 N         -3.6860  -16.4389  -51.4782 N.am      20 UNK        -0.5000 
    110 CA        -4.2417  -15.5522  -52.5000 C.3       20 UNK         0.1400 
    111 CB        -5.3682  -14.7158  -51.8738 C.3       20 UNK        -0.1800 
    112 C         -4.7528  -16.2978  -53.7487 C.2       20 UNK         0.5000 
    113 O         -4.8687  -15.6775  -54.8062 O.2       20 UNK        -0.5000 
    114 N         -5.0588  -17.5963  -53.6131 N.am      21 UNK        -0.5000 
    115 CA        -5.5113  -18.4483  -54.7104 C.3       21 UNK         0.1400 
    116 CB        -6.4083  -19.5753  -54.1719 C.3       21 UNK        -0.1800 
    117 C         -4.3212  -19.0121  -55.5016 C.2       21 UNK         0.5000 
    118 O         -4.3466  -18.9658  -56.7326 O.2       21 UNK        -0.5000 
    119 N         -3.3027  -19.5245  -54.7948 N.am      22 UNK        -0.5000 
    120 CA        -2.0725  -20.0426  -55.4142 C.3       22 UNK         0.1400 
    121 C         -1.0881  -18.9401  -55.9013 C.2       22 UNK         0.5000 
    122 N         -1.0606  -17.7578  -55.2970 N.am      22 UNK        -0.7600 
    123 O         -0.3438  -19.1597  -56.8530 O.2       22 UNK        -0.5000 
    124 C124       -1.3754  -21.1274  -54.5520 C.3       23 UNK        -0.0398 
    125 S125       -0.7191  -20.5422  -52.9521 S.3       23 UNK        -0.2404 
    126 C126        1.0395  -20.3388  -53.3671 C.3       23 UNK        -0.0205 
    127 H127       -2.0839  -12.8829  -52.8392 H         1 UNK         0.0600 
    128 H128       -0.9368  -14.2269  -52.8662 H         1 UNK         0.0600 
    129 H129       -0.5308  -12.7015  -53.6590 H         1 UNK         0.0600 
    130 H130        0.3628  -14.4338  -51.0546 H         1 UNK         0.3000 
    131 H131        1.2699  -12.0970  -49.5388 H         1 UNK         0.0600 
    132 H132        2.8158  -13.6575  -48.4401 H         1 UNK         0.0800 
    133 H133        2.9599  -13.7173  -50.1659 H         1 UNK         0.0800 
    134 H134        2.3083  -15.7798  -51.6780 H         1 UNK         0.0800 
    135 H135        3.8393  -16.0178  -50.8597 H         1 UNK         0.0800 
    136 H136        1.4342  -17.7076  -52.7784 H         1 UNK         0.1150 
    137 H137        2.3292  -21.6541  -51.3690 H         1 UNK         0.1150 
    138 H138        3.8648  -18.2385  -49.2838 H         1 UNK         0.1150 
    139 H139        3.6500  -22.0028  -49.4222 H         1 UNK         0.0800 
    140 H140        4.8416  -20.7678  -49.0875 H         1 UNK         0.0800 
    141 H141        1.0855  -21.0858  -48.9151 H         1 UNK         0.0800 
    142 H142        0.6604  -20.1855  -47.4917 H         1 UNK         0.0800 
    143 H143        1.5180  -23.1160  -47.4150 H         1 UNK         0.0600 
    144 H144        0.9607  -21.3065  -45.3091 H         1 UNK         0.3000 
    145 H145       -0.0362  -23.7323  -42.8613 H         1 UNK         0.0600 
    146 H146        1.7646  -22.4940  -41.6677 H         1 UNK         0.0600 
    147 H147        2.4381  -23.6238  -42.8333 H         1 UNK         0.0600 
    148 H148        2.4036  -21.9058  -43.2005 H         1 UNK         0.0600 
    149 H149        0.1445  -20.8435  -42.9382 H         1 UNK         0.3000 
    150 H150       -3.2883  -20.2932  -43.7512 H         1 UNK         0.0600 
    151 H151       -3.2715  -20.8176  -41.2936 H         1 UNK         0.0600 
    152 H152       -3.2635  -19.0886  -41.6027 H         1 UNK         0.0600 
    153 H153       -1.7778  -19.9016  -41.1139 H         1 UNK         0.0600 
    154 H154       -1.2450  -18.4605  -43.0510 H         1 UNK         0.3000 
    155 H155        0.2062  -18.1134  -46.3252 H         1 UNK         0.0600 
    156 H156       -0.4265  -15.7640  -45.9565 H         1 UNK         0.0600 
    157 H157       -1.8654  -16.7120  -46.3227 H         1 UNK         0.0600 
    158 H158       -1.5377  -16.2276  -44.6682 H         1 UNK         0.0600 
    159 H159        0.8429  -16.6895  -44.0172 H         1 UNK         0.3000 
    160 H160        3.2369  -18.9398  -42.5977 H         1 UNK         0.0600 
    161 H161        3.3833  -16.2708  -44.1042 H         1 UNK         0.0600 
    162 H162        4.3144  -17.7158  -44.4768 H         1 UNK         0.0600 
    163 H163        4.5744  -16.8767  -42.9546 H         1 UNK         0.0600 
    164 H164        1.9806  -16.3184  -42.0730 H         1 UNK         0.3000 
    165 H165       -0.0169  -17.5338  -39.4045 H         1 UNK         0.0600 
    166 H166        1.2000  -15.8277  -38.0841 H         1 UNK         0.0600 
    167 H167        2.2116  -17.2457  -38.3083 H         1 UNK         0.0600 
    168 H168        2.5086  -15.8004  -39.2670 H         1 UNK         0.0600 
    169 H169        0.4610  -14.8920  -40.3507 H         1 UNK         0.3000 
    170 H170       -2.0298  -14.8764  -42.9124 H         1 UNK         0.0600 
    171 H171       -3.2363  -14.6502  -40.7331 H         1 UNK         0.0600 
    172 H172       -1.9574  -13.5977  -40.1373 H         1 UNK         0.0600 
    173 H173       -2.9550  -13.0974  -41.5033 H         1 UNK         0.0600 
    174 H174       -0.7024  -12.6599  -42.2381 H         1 UNK         0.3000 
    175 H175        1.5801  -11.9576  -42.8348 H         1 UNK         0.0600 
    176 H176        3.3498  -13.4241  -43.7636 H         1 UNK         0.0600 
    177 H177        2.4864  -13.5586  -45.2893 H         1 UNK         0.0600 
    178 H178        3.1415  -12.0044  -44.7784 H         1 UNK         0.0600 
    179 H179        0.4443  -12.2039  -45.5650 H         1 UNK         0.3000 
    180 H180       -2.3729  -10.1892  -44.8445 H         1 UNK         0.0600 
    181 H181        0.0892   -9.2936  -46.4395 H         1 UNK         0.0600 
    182 H182       -0.6788   -8.3761  -45.1493 H         1 UNK         0.0600 
    183 H183       -1.5542   -8.6839  -46.6404 H         1 UNK         0.0600 
    184 H184       -1.2579  -11.1674  -47.2991 H         1 UNK         0.3000 
    185 H185       -2.1916  -14.4992  -47.0876 H         1 UNK         0.0600 
    186 H186       -4.5067  -13.6247  -47.4830 H         1 UNK         0.0600 
    187 H187       -3.8678  -12.4881  -48.6653 H         1 UNK         0.0600 
    188 H188       -3.7583  -14.2264  -48.9519 H         1 UNK         0.0600 
    189 H189       -1.5840  -13.1831  -49.4341 H         1 UNK         0.3000 
    190 H190       -1.5570  -21.4651  -46.5421 H         1 UNK         0.3000 
    191 H191       -3.1804  -22.4219  -48.6050 H         1 UNK         0.0600 
    192 H192       -3.9023  -21.8258  -45.6803 H         1 UNK         0.0600 
    193 H193       -5.0500  -21.9456  -47.0002 H         1 UNK         0.0600 
    194 H194       -3.8602  -20.6513  -46.9870 H         1 UNK         0.0600 
    195 H195       -2.4842  -23.9256  -45.4235 H         1 UNK         0.3000 
    196 H196       -4.0751  -26.2587  -45.7885 H         1 UNK         0.0600 
    197 H197       -2.7671  -27.1146  -43.8401 H         1 UNK         0.0600 
    198 H198       -3.3250  -25.4709  -43.5634 H         1 UNK         0.0600 
    199 H199       -1.6421  -25.7696  -43.9883 H         1 UNK         0.0600 
    200 H200       -0.5950  -25.6213  -46.4258 H         1 UNK         0.3000 
    201 H201        0.0877  -28.2489  -47.2561 H         1 UNK         0.0600 
    202 H202        1.7630  -26.5744  -46.5348 H         1 UNK         0.0600 
    203 H203        1.3960  -25.5612  -47.9289 H         1 UNK         0.0600 
    204 H204        2.1358  -27.1412  -48.1559 H         1 UNK         0.0600 
    205 H205       -0.9224  -25.3733  -49.1661 H         1 UNK         0.3000 
    206 H206       -0.7687  -26.6926  -51.7259 H         1 UNK         0.0600 
    207 H207       -2.2007  -24.1210  -50.8577 H         1 UNK         0.0600 
    208 H208       -1.8717  -24.5998  -52.5181 H         1 UNK         0.0600 
    209 H209       -0.5392  -24.2235  -51.4372 H         1 UNK         0.0600 
    210 H210       -3.1750  -26.5934  -49.2390 H         1 UNK         0.3000 
    211 H211       -5.2589  -27.2439  -48.9402 H         1 UNK         0.0600 
    212 H212       -5.0396  -28.9206  -51.4995 H         1 UNK         0.0600 
    213 H213       -6.2546  -29.0842  -50.2409 H         1 UNK         0.0600 
    214 H214       -4.5755  -29.4590  -49.8860 H         1 UNK         0.0600 
    215 H215       -4.9240  -24.7953  -49.7833 H         1 UNK         0.3000 
    216 H216       -7.2525  -24.0552  -51.3491 H         1 UNK         0.0600 
    217 H217       -4.4484  -23.4990  -52.4943 H         1 UNK         0.0600 
    218 H218       -5.9655  -22.8580  -53.1339 H         1 UNK         0.0600 
    219 H219       -5.6444  -24.5769  -53.1985 H         1 UNK         0.0600 
    220 H220       -5.1119  -21.5681  -51.7063 H         1 UNK         0.3000 
    221 H221       -4.9945  -20.5256  -49.0214 H         1 UNK         0.0600 
    222 H222       -7.3477  -19.8911  -49.6199 H         1 UNK         0.0600 
    223 H223       -6.7839  -19.1646  -51.1224 H         1 UNK         0.0600 
    224 H224       -6.3218  -18.4673  -49.5739 H         1 UNK         0.0600 
    225 H225       -3.5458  -18.7079  -48.9775 H         1 UNK         0.3000 
    226 H226       -1.4154  -18.7382  -50.8060 H         1 UNK         0.0600 
    227 H227       -1.1737  -17.9702  -48.4861 H         1 UNK         0.0600 
    228 H228       -0.6901  -16.6792  -49.5727 H         1 UNK         0.0600 
    229 H229       -2.2538  -16.6026  -48.7772 H         1 UNK         0.0600 
    230 H230       -4.2637  -16.6212  -50.6713 H         1 UNK         0.3000 
    231 H231       -3.4563  -14.8711  -52.8306 H         1 UNK         0.0600 
    232 H232       -6.1721  -15.3454  -51.4905 H         1 UNK         0.0600 
    233 H233       -5.8051  -14.0364  -52.6070 H         1 UNK         0.0600 
    234 H234       -4.9968  -14.1044  -51.0519 H         1 UNK         0.0600 
    235 H235       -4.8603  -18.0586  -52.7368 H         1 UNK         0.3000 
    236 H236       -6.1173  -17.8529  -55.3971 H         1 UNK         0.0600 
    237 H237       -7.2659  -19.1725  -53.6332 H         1 UNK         0.0600 
    238 H238       -6.7963  -20.1836  -54.9897 H         1 UNK         0.0600 
    239 H239       -5.8725  -20.2432  -53.4994 H         1 UNK         0.0600 
    240 H240       -3.3509  -19.5492  -53.7801 H         1 UNK         0.3000 
    241 H241       -2.3812  -20.5634  -56.3232 H         1 UNK         0.0600 
    242 H242       -0.4260  -17.0518  -55.6322 H         1 UNK         0.3800 
    243 H243       -1.5804  -17.5913  -54.4430 H         1 UNK         0.3800 
    244 H244       -0.5740  -21.6013  -55.1211 H         1 UNK         0.0800 
    245 H245       -2.0869  -21.9262  -54.3390 H         1 UNK         0.0800 
    246 H246        1.4601  -21.3067  -53.6444 H         1 UNK         0.0800 
    247 H247        1.1439  -19.6966  -54.2421 H         1 UNK         0.0800 
@<TRIPOS>BOND
     1    1    2 1    
     2    1  127 1    
     3    1  128 1    
     4    1  129 1    
     5    2    3 2    
     6    2    4 am   BACKBONE|DICT|INTERRES
     7    4    5 1    
     8    4  130 1    
     9    5    6 1    
    10    5   65 1    
    11    5  131 1    
    12    6    7 1    
    13    6  132 1    
    14    6  133 1    
    15    7    8 1    
    16    8    9 1    
    17    8  134 1    
    18    8  135 1    
    19    9   10 ar   
    20    9   14 ar   
    21   10   11 ar   
    22   10  136 1    
    23   11   12 ar   
    24   11  126 1    
    25   12   13 ar   
    26   12  137 1    
    27   13   14 ar   
    28   13   15 1    
    29   14  138 1    
    30   15   16 1    
    31   15  139 1    
    32   15  140 1    
    33   16   17 1    
    34   17   18 1    
    35   17  141 1    
    36   17  142 1    
    37   18   19 1    
    38   18   67 1    
    39   18  143 1    
    40   19   20 am   BACKBONE|DICT|INTERRES
    41   19  144 1    
    42   20   21 2    
    43   20   22 1    
    44   22   23 1    
    45   22   24 1    
    46   22  145 1    
    47   23  146 1    
    48   23  147 1    
    49   23  148 1    
    50   24   25 am   BACKBONE|DICT|INTERRES
    51   24  149 1    
    52   25   26 2    
    53   25   27 1    
    54   27   28 1    
    55   27   29 1    
    56   27  150 1    
    57   28  151 1    
    58   28  152 1    
    59   28  153 1    
    60   29   30 am   BACKBONE|DICT|INTERRES
    61   29  154 1    
    62   30   31 2    
    63   30   32 1    
    64   32   33 1    
    65   32   34 1    
    66   32  155 1    
    67   33  156 1    
    68   33  157 1    
    69   33  158 1    
    70   34   35 am   BACKBONE|DICT|INTERRES
    71   34  159 1    
    72   35   36 2    
    73   35   37 1    
    74   37   38 1    
    75   37   39 1    
    76   37  160 1    
    77   38  161 1    
    78   38  162 1    
    79   38  163 1    
    80   39   40 am   BACKBONE|DICT|INTERRES
    81   39  164 1    
    82   40   41 2    
    83   40   42 1    
    84   42   43 1    
    85   42   44 1    
    86   42  165 1    
    87   43  166 1    
    88   43  167 1    
    89   43  168 1    
    90   44   45 am   BACKBONE|DICT|INTERRES
    91   44  169 1    
    92   45   46 2    
    93   45   47 1    
    94   47   48 1    
    95   47   49 1    
    96   47  170 1    
    97   48  171 1    
    98   48  172 1    
    99   48  173 1    
   100   49   50 am   BACKBONE|DICT|INTERRES
   101   49  174 1    
   102   50   51 2    
   103   50   52 1    
   104   52   53 1    
   105   52   54 1    
   106   52  175 1    
   107   53  176 1    
   108   53  177 1    
   109   53  178 1    
   110   54   55 am   BACKBONE|DICT|INTERRES
   111   54  179 1    
   112   55   56 2    
   113   55   57 1    
   114   57   58 1    
   115   57   59 1    
   116   57  180 1    
   117   58  181 1    
   118   58  182 1    
   119   58  183 1    
   120   59   60 am   BACKBONE|DICT|INTERRES
   121   59  184 1    
   122   60   61 2    
   123   60   62 1    
   124   62   63 1    
   125   62   64 1    
   126   62  185 1    
   127   63  186 1    
   128   63  187 1    
   129   63  188 1    
   130   64   65 am   BACKBONE|DICT|INTERRES
   131   64  189 1    
   132   65   66 2    
   133   67   68 2    
   134   67   69 am   BACKBONE|DICT|INTERRES
   135   69   70 1    
   136   69  190 1    
   137   70   71 1    
   138   70   72 1    
   139   70  191 1    
   140   71  192 1    
   141   71  193 1    
   142   71  194 1    
   143   72   73 2    
   144   72   74 am   BACKBONE|DICT|INTERRES
   145   74   75 1    
   146   74  195 1    
   147   75   76 1    
   148   75   77 1    
   149   75  196 1    
   150   76  197 1    
   151   76  198 1    
   152   76  199 1    
   153   77   78 2    
   154   77   79 am   BACKBONE|DICT|INTERRES
   155   79   80 1    
   156   79  200 1    
   157   80   81 1    
   158   80   82 1    
   159   80  201 1    
   160   81  202 1    
   161   81  203 1    
   162   81  204 1    
   163   82   83 2    
   164   82   84 am   BACKBONE|DICT|INTERRES
   165   84   85 1    
   166   84  205 1    
   167   85   86 1    
   168   85   87 1    
   169   85  206 1    
   170   86  207 1    
   171   86  208 1    
   172   86  209 1    
   173   87   88 2    
   174   87   89 am   BACKBONE|DICT|INTERRES
   175   89   90 1    
   176   89  210 1    
   177   90   91 1    
   178   90   92 1    
   179   90  211 1    
   180   91  212 1    
   181   91  213 1    
   182   91  214 1    
   183   92   93 2    
   184   92   94 am   BACKBONE|DICT|INTERRES
   185   94   95 1    
   186   94  215 1    
   187   95   96 1    
   188   95   97 1    
   189   95  216 1    
   190   96  217 1    
   191   96  218 1    
   192   96  219 1    
   193   97   98 2    
   194   97   99 am   BACKBONE|DICT|INTERRES
   195   99  100 1    
   196   99  220 1    
   197  100  101 1    
   198  100  102 1    
   199  100  221 1    
   200  101  222 1    
   201  101  223 1    
   202  101  224 1    
   203  102  103 2    
   204  102  104 am   BACKBONE|DICT|INTERRES
   205  104  105 1    
   206  104  225 1    
   207  105  106 1    
   208  105  107 1    
   209  105  226 1    
   210  106  227 1    
   211  106  228 1    
   212  106  229 1    
   213  107  108 2    
   214  107  109 am   BACKBONE|DICT|INTERRES
   215  109  110 1    
   216  109  230 1    
   217  110  111 1    
   218  110  112 1    
   219  110  231 1    
   220  111  232 1    
   221  111  233 1    
   222  111  234 1    
   223  112  113 2    
   224  112  114 am   BACKBONE|DICT|INTERRES
   225  114  115 1    
   226  114  235 1    
   227  115  116 1    
   228  115  117 1    
   229  115  236 1    
   230  116  237 1    
   231  116  238 1    
   232  116  239 1    
   233  117  118 2    
   234  117  119 am   BACKBONE|DICT|INTERRES
   235  119  120 1    
   236  119  240 1    
   237  120  121 1    
   238  120  124 1    
   239  120  241 1    
   240  121  122 am   BACKBONE|DICT|INTERRES
   241  121  123 2    
   242  122  242 1    
   243  122  243 1    
   244  124  125 1    
   245  124  244 1    
   246  124  245 1    
   247  125  126 1    
   248  126  246 1    
   249  126  247 1    
@<TRIPOS>SUBSTRUCTURE
     1 UNK         1 GROUP             0       ****    0 ROOT    
