@<TRIPOS>MOLECULE
3R540
247   249    1
SMALL
USER_CHARGES


@<TRIPOS>ATOM
      1 CA          5.4087  -10.7343  -50.4951 C.3       0 UNK        -0.1800 
      2 C           4.9031  -11.6639  -49.4006 C.2       0 UNK         0.5000 
      3 O           4.0695  -11.2515  -48.5966 O.2       0 UNK        -0.5000 
      4 N           5.4235  -12.9004  -49.3722 N.am      1 UNK        -0.5000 
      5 CA          5.0965  -14.0146  -48.4646 C.3       1 UNK         0.1400 
      6 C6          3.8709  -14.8725  -48.9058 C.3       23 UNK        -0.0398 
      7 S7          2.2715  -14.0035  -49.0602 S.3       23 UNK        -0.2404 
      8 C8          1.0754  -15.3265  -48.6881 C.3       23 UNK        -0.0205 
      9 C9          1.0988  -16.4457  -49.7196 C.ar      23 UNK        -0.0193 
     10 C10         0.5086  -16.2569  -50.9721 C.ar      23 UNK        -0.1150 
     11 C11         0.5207  -17.2790  -51.9259 C.ar      23 UNK        -0.0193 
     12 C12         1.1258  -18.5002  -51.6147 C.ar      23 UNK        -0.1150 
     13 C13         1.7199  -18.7063  -50.3656 C.ar      23 UNK        -0.0193 
     14 C14         1.7041  -17.6711  -49.4233 C.ar      23 UNK        -0.1150 
     15 C15         2.4279  -20.0264  -50.0724 C.3       23 UNK        -0.0205 
     16 S16         2.0070  -20.7455  -48.4512 S.3       23 UNK        -0.2404 
     17 C17         0.2646  -21.2183  -48.6988 C.3       23 UNK        -0.0398 
     18 CA         -0.1706  -22.3196  -47.7027 C.3       11 UNK         0.1400 
     19 N          -0.2508  -21.8421  -46.3184 N.am      11 UNK        -0.5000 
     20 C          -0.4135  -22.6313  -45.2473 C.2       10 UNK         0.5000 
     21 O          -0.5058  -23.8559  -45.3130 O.2       10 UNK        -0.5000 
     22 CA         -0.5433  -21.9441  -43.8758 C.3       10 UNK         0.1400 
     23 CB          0.8244  -21.4777  -43.3557 C.3       10 UNK        -0.1800 
     24 N          -1.4801  -20.8215  -43.8960 N.am      10 UNK        -0.5000 
     25 C          -2.7915  -20.9351  -44.1506 C.2       9 UNK         0.5000 
     26 O          -3.3601  -22.0084  -44.3509 O.2       9 UNK        -0.5000 
     27 CA         -3.5950  -19.6262  -44.2510 C.3       9 UNK         0.1400 
     28 CB         -3.9703  -19.0956  -42.8594 C.3       9 UNK        -0.1800 
     29 N          -2.8820  -18.5908  -44.9975 N.am      9 UNK        -0.5000 
     30 C          -2.5457  -18.6898  -46.2922 C.2       8 UNK         0.5000 
     31 O          -2.8274  -19.6559  -47.0015 O.2       8 UNK        -0.5000 
     32 CA         -1.7071  -17.5353  -46.8658 C.3       8 UNK         0.1400 
     33 CB         -2.5978  -16.3086  -47.1235 C.3       8 UNK        -0.1800 
     34 N          -0.5939  -17.1616  -45.9903 N.am      8 UNK        -0.5000 
     35 C           0.3927  -17.9894  -45.6180 C.2       7 UNK         0.5000 
     36 O           0.4886  -19.1484  -46.0104 O.2       7 UNK        -0.5000 
     37 CA          1.4086  -17.4716  -44.5860 C.3       7 UNK         0.1400 
     38 CB          2.5225  -16.6557  -45.2498 C.3       7 UNK        -0.1800 
     39 N           0.7904  -16.6817  -43.5258 N.am      7 UNK        -0.5000 
     40 C          -0.0972  -17.1560  -42.6423 C.2       6 UNK         0.5000 
     41 O          -0.4856  -18.3242  -42.6188 O.2       6 UNK        -0.5000 
     42 CA         -0.6678  -16.1408  -41.6407 C.3       6 UNK         0.1400 
     43 CB          0.3147  -15.8991  -40.4844 C.3       6 UNK        -0.1800 
     44 N          -0.9765  -14.8697  -42.2935 N.am      6 UNK        -0.5000 
     45 C          -2.0540  -14.6617  -43.0614 C.2       5 UNK         0.5000 
     46 O          -2.9225  -15.5109  -43.2671 O.2       5 UNK        -0.5000 
     47 CA         -2.1664  -13.2776  -43.7292 C.3       5 UNK         0.1400 
     48 CB         -2.7788  -12.2559  -42.7593 C.3       5 UNK        -0.1800 
     49 N          -0.8849  -12.7680  -44.2245 N.am      5 UNK        -0.5000 
     50 C          -0.1950  -13.3282  -45.2270 C.2       4 UNK         0.5000 
     51 O          -0.5578  -14.3401  -45.8200 O.2       4 UNK        -0.5000 
     52 CA          1.1386  -12.6754  -45.6214 C.3       4 UNK         0.1400 
     53 CB          0.8964  -11.4925  -46.5696 C.3       4 UNK        -0.1800 
     54 N           1.9843  -12.2368  -44.5111 N.am      4 UNK        -0.5000 
     55 C           2.3422  -12.9566  -43.4399 C.2       3 UNK         0.5000 
     56 O           1.8362  -14.0357  -43.1259 O.2       3 UNK        -0.5000 
     57 CA          3.5191  -12.3871  -42.6247 C.3       3 UNK         0.1400 
     58 CB          3.6586  -13.0585  -41.2467 C.3       3 UNK        -0.1800 
     59 N           4.7655  -12.5698  -43.3689 N.am      3 UNK        -0.5000 
     60 C           5.1549  -11.8468  -44.4283 C.2       2 UNK         0.5000 
     61 O           4.5659  -10.8328  -44.8094 O.2       2 UNK        -0.5000 
     62 CA          6.3938  -12.3372  -45.2092 C.3       2 UNK         0.1400 
     63 CB          7.1909  -13.4506  -44.4919 C.3       2 UNK        -0.1800 
     64 N           6.0604  -12.7585  -46.5758 N.am      2 UNK        -0.5000 
     65 C           5.1629  -13.6862  -46.9513 C.2       1 UNK         0.5000 
     66 O           4.4598  -14.3104  -46.1580 O.2       1 UNK        -0.5000 
     67 C          -1.4757  -22.9948  -48.1633 C.2       11 UNK         0.5000 
     68 O          -1.4026  -24.0227  -48.8372 O.2       11 UNK        -0.5000 
     69 N          -2.6327  -22.4435  -47.7697 N.am      12 UNK        -0.5000 
     70 CA         -3.9492  -23.0353  -48.0087 C.3       12 UNK         0.1400 
     71 CB         -5.0482  -22.0365  -47.6157 C.3       12 UNK        -0.1800 
     72 C          -4.1360  -24.3752  -47.2729 C.2       12 UNK         0.5000 
     73 O          -4.6068  -25.3373  -47.8793 O.2       12 UNK        -0.5000 
     74 N          -3.7403  -24.4247  -45.9922 N.am      13 UNK        -0.5000 
     75 CA         -3.8076  -25.6188  -45.1457 C.3       13 UNK         0.1400 
     76 CB         -3.5161  -25.2329  -43.6876 C.3       13 UNK        -0.1800 
     77 C          -2.8631  -26.7433  -45.6093 C.2       13 UNK         0.5000 
     78 O          -3.2562  -27.9104  -45.6004 O.2       13 UNK        -0.5000 
     79 N          -1.6453  -26.3721  -46.0258 N.am      14 UNK        -0.5000 
     80 CA         -0.6302  -27.2804  -46.5644 C.3       14 UNK         0.1400 
     81 CB          0.7364  -26.5781  -46.5138 C.3       14 UNK        -0.1800 
     82 C          -0.9243  -27.7524  -48.0021 C.2       14 UNK         0.5000 
     83 O          -0.2864  -28.7006  -48.4611 O.2       14 UNK        -0.5000 
     84 N          -1.8492  -27.0669  -48.6908 N.am      15 UNK        -0.5000 
     85 CA         -2.1989  -27.2108  -50.1077 C.3       15 UNK         0.1400 
     86 CB         -2.7933  -28.6033  -50.4040 C.3       15 UNK        -0.1800 
     87 C          -1.0372  -26.8286  -51.0519 C.2       15 UNK         0.5000 
     88 O          -0.9496  -27.3401  -52.1697 O.2       15 UNK        -0.5000 
     89 N          -0.1776  -25.9102  -50.5897 N.am      16 UNK        -0.5000 
     90 CA          0.8669  -25.2576  -51.3800 C.3       16 UNK         0.1400 
     91 CB          1.9198  -24.6667  -50.4299 C.3       16 UNK        -0.1800 
     92 C           0.2759  -24.1605  -52.2855 C.2       16 UNK         0.5000 
     93 O           0.8330  -23.8749  -53.3457 O.2       16 UNK        -0.5000 
     94 N          -0.8582  -23.5970  -51.8580 N.am      17 UNK        -0.5000 
     95 CA         -1.7419  -22.7387  -52.6311 C.3       17 UNK         0.1400 
     96 CB         -1.6519  -21.3066  -52.0858 C.3       17 UNK        -0.1800 
     97 C          -3.1672  -23.2890  -52.4808 C.2       17 UNK         0.5000 
     98 O          -3.4512  -24.0005  -51.5130 O.2       17 UNK        -0.5000 
     99 N          -4.0470  -22.9480  -53.4281 N.am      18 UNK        -0.5000 
    100 CA        -5.4706  -23.2692  -53.3531 C.3       18 UNK         0.1400 
    101 CB        -6.1023  -23.1239  -54.7461 C.3       18 UNK        -0.1800 
    102 C         -6.1667  -22.3407  -52.3463 C.2       18 UNK         0.5000 
    103 O         -5.9350  -21.1299  -52.3819 O.2       18 UNK        -0.5000 
    104 N         -7.0355  -22.9042  -51.4982 N.am      19 UNK        -0.5000 
    105 CA        -7.7910  -22.1722  -50.4741 C.3       19 UNK         0.1400 
    106 CB        -8.4806  -23.1818  -49.5441 C.3       19 UNK        -0.1800 
    107 C         -8.8146  -21.1722  -51.0510 C.2       19 UNK         0.5000 
    108 O         -9.1710  -20.2081  -50.3739 O.2       19 UNK        -0.5000 
    109 N         -9.2463  -21.4062  -52.2978 N.am      20 UNK        -0.5000 
    110 CA       -10.0786  -20.4948  -53.0849 C.3       20 UNK         0.1400 
    111 CB       -10.7543  -21.2980  -54.2077 C.3       20 UNK        -0.1800 
    112 C         -9.2871  -19.3066  -53.6740 C.2       20 UNK         0.5000 
    113 O         -9.9058  -18.3419  -54.1260 O.2       20 UNK        -0.5000 
    114 N         -7.9510  -19.3998  -53.6756 N.am      21 UNK        -0.5000 
    115 CA        -7.0206  -18.3773  -54.1385 C.3       21 UNK         0.1400 
    116 CB        -6.1080  -18.9905  -55.2214 C.3       21 UNK        -0.1800 
    117 C         -6.2634  -17.8171  -52.9187 C.2       21 UNK         0.5000 
    118 O         -6.9044  -17.3893  -51.9567 O.2       21 UNK        -0.5000 
    119 N         -4.9272  -17.8075  -52.9774 N.am      22 UNK        -0.5000 
    120 CA        -4.0326  -17.2961  -51.9289 C.3       22 UNK         0.1400 
    121 C         -3.7057  -18.2976  -50.7821 C.2       22 UNK         0.5000 
    122 N         -4.2630  -19.5007  -50.7410 N.am      22 UNK        -0.7600 
    123 O         -2.9324  -17.9669  -49.8925 O.2       22 UNK        -0.5000 
    124 C124       -2.7627  -16.6482  -52.5390 C.3       23 UNK        -0.0398 
    125 S125       -1.7223  -17.8024  -53.5009 S.3       23 UNK        -0.2404 
    126 C126       -0.0742  -17.0518  -53.3096 C.3       23 UNK        -0.0205 
    127 H127        5.8646   -9.8480  -50.0538 H         1 UNK         0.0600 
    128 H128        4.5795  -10.4139  -51.1260 H         1 UNK         0.0600 
    129 H129        6.1511  -11.2183  -51.1302 H         1 UNK         0.0600 
    130 H130        6.1175  -13.1296  -50.0701 H         1 UNK         0.3000 
    131 H131        5.9499  -14.6836  -48.5870 H         1 UNK         0.0600 
    132 H132        4.0827  -15.3124  -49.8810 H         1 UNK         0.0800 
    133 H133        3.7492  -15.7230  -48.2335 H         1 UNK         0.0800 
    134 H134        1.2662  -15.7199  -47.6919 H         1 UNK         0.0800 
    135 H135        0.0758  -14.8921  -48.6513 H         1 UNK         0.0800 
    136 H136        0.0519  -15.3057  -51.2061 H         1 UNK         0.1150 
    137 H137        1.1486  -19.2842  -52.3583 H         1 UNK         0.1150 
    138 H138        2.1674  -17.8206  -48.4585 H         1 UNK         0.1150 
    139 H139        2.2170  -20.7630  -50.8494 H         1 UNK         0.0800 
    140 H140        3.5036  -19.8503  -50.1024 H         1 UNK         0.0800 
    141 H141        0.1603  -21.5677  -49.7272 H         1 UNK         0.0800 
    142 H142       -0.3662  -20.3319  -48.6050 H         1 UNK         0.0800 
    143 H143        0.5928  -23.1001  -47.7166 H         1 UNK         0.0600 
    144 H144       -0.1282  -20.8395  -46.1816 H         1 UNK         0.3000 
    145 H145       -0.9333  -22.6830  -43.1727 H         1 UNK         0.0600 
    146 H146        0.7384  -21.0303  -42.3653 H         1 UNK         0.0600 
    147 H147        1.5162  -22.3170  -43.2761 H         1 UNK         0.0600 
    148 H148        1.2800  -20.7411  -44.0165 H         1 UNK         0.0600 
    149 H149       -1.0967  -19.9005  -43.7082 H         1 UNK         0.3000 
    150 H150       -4.5190  -19.8457  -44.7898 H         1 UNK         0.0600 
    151 H151       -4.5900  -18.2016  -42.9325 H         1 UNK         0.0600 
    152 H152       -3.0892  -18.8425  -42.2698 H         1 UNK         0.0600 
    153 H153       -4.5369  -19.8403  -42.2991 H         1 UNK         0.0600 
    154 H154       -2.5946  -17.7704  -44.4814 H         1 UNK         0.3000 
    155 H155       -1.2847  -17.8674  -47.8163 H         1 UNK         0.0600 
    156 H156       -3.4923  -16.5804  -47.6846 H         1 UNK         0.0600 
    157 H157       -2.9260  -15.8447  -46.1926 H         1 UNK         0.0600 
    158 H158       -2.0699  -15.5559  -47.7076 H         1 UNK         0.0600 
    159 H159       -0.5807  -16.1957  -45.6721 H         1 UNK         0.3000 
    160 H160        1.8706  -18.3441  -44.1202 H         1 UNK         0.0600 
    161 H161        3.3305  -16.4520  -44.5469 H         1 UNK         0.0600 
    162 H162        2.1541  -15.6956  -45.6070 H         1 UNK         0.0600 
    163 H163        2.9549  -17.1867  -46.0986 H         1 UNK         0.0600 
    164 H164        1.0776  -15.7081  -43.4538 H         1 UNK         0.3000 
    165 H165       -1.5872  -16.5578  -41.2237 H         1 UNK         0.0600 
    166 H166       -0.1070  -15.2173  -39.7458 H         1 UNK         0.0600 
    167 H167        0.5473  -16.8325  -39.9702 H         1 UNK         0.0600 
    168 H168        1.2564  -15.4736  -40.8335 H         1 UNK         0.0600 
    169 H169       -0.2638  -14.1535  -42.2512 H         1 UNK         0.3000 
    170 H170       -2.8391  -13.3794  -44.5836 H         1 UNK         0.0600 
    171 H171       -2.1362  -12.0843  -41.8949 H         1 UNK         0.0600 
    172 H172       -2.9453  -11.2968  -43.2502 H         1 UNK         0.0600 
    173 H173       -3.7444  -12.6013  -42.3874 H         1 UNK         0.0600 
    174 H174       -0.5079  -11.9461  -43.7760 H         1 UNK         0.3000 
    175 H175        1.7138  -13.4256  -46.1654 H         1 UNK         0.0600 
    176 H176        1.8374  -11.1011  -46.9564 H         1 UNK         0.0600 
    177 H177        0.3712  -10.6766  -46.0718 H         1 UNK         0.0600 
    178 H178        0.2976  -11.7971  -47.4292 H         1 UNK         0.0600 
    179 H179        2.5328  -11.4036  -44.6905 H         1 UNK         0.3000 
    180 H180        3.3424  -11.3211  -42.4665 H         1 UNK         0.0600 
    181 H181        3.8657  -14.1259  -41.3346 H         1 UNK         0.0600 
    182 H182        2.7421  -12.9491  -40.6655 H         1 UNK         0.0600 
    183 H183        4.4656  -12.6075  -40.6691 H         1 UNK         0.0600 
    184 H184        5.2838  -13.4103  -43.1596 H         1 UNK         0.3000 
    185 H185        7.0516  -11.4721  -45.3038 H         1 UNK         0.0600 
    186 H186        6.6164  -14.3723  -44.3918 H         1 UNK         0.0600 
    187 H187        8.1002  -13.6912  -45.0427 H         1 UNK         0.0600 
    188 H188        7.4982  -13.1362  -43.4936 H         1 UNK         0.0600 
    189 H189        6.5586  -12.2774  -47.3107 H         1 UNK         0.3000 
    190 H190       -2.6143  -21.5608  -47.2651 H         1 UNK         0.3000 
    191 H191       -4.0414  -23.2293  -49.0783 H         1 UNK         0.0600 
    192 H192       -4.9926  -21.1304  -48.2185 H         1 UNK         0.0600 
    193 H193       -6.0389  -22.4668  -47.7627 H         1 UNK         0.0600 
    194 H194       -4.9714  -21.7441  -46.5684 H         1 UNK         0.0600 
    195 H195       -3.3978  -23.5764  -45.5499 H         1 UNK         0.3000 
    196 H196       -4.8281  -26.0043  -45.1947 H         1 UNK         0.0600 
    197 H197       -3.5688  -26.1041  -43.0335 H         1 UNK         0.0600 
    198 H198       -4.2412  -24.5064  -43.3205 H         1 UNK         0.0600 
    199 H199       -2.5224  -24.7976  -43.5774 H         1 UNK         0.0600 
    200 H200       -1.3721  -25.3961  -45.9303 H         1 UNK         0.3000 
    201 H201       -0.5845  -28.1670  -45.9287 H         1 UNK         0.0600 
    202 H202        0.9923  -26.2858  -45.4952 H         1 UNK         0.0600 
    203 H203        0.7483  -25.6801  -47.1330 H         1 UNK         0.0600 
    204 H204        1.5304  -27.2346  -46.8718 H         1 UNK         0.0600 
    205 H205       -2.2983  -26.2933  -48.2180 H         1 UNK         0.3000 
    206 H206       -2.9845  -26.4764  -50.2912 H         1 UNK         0.0600 
    207 H207       -3.6027  -28.8405  -49.7136 H         1 UNK         0.0600 
    208 H208       -3.2063  -28.6433  -51.4125 H         1 UNK         0.0600 
    209 H209       -2.0439  -29.3914  -50.3285 H         1 UNK         0.0600 
    210 H210       -0.3926  -25.4882  -49.6923 H         1 UNK         0.3000 
    211 H211        1.3508  -26.0022  -52.0154 H         1 UNK         0.0600 
    212 H212        1.4965  -23.8923  -49.7909 H         1 UNK         0.0600 
    213 H213        2.7397  -24.2154  -50.9900 H         1 UNK         0.0600 
    214 H214        2.3481  -25.4358  -49.7869 H         1 UNK         0.0600 
    215 H215       -1.2690  -23.9388  -50.9949 H         1 UNK         0.3000 
    216 H216       -1.4688  -22.7512  -53.6883 H         1 UNK         0.0600 
    217 H217       -2.3102  -20.6375  -52.6400 H         1 UNK         0.0600 
    218 H218       -0.6397  -20.9138  -52.1735 H         1 UNK         0.0600 
    219 H219       -1.9425  -21.2550  -51.0358 H         1 UNK         0.0600 
    220 H220       -3.7618  -22.3297  -54.1731 H         1 UNK         0.3000 
    221 H221       -5.5861  -24.3060  -53.0292 H         1 UNK         0.0600 
    222 H222       -6.0137  -22.1074  -55.1294 H         1 UNK         0.0600 
    223 H223       -5.6289  -23.7939  -55.4640 H         1 UNK         0.0600 
    224 H224       -7.1639  -23.3730  -54.7220 H         1 UNK         0.0600 
    225 H225       -7.1763  -23.9039  -51.5301 H         1 UNK         0.3000 
    226 H226       -7.0770  -21.5944  -49.8838 H         1 UNK         0.0600 
    227 H227       -7.7555  -23.8486  -49.0769 H         1 UNK         0.0600 
    228 H228       -9.0152  -22.6716  -48.7417 H         1 UNK         0.0600 
    229 H229       -9.2038  -23.7954  -50.0826 H         1 UNK         0.0600 
    230 H230       -8.9158  -22.2355  -52.7680 H         1 UNK         0.3000 
    231 H231      -10.8585  -20.0841  -52.4401 H         1 UNK         0.0600 
    232 H232      -10.0213  -21.7339  -54.8879 H         1 UNK         0.0600 
    233 H233      -11.4149  -20.6635  -54.8001 H         1 UNK         0.0600 
    234 H234      -11.3618  -22.1079  -53.8033 H         1 UNK         0.0600 
    235 H235       -7.5161  -20.1868  -53.2079 H         1 UNK         0.3000 
    236 H236       -7.5594  -17.5406  -54.5871 H         1 UNK         0.0600 
    237 H237       -6.6989  -19.4078  -56.0369 H         1 UNK         0.0600 
    238 H238       -5.4511  -18.2373  -55.6583 H         1 UNK         0.0600 
    239 H239       -5.4840  -19.7915  -54.8239 H         1 UNK         0.0600 
    240 H240       -4.4687  -18.2052  -53.7839 H         1 UNK         0.3000 
    241 H241       -4.5610  -16.4847  -51.4250 H         1 UNK         0.0600 
    242 H242       -4.0258  -20.0986  -49.9687 H         1 UNK         0.3800 
    243 H243       -4.8994  -19.8311  -51.4598 H         1 UNK         0.3800 
    244 H244       -3.0527  -15.8303  -53.1997 H         1 UNK         0.0800 
    245 H245       -2.1696  -16.1862  -51.7498 H         1 UNK         0.0800 
    246 H246       -0.1322  -15.9857  -53.5345 H         1 UNK         0.0800 
    247 H247        0.5920  -17.4811  -54.0592 H         1 UNK         0.0800 
@<TRIPOS>BOND
     1    1    2 1    
     2    1  127 1    
     3    1  128 1    
     4    1  129 1    
     5    2    3 2    
     6    2    4 am   BACKBONE|DICT|INTERRES
     7    4    5 1    
     8    4  130 1    
     9    5    6 1    
    10    5   65 1    
    11    5  131 1    
    12    6    7 1    
    13    6  132 1    
    14    6  133 1    
    15    7    8 1    
    16    8    9 1    
    17    8  134 1    
    18    8  135 1    
    19    9   10 ar   
    20    9   14 ar   
    21   10   11 ar   
    22   10  136 1    
    23   11   12 ar   
    24   11  126 1    
    25   12   13 ar   
    26   12  137 1    
    27   13   14 ar   
    28   13   15 1    
    29   14  138 1    
    30   15   16 1    
    31   15  139 1    
    32   15  140 1    
    33   16   17 1    
    34   17   18 1    
    35   17  141 1    
    36   17  142 1    
    37   18   19 1    
    38   18   67 1    
    39   18  143 1    
    40   19   20 am   BACKBONE|DICT|INTERRES
    41   19  144 1    
    42   20   21 2    
    43   20   22 1    
    44   22   23 1    
    45   22   24 1    
    46   22  145 1    
    47   23  146 1    
    48   23  147 1    
    49   23  148 1    
    50   24   25 am   BACKBONE|DICT|INTERRES
    51   24  149 1    
    52   25   26 2    
    53   25   27 1    
    54   27   28 1    
    55   27   29 1    
    56   27  150 1    
    57   28  151 1    
    58   28  152 1    
    59   28  153 1    
    60   29   30 am   BACKBONE|DICT|INTERRES
    61   29  154 1    
    62   30   31 2    
    63   30   32 1    
    64   32   33 1    
    65   32   34 1    
    66   32  155 1    
    67   33  156 1    
    68   33  157 1    
    69   33  158 1    
    70   34   35 am   BACKBONE|DICT|INTERRES
    71   34  159 1    
    72   35   36 2    
    73   35   37 1    
    74   37   38 1    
    75   37   39 1    
    76   37  160 1    
    77   38  161 1    
    78   38  162 1    
    79   38  163 1    
    80   39   40 am   BACKBONE|DICT|INTERRES
    81   39  164 1    
    82   40   41 2    
    83   40   42 1    
    84   42   43 1    
    85   42   44 1    
    86   42  165 1    
    87   43  166 1    
    88   43  167 1    
    89   43  168 1    
    90   44   45 am   BACKBONE|DICT|INTERRES
    91   44  169 1    
    92   45   46 2    
    93   45   47 1    
    94   47   48 1    
    95   47   49 1    
    96   47  170 1    
    97   48  171 1    
    98   48  172 1    
    99   48  173 1    
   100   49   50 am   BACKBONE|DICT|INTERRES
   101   49  174 1    
   102   50   51 2    
   103   50   52 1    
   104   52   53 1    
   105   52   54 1    
   106   52  175 1    
   107   53  176 1    
   108   53  177 1    
   109   53  178 1    
   110   54   55 am   BACKBONE|DICT|INTERRES
   111   54  179 1    
   112   55   56 2    
   113   55   57 1    
   114   57   58 1    
   115   57   59 1    
   116   57  180 1    
   117   58  181 1    
   118   58  182 1    
   119   58  183 1    
   120   59   60 am   BACKBONE|DICT|INTERRES
   121   59  184 1    
   122   60   61 2    
   123   60   62 1    
   124   62   63 1    
   125   62   64 1    
   126   62  185 1    
   127   63  186 1    
   128   63  187 1    
   129   63  188 1    
   130   64   65 am   BACKBONE|DICT|INTERRES
   131   64  189 1    
   132   65   66 2    
   133   67   68 2    
   134   67   69 am   BACKBONE|DICT|INTERRES
   135   69   70 1    
   136   69  190 1    
   137   70   71 1    
   138   70   72 1    
   139   70  191 1    
   140   71  192 1    
   141   71  193 1    
   142   71  194 1    
   143   72   73 2    
   144   72   74 am   BACKBONE|DICT|INTERRES
   145   74   75 1    
   146   74  195 1    
   147   75   76 1    
   148   75   77 1    
   149   75  196 1    
   150   76  197 1    
   151   76  198 1    
   152   76  199 1    
   153   77   78 2    
   154   77   79 am   BACKBONE|DICT|INTERRES
   155   79   80 1    
   156   79  200 1    
   157   80   81 1    
   158   80   82 1    
   159   80  201 1    
   160   81  202 1    
   161   81  203 1    
   162   81  204 1    
   163   82   83 2    
   164   82   84 am   BACKBONE|DICT|INTERRES
   165   84   85 1    
   166   84  205 1    
   167   85   86 1    
   168   85   87 1    
   169   85  206 1    
   170   86  207 1    
   171   86  208 1    
   172   86  209 1    
   173   87   88 2    
   174   87   89 am   BACKBONE|DICT|INTERRES
   175   89   90 1    
   176   89  210 1    
   177   90   91 1    
   178   90   92 1    
   179   90  211 1    
   180   91  212 1    
   181   91  213 1    
   182   91  214 1    
   183   92   93 2    
   184   92   94 am   BACKBONE|DICT|INTERRES
   185   94   95 1    
   186   94  215 1    
   187   95   96 1    
   188   95   97 1    
   189   95  216 1    
   190   96  217 1    
   191   96  218 1    
   192   96  219 1    
   193   97   98 2    
   194   97   99 am   BACKBONE|DICT|INTERRES
   195   99  100 1    
   196   99  220 1    
   197  100  101 1    
   198  100  102 1    
   199  100  221 1    
   200  101  222 1    
   201  101  223 1    
   202  101  224 1    
   203  102  103 2    
   204  102  104 am   BACKBONE|DICT|INTERRES
   205  104  105 1    
   206  104  225 1    
   207  105  106 1    
   208  105  107 1    
   209  105  226 1    
   210  106  227 1    
   211  106  228 1    
   212  106  229 1    
   213  107  108 2    
   214  107  109 am   BACKBONE|DICT|INTERRES
   215  109  110 1    
   216  109  230 1    
   217  110  111 1    
   218  110  112 1    
   219  110  231 1    
   220  111  232 1    
   221  111  233 1    
   222  111  234 1    
   223  112  113 2    
   224  112  114 am   BACKBONE|DICT|INTERRES
   225  114  115 1    
   226  114  235 1    
   227  115  116 1    
   228  115  117 1    
   229  115  236 1    
   230  116  237 1    
   231  116  238 1    
   232  116  239 1    
   233  117  118 2    
   234  117  119 am   BACKBONE|DICT|INTERRES
   235  119  120 1    
   236  119  240 1    
   237  120  121 1    
   238  120  124 1    
   239  120  241 1    
   240  121  122 am   BACKBONE|DICT|INTERRES
   241  121  123 2    
   242  122  242 1    
   243  122  243 1    
   244  124  125 1    
   245  124  244 1    
   246  124  245 1    
   247  125  126 1    
   248  126  246 1    
   249  126  247 1    
@<TRIPOS>SUBSTRUCTURE
     1 UNK         1 GROUP             0       ****    0 ROOT    
