@<TRIPOS>MOLECULE
3R540
247   249    1
SMALL
USER_CHARGES


@<TRIPOS>ATOM
      1 CA         10.8922  -15.6733  -48.2537 C.3       0 UNK        -0.1800 
      2 C           9.5216  -16.2952  -48.4823 C.2       0 UNK         0.5000 
      3 O           9.4339  -17.4695  -48.8425 O.2       0 UNK        -0.5000 
      4 N           8.4541  -15.5122  -48.2830 N.am      1 UNK        -0.5000 
      5 CA          7.0612  -15.9534  -48.3852 C.3       1 UNK         0.1400 
      6 C6          6.1008  -14.7381  -48.4616 C.3       23 UNK        -0.0398 
      7 S7          4.4024  -15.1941  -48.9496 S.3       23 UNK        -0.2404 
      8 C8          4.5540  -15.1267  -50.7593 C.3       23 UNK        -0.0205 
      9 C9          3.4020  -15.8505  -51.4339 C.ar      23 UNK        -0.0193 
     10 C10         2.4072  -15.1359  -52.1065 C.ar      23 UNK        -0.1150 
     11 C11         1.3730  -15.8089  -52.7631 C.ar      23 UNK        -0.0193 
     12 C12         1.3312  -17.2078  -52.7204 C.ar      23 UNK        -0.1150 
     13 C13         2.2996  -17.9350  -52.0224 C.ar      23 UNK        -0.0193 
     14 C14         3.3462  -17.2465  -51.4010 C.ar      23 UNK        -0.1150 
     15 C15         2.2126  -19.4602  -51.9754 C.3       23 UNK        -0.0205 
     16 S16         2.6290  -20.1804  -50.3487 S.3       23 UNK        -0.2404 
     17 C17         1.3634  -19.4272  -49.2725 C.3       23 UNK        -0.0398 
     18 CA          0.6657  -20.4539  -48.3460 C.3       11 UNK         0.1400 
     19 N           0.0986  -19.8133  -47.1573 N.am      11 UNK        -0.5000 
     20 C          -0.2900  -20.4617  -46.0486 C.2       10 UNK         0.5000 
     21 O          -0.1510  -21.6736  -45.8873 O.2       10 UNK        -0.5000 
     22 CA         -1.0209  -19.6342  -44.9694 C.3       10 UNK         0.1400 
     23 CB         -0.0276  -19.0597  -43.9547 C.3       10 UNK        -0.1800 
     24 N          -1.8086  -18.5427  -45.5438 N.am      10 UNK        -0.5000 
     25 C          -2.8819  -18.7353  -46.3258 C.2       9 UNK         0.5000 
     26 O          -3.3936  -19.8409  -46.4940 O.2       9 UNK        -0.5000 
     27 CA         -3.4352  -17.5252  -47.1070 C.3       9 UNK         0.1400 
     28 CB         -4.7740  -17.0566  -46.5234 C.3       9 UNK        -0.1800 
     29 N          -2.4971  -16.4018  -47.1770 N.am      9 UNK        -0.5000 
     30 C          -1.3293  -16.4380  -47.8379 C.2       8 UNK         0.5000 
     31 O          -0.9693  -17.4091  -48.5020 O.2       8 UNK        -0.5000 
     32 CA         -0.3649  -15.2448  -47.6770 C.3       8 UNK         0.1400 
     33 CB         -0.2965  -14.4188  -48.9681 C.3       8 UNK        -0.1800 
     34 N          -0.6802  -14.3624  -46.5493 N.am      8 UNK        -0.5000 
     35 C          -0.6171  -14.7157  -45.2588 C.2       7 UNK         0.5000 
     36 O          -0.2869  -15.8435  -44.8801 O.2       7 UNK        -0.5000 
     37 CA         -0.9850  -13.6520  -44.2055 C.3       7 UNK         0.1400 
     38 CB         -1.7035  -12.4046  -44.7682 C.3       7 UNK        -0.1800 
     39 N          -1.7405  -14.2648  -43.1114 N.am      7 UNK        -0.5000 
     40 C          -2.9541  -14.8337  -43.1824 C.2       6 UNK         0.5000 
     41 O          -3.6712  -14.7711  -44.1809 O.2       6 UNK        -0.5000 
     42 CA         -3.4417  -15.6463  -41.9611 C.3       6 UNK         0.1400 
     43 CB         -3.8069  -17.0820  -42.3774 C.3       6 UNK        -0.1800 
     44 N          -2.4503  -15.7233  -40.8865 N.am      6 UNK        -0.5000 
     45 C          -2.2345  -14.7865  -39.9538 C.2       5 UNK         0.5000 
     46 O          -2.9175  -13.7692  -39.8348 O.2       5 UNK        -0.5000 
     47 CA         -1.0232  -15.0081  -39.0225 C.3       5 UNK         0.1400 
     48 CB         -1.4754  -15.6298  -37.6924 C.3       5 UNK        -0.1800 
     49 N           0.0340  -15.8456  -39.6065 N.am      5 UNK        -0.5000 
     50 C           0.7404  -15.5436  -40.7053 C.2       4 UNK         0.5000 
     51 O           0.5709  -14.5062  -41.3492 O.2       4 UNK        -0.5000 
     52 CA          1.7849  -16.5674  -41.1822 C.3       4 UNK         0.1400 
     53 CB          1.4573  -18.0227  -40.7872 C.3       4 UNK        -0.1800 
     54 N           1.9312  -16.4603  -42.6337 N.am      4 UNK        -0.5000 
     55 C           3.0733  -16.6449  -43.3007 C.2       3 UNK         0.5000 
     56 O           4.1333  -16.9811  -42.7652 O.2       3 UNK        -0.5000 
     57 CA          3.0286  -16.3646  -44.8137 C.3       3 UNK         0.1400 
     58 CB          3.1551  -14.8585  -45.0932 C.3       3 UNK        -0.1800 
     59 N           4.1072  -17.0584  -45.5062 N.am      3 UNK        -0.5000 
     60 C           4.0916  -18.3450  -45.8700 C.2       2 UNK         0.5000 
     61 O           3.1111  -19.0765  -45.7275 O.2       2 UNK        -0.5000 
     62 CA          5.3844  -18.8901  -46.5192 C.3       2 UNK         0.1400 
     63 CB          5.1731  -20.2543  -47.1999 C.3       2 UNK        -0.1800 
     64 N           5.9443  -17.9543  -47.4991 N.am      2 UNK        -0.5000 
     65 C           6.7009  -16.8876  -47.2109 C.2       1 UNK         0.5000 
     66 O           7.0558  -16.5948  -46.0665 O.2       1 UNK        -0.5000 
     67 C          -0.4136  -21.2686  -49.0893 C.2       11 UNK         0.5000 
     68 O          -0.1392  -22.3844  -49.5289 O.2       11 UNK        -0.5000 
     69 N          -1.6404  -20.7285  -49.1550 N.am      12 UNK        -0.5000 
     70 CA         -2.8175  -21.4073  -49.7011 C.3       12 UNK         0.1400 
     71 CB         -3.9967  -20.4292  -49.7701 C.3       12 UNK        -0.1800 
     72 C          -3.2040  -22.6506  -48.8815 C.2       12 UNK         0.5000 
     73 O          -3.5088  -23.6924  -49.4612 O.2       12 UNK        -0.5000 
     74 N          -3.1508  -22.5299  -47.5477 N.am      13 UNK        -0.5000 
     75 CA         -3.3632  -23.6254  -46.6036 C.3       13 UNK         0.1400 
     76 CB         -3.4433  -23.0710  -45.1743 C.3       13 UNK        -0.1800 
     77 C          -2.2882  -24.7207  -46.7182 C.2       13 UNK         0.5000 
     78 O          -2.6363  -25.9010  -46.7312 O.2       13 UNK        -0.5000 
     79 N          -1.0153  -24.3205  -46.8577 N.am      14 UNK        -0.5000 
     80 CA          0.1180  -25.2205  -47.0969 C.3       14 UNK         0.1400 
     81 CB          1.4333  -24.4321  -47.0055 C.3       14 UNK        -0.1800 
     82 C           0.0200  -25.9684  -48.4419 C.2       14 UNK         0.5000 
     83 O           0.3772  -27.1446  -48.5118 O.2       14 UNK        -0.5000 
     84 N          -0.5033  -25.2878  -49.4706 N.am      15 UNK        -0.5000 
     85 CA         -0.8159  -25.8500  -50.7865 C.3       15 UNK         0.1400 
     86 CB         -0.9506  -24.6972  -51.7956 C.3       15 UNK        -0.1800 
     87 C          -2.0857  -26.7294  -50.8013 C.2       15 UNK         0.5000 
     88 O          -2.3415  -27.3852  -51.8120 O.2       15 UNK        -0.5000 
     89 N          -2.8573  -26.7197  -49.7025 N.am      16 UNK        -0.5000 
     90 CA         -4.1469  -27.3888  -49.5025 C.3       16 UNK         0.1400 
     91 CB         -3.9829  -28.9229  -49.5192 C.3       16 UNK        -0.1800 
     92 C          -5.2349  -26.8773  -50.4707 C.2       16 UNK         0.5000 
     93 O          -6.0351  -27.6633  -50.9815 O.2       16 UNK        -0.5000 
     94 N          -5.2372  -25.5602  -50.7053 N.am      17 UNK        -0.5000 
     95 CA         -6.1158  -24.8609  -51.6387 C.3       17 UNK         0.1400 
     96 CB         -5.3792  -24.6781  -52.9783 C.3       17 UNK        -0.1800 
     97 C          -6.5914  -23.5323  -51.0250 C.2       17 UNK         0.5000 
     98 O          -6.6827  -22.5259  -51.7265 O.2       17 UNK        -0.5000 
     99 N          -6.8954  -23.5544  -49.7182 N.am      18 UNK        -0.5000 
    100 CA        -7.2435  -22.4012  -48.8756 C.3       18 UNK         0.1400 
    101 CB        -7.4533  -22.8924  -47.4349 C.3       18 UNK        -0.1800 
    102 C         -8.4549  -21.5619  -49.3378 C.2       18 UNK         0.5000 
    103 O         -8.6004  -20.4219  -48.8957 O.2       18 UNK        -0.5000 
    104 N         -9.2972  -22.1257  -50.2135 N.am      19 UNK        -0.5000 
    105 CA       -10.4180  -21.4427  -50.8620 C.3       19 UNK         0.1400 
    106 CB       -11.3258  -22.4985  -51.5123 C.3       19 UNK        -0.1800 
    107 C         -9.9848  -20.3893  -51.9056 C.2       19 UNK         0.5000 
    108 O        -10.7898  -19.5215  -52.2475 O.2       19 UNK        -0.5000 
    109 N         -8.7433  -20.4786  -52.3978 N.am      20 UNK        -0.5000 
    110 CA        -8.1417  -19.5602  -53.3586 C.3       20 UNK         0.1400 
    111 CB        -8.4944  -20.0035  -54.7948 C.3       20 UNK        -0.1800 
    112 C         -6.6341  -19.4852  -53.0610 C.2       20 UNK         0.5000 
    113 O         -6.2697  -19.2963  -51.9001 O.2       20 UNK        -0.5000 
    114 N         -5.7919  -19.6283  -54.0961 N.am      21 UNK        -0.5000 
    115 CA        -4.3364  -19.8336  -54.0512 C.3       21 UNK         0.1400 
    116 CB        -4.0343  -21.2959  -53.6665 C.3       21 UNK        -0.1800 
    117 C         -3.5505  -18.8225  -53.1869 C.2       21 UNK         0.5000 
    118 O         -2.5869  -19.2072  -52.5235 O.2       21 UNK        -0.5000 
    119 N         -3.9673  -17.5487  -53.2305 N.am      22 UNK        -0.5000 
    120 CA        -3.4329  -16.4186  -52.4434 C.3       22 UNK         0.1400 
    121 C         -4.0556  -16.2607  -51.0226 C.2       22 UNK         0.5000 
    122 N         -5.0293  -17.0682  -50.6199 N.am      22 UNK        -0.7600 
    123 O         -3.6862  -15.3553  -50.2814 O.2       22 UNK        -0.5000 
    124 C124       -1.8772  -16.3576  -52.4311 C.3       23 UNK        -0.0398 
    125 S125       -1.1722  -14.6822  -52.5633 S.3       23 UNK        -0.2404 
    126 C126        0.3263  -15.0228  -53.5453 C.3       23 UNK        -0.0205 
    127 H127       11.4829  -15.7196  -49.1686 H         1 UNK         0.0600 
    128 H128       11.4255  -16.2176  -47.4743 H         1 UNK         0.0600 
    129 H129       10.8184  -14.6290  -47.9493 H         1 UNK         0.0600 
    130 H130        8.5931  -14.5668  -47.9559 H         1 UNK         0.3000 
    131 H131        6.9710  -16.5187  -49.3154 H         1 UNK         0.0600 
    132 H132        6.0582  -14.2160  -47.5038 H         1 UNK         0.0800 
    133 H133        6.4762  -14.0076  -49.1798 H         1 UNK         0.0800 
    134 H134        4.6004  -14.0842  -51.0781 H         1 UNK         0.0800 
    135 H135        5.4914  -15.5882  -51.0727 H         1 UNK         0.0800 
    136 H136        2.4474  -14.0560  -52.1356 H         1 UNK         0.1150 
    137 H137        0.5442  -17.7392  -53.2344 H         1 UNK         0.1150 
    138 H138        4.1176  -17.7955  -50.8802 H         1 UNK         0.1150 
    139 H139        1.2110  -19.7949  -52.2516 H         1 UNK         0.0800 
    140 H140        2.8928  -19.8693  -52.7232 H         1 UNK         0.0800 
    141 H141        1.8750  -18.6724  -48.6730 H         1 UNK         0.0800 
    142 H142        0.6360  -18.8830  -49.8770 H         1 UNK         0.0800 
    143 H143        1.4239  -21.1557  -47.9911 H         1 UNK         0.0600 
    144 H144       -0.1094  -18.8270  -47.2481 H         1 UNK         0.3000 
    145 H145       -1.7027  -20.3000  -44.4367 H         1 UNK         0.0600 
    146 H146        0.5046  -19.8553  -43.4323 H         1 UNK         0.0600 
    147 H147        0.7177  -18.4339  -44.4422 H         1 UNK         0.0600 
    148 H148       -0.5377  -18.4537  -43.2069 H         1 UNK         0.0600 
    149 H149       -1.4370  -17.6060  -45.4351 H         1 UNK         0.3000 
    150 H150       -3.6177  -17.8608  -48.1295 H         1 UNK         0.0600 
    151 H151       -5.5179  -17.8529  -46.5726 H         1 UNK         0.0600 
    152 H152       -5.1714  -16.2048  -47.0756 H         1 UNK         0.0600 
    153 H153       -4.6780  -16.7669  -45.4787 H         1 UNK         0.0600 
    154 H154       -2.7250  -15.5827  -46.6313 H         1 UNK         0.3000 
    155 H155        0.6280  -15.6634  -47.4974 H         1 UNK         0.0600 
    156 H156        0.4289  -13.6094  -48.8854 H         1 UNK         0.0600 
    157 H157       -1.2647  -13.9852  -49.2218 H         1 UNK         0.0600 
    158 H158        0.0139  -15.0433  -49.8070 H         1 UNK         0.0600 
    159 H159       -0.9754  -13.4251  -46.7814 H         1 UNK         0.3000 
    160 H160       -0.0413  -13.3186  -43.7722 H         1 UNK         0.0600 
    161 H161       -2.6092  -12.6596  -45.3192 H         1 UNK         0.0600 
    162 H162       -1.0526  -11.8449  -45.4408 H         1 UNK         0.0600 
    163 H163       -1.9873  -11.7249  -43.9646 H         1 UNK         0.0600 
    164 H164       -1.2022  -14.3944  -42.2621 H         1 UNK         0.3000 
    165 H165       -4.3425  -15.1595  -41.5822 H         1 UNK         0.0600 
    166 H166       -2.9614  -17.5969  -42.8354 H         1 UNK         0.0600 
    167 H167       -4.1356  -17.6710  -41.5210 H         1 UNK         0.0600 
    168 H168       -4.6239  -17.0857  -43.0991 H         1 UNK         0.0600 
    169 H169       -1.8389  -16.5259  -40.8992 H         1 UNK         0.3000 
    170 H170       -0.5919  -14.0271  -38.8126 H         1 UNK         0.0600 
    171 H171       -2.2427  -15.0183  -37.2156 H         1 UNK         0.0600 
    172 H172       -1.8928  -16.6273  -37.8358 H         1 UNK         0.0600 
    173 H173       -0.6446  -15.7099  -36.9910 H         1 UNK         0.0600 
    174 H174        0.2288  -16.7150  -39.1309 H         1 UNK         0.3000 
    175 H175        2.7252  -16.2829  -40.7056 H         1 UNK         0.0600 
    176 H176        0.4519  -18.3111  -41.0929 H         1 UNK         0.0600 
    177 H177        2.1565  -18.7231  -41.2446 H         1 UNK         0.0600 
    178 H178        1.5293  -18.1655  -39.7087 H         1 UNK         0.0600 
    179 H179        1.1138  -16.1316  -43.1353 H         1 UNK         0.3000 
    180 H180        2.0780  -16.7153  -45.2152 H         1 UNK         0.0600 
    181 H181        2.3794  -14.2945  -44.5744 H         1 UNK         0.0600 
    182 H182        3.0511  -14.6468  -46.1575 H         1 UNK         0.0600 
    183 H183        4.1189  -14.4676  -44.7648 H         1 UNK         0.0600 
    184 H184        4.9838  -16.5600  -45.5922 H         1 UNK         0.3000 
    185 H185        6.1074  -19.0332  -45.7134 H         1 UNK         0.0600 
    186 H186        6.1008  -20.6285  -47.6330 H         1 UNK         0.0600 
    187 H187        4.8265  -21.0012  -46.4845 H         1 UNK         0.0600 
    188 H188        4.4309  -20.1936  -47.9953 H         1 UNK         0.0600 
    189 H189        5.6551  -18.0981  -48.4556 H         1 UNK         0.3000 
    190 H190       -1.7800  -19.8017  -48.7793 H         1 UNK         0.3000 
    191 H191       -2.5747  -21.7244  -50.7173 H         1 UNK         0.0600 
    192 H192       -4.7926  -20.8417  -50.3886 H         1 UNK         0.0600 
    193 H193       -3.7019  -19.4785  -50.2088 H         1 UNK         0.0600 
    194 H194       -4.4265  -20.2198  -48.7921 H         1 UNK         0.0600 
    195 H195       -2.9750  -21.6115  -47.1509 H         1 UNK         0.3000 
    196 H196       -4.3235  -24.0855  -46.8419 H         1 UNK         0.0600 
    197 H197       -3.6603  -23.8661  -44.4600 H         1 UNK         0.0600 
    198 H198       -4.2347  -22.3265  -45.0843 H         1 UNK         0.0600 
    199 H199       -2.5076  -22.6033  -44.8693 H         1 UNK         0.0600 
    200 H200       -0.7997  -23.3316  -46.7767 H         1 UNK         0.3000 
    201 H201        0.1178  -25.9700  -46.3028 H         1 UNK         0.0600 
    202 H202        1.5404  -23.9544  -46.0315 H         1 UNK         0.0600 
    203 H203        1.4920  -23.6549  -47.7674 H         1 UNK         0.0600 
    204 H204        2.2926  -25.0897  -47.1416 H         1 UNK         0.0600 
    205 H205       -0.6930  -24.2976  -49.3491 H         1 UNK         0.3000 
    206 H206        0.0194  -26.4796  -51.0994 H         1 UNK         0.0600 
    207 H207       -0.0417  -24.0963  -51.8325 H         1 UNK         0.0600 
    208 H208       -1.1307  -25.0748  -52.8028 H         1 UNK         0.0600 
    209 H209       -1.7788  -24.0351  -51.5421 H         1 UNK         0.0600 
    210 H210       -2.5555  -26.1404  -48.9295 H         1 UNK         0.3000 
    211 H211       -4.4799  -27.1079  -48.5025 H         1 UNK         0.0600 
    212 H212       -3.7106  -29.2929  -50.5079 H         1 UNK         0.0600 
    213 H213       -4.9108  -29.4174  -49.2302 H         1 UNK         0.0600 
    214 H214       -3.2132  -29.2433  -48.8169 H         1 UNK         0.0600 
    215 H215       -4.5498  -24.9727  -50.2327 H         1 UNK         0.3000 
    216 H216       -7.0169  -25.4499  -51.8196 H         1 UNK         0.0600 
    217 H217       -6.0014  -24.1572  -53.7071 H         1 UNK         0.0600 
    218 H218       -5.1093  -25.6411  -53.4119 H         1 UNK         0.0600 
    219 H219       -4.4615  -24.1034  -52.8500 H         1 UNK         0.0600 
    220 H220       -6.8034  -24.4377  -49.2384 H         1 UNK         0.3000 
    221 H221       -6.3836  -21.7319  -48.8763 H         1 UNK         0.0600 
    222 H222       -8.2846  -23.5952  -47.3684 H         1 UNK         0.0600 
    223 H223       -6.5626  -23.3874  -47.0507 H         1 UNK         0.0600 
    224 H224       -7.6716  -22.0603  -46.7641 H         1 UNK         0.0600 
    225 H225       -9.0990  -23.0655  -50.5224 H         1 UNK         0.3000 
    226 H226      -10.9936  -20.9238  -50.0927 H         1 UNK         0.0600 
    227 H227      -11.6977  -23.2090  -50.7739 H         1 UNK         0.0600 
    228 H228      -12.1948  -22.0331  -51.9795 H         1 UNK         0.0600 
    229 H229      -10.7992  -23.0598  -52.2852 H         1 UNK         0.0600 
    230 H230       -8.1107  -21.1865  -52.0320 H         1 UNK         0.3000 
    231 H231       -8.5368  -18.5556  -53.1958 H         1 UNK         0.0600 
    232 H232       -8.1025  -19.3059  -55.5357 H         1 UNK         0.0600 
    233 H233       -9.5745  -20.0401  -54.9378 H         1 UNK         0.0600 
    234 H234       -8.1001  -20.9957  -55.0191 H         1 UNK         0.0600 
    235 H235       -6.2066  -19.7334  -55.0112 H         1 UNK         0.3000 
    236 H236       -3.9789  -19.6868  -55.0712 H         1 UNK         0.0600 
    237 H237       -4.5559  -21.9908  -54.3242 H         1 UNK         0.0600 
    238 H238       -2.9691  -21.5169  -53.7432 H         1 UNK         0.0600 
    239 H239       -4.3411  -21.5112  -52.6436 H         1 UNK         0.0600 
    240 H240       -4.7774  -17.3381  -53.7954 H         1 UNK         0.3000 
    241 H241       -3.7872  -15.5433  -52.9886 H         1 UNK         0.0600 
    242 H242       -5.3627  -17.8395  -51.1941 H         1 UNK         0.3800 
    243 H243       -5.4423  -16.9156  -49.7160 H         1 UNK         0.3800 
    244 H244       -1.4642  -16.8568  -51.5519 H         1 UNK         0.0800 
    245 H245       -1.5032  -16.9096  -53.2915 H         1 UNK         0.0800 
    246 H246        0.7481  -14.0712  -53.8723 H         1 UNK         0.0800 
    247 H247        0.0586  -15.5576  -54.4578 H         1 UNK         0.0800 
@<TRIPOS>BOND
     1    1    2 1    
     2    1  127 1    
     3    1  128 1    
     4    1  129 1    
     5    2    3 2    
     6    2    4 am   BACKBONE|DICT|INTERRES
     7    4    5 1    
     8    4  130 1    
     9    5    6 1    
    10    5   65 1    
    11    5  131 1    
    12    6    7 1    
    13    6  132 1    
    14    6  133 1    
    15    7    8 1    
    16    8    9 1    
    17    8  134 1    
    18    8  135 1    
    19    9   10 ar   
    20    9   14 ar   
    21   10   11 ar   
    22   10  136 1    
    23   11   12 ar   
    24   11  126 1    
    25   12   13 ar   
    26   12  137 1    
    27   13   14 ar   
    28   13   15 1    
    29   14  138 1    
    30   15   16 1    
    31   15  139 1    
    32   15  140 1    
    33   16   17 1    
    34   17   18 1    
    35   17  141 1    
    36   17  142 1    
    37   18   19 1    
    38   18   67 1    
    39   18  143 1    
    40   19   20 am   BACKBONE|DICT|INTERRES
    41   19  144 1    
    42   20   21 2    
    43   20   22 1    
    44   22   23 1    
    45   22   24 1    
    46   22  145 1    
    47   23  146 1    
    48   23  147 1    
    49   23  148 1    
    50   24   25 am   BACKBONE|DICT|INTERRES
    51   24  149 1    
    52   25   26 2    
    53   25   27 1    
    54   27   28 1    
    55   27   29 1    
    56   27  150 1    
    57   28  151 1    
    58   28  152 1    
    59   28  153 1    
    60   29   30 am   BACKBONE|DICT|INTERRES
    61   29  154 1    
    62   30   31 2    
    63   30   32 1    
    64   32   33 1    
    65   32   34 1    
    66   32  155 1    
    67   33  156 1    
    68   33  157 1    
    69   33  158 1    
    70   34   35 am   BACKBONE|DICT|INTERRES
    71   34  159 1    
    72   35   36 2    
    73   35   37 1    
    74   37   38 1    
    75   37   39 1    
    76   37  160 1    
    77   38  161 1    
    78   38  162 1    
    79   38  163 1    
    80   39   40 am   BACKBONE|DICT|INTERRES
    81   39  164 1    
    82   40   41 2    
    83   40   42 1    
    84   42   43 1    
    85   42   44 1    
    86   42  165 1    
    87   43  166 1    
    88   43  167 1    
    89   43  168 1    
    90   44   45 am   BACKBONE|DICT|INTERRES
    91   44  169 1    
    92   45   46 2    
    93   45   47 1    
    94   47   48 1    
    95   47   49 1    
    96   47  170 1    
    97   48  171 1    
    98   48  172 1    
    99   48  173 1    
   100   49   50 am   BACKBONE|DICT|INTERRES
   101   49  174 1    
   102   50   51 2    
   103   50   52 1    
   104   52   53 1    
   105   52   54 1    
   106   52  175 1    
   107   53  176 1    
   108   53  177 1    
   109   53  178 1    
   110   54   55 am   BACKBONE|DICT|INTERRES
   111   54  179 1    
   112   55   56 2    
   113   55   57 1    
   114   57   58 1    
   115   57   59 1    
   116   57  180 1    
   117   58  181 1    
   118   58  182 1    
   119   58  183 1    
   120   59   60 am   BACKBONE|DICT|INTERRES
   121   59  184 1    
   122   60   61 2    
   123   60   62 1    
   124   62   63 1    
   125   62   64 1    
   126   62  185 1    
   127   63  186 1    
   128   63  187 1    
   129   63  188 1    
   130   64   65 am   BACKBONE|DICT|INTERRES
   131   64  189 1    
   132   65   66 2    
   133   67   68 2    
   134   67   69 am   BACKBONE|DICT|INTERRES
   135   69   70 1    
   136   69  190 1    
   137   70   71 1    
   138   70   72 1    
   139   70  191 1    
   140   71  192 1    
   141   71  193 1    
   142   71  194 1    
   143   72   73 2    
   144   72   74 am   BACKBONE|DICT|INTERRES
   145   74   75 1    
   146   74  195 1    
   147   75   76 1    
   148   75   77 1    
   149   75  196 1    
   150   76  197 1    
   151   76  198 1    
   152   76  199 1    
   153   77   78 2    
   154   77   79 am   BACKBONE|DICT|INTERRES
   155   79   80 1    
   156   79  200 1    
   157   80   81 1    
   158   80   82 1    
   159   80  201 1    
   160   81  202 1    
   161   81  203 1    
   162   81  204 1    
   163   82   83 2    
   164   82   84 am   BACKBONE|DICT|INTERRES
   165   84   85 1    
   166   84  205 1    
   167   85   86 1    
   168   85   87 1    
   169   85  206 1    
   170   86  207 1    
   171   86  208 1    
   172   86  209 1    
   173   87   88 2    
   174   87   89 am   BACKBONE|DICT|INTERRES
   175   89   90 1    
   176   89  210 1    
   177   90   91 1    
   178   90   92 1    
   179   90  211 1    
   180   91  212 1    
   181   91  213 1    
   182   91  214 1    
   183   92   93 2    
   184   92   94 am   BACKBONE|DICT|INTERRES
   185   94   95 1    
   186   94  215 1    
   187   95   96 1    
   188   95   97 1    
   189   95  216 1    
   190   96  217 1    
   191   96  218 1    
   192   96  219 1    
   193   97   98 2    
   194   97   99 am   BACKBONE|DICT|INTERRES
   195   99  100 1    
   196   99  220 1    
   197  100  101 1    
   198  100  102 1    
   199  100  221 1    
   200  101  222 1    
   201  101  223 1    
   202  101  224 1    
   203  102  103 2    
   204  102  104 am   BACKBONE|DICT|INTERRES
   205  104  105 1    
   206  104  225 1    
   207  105  106 1    
   208  105  107 1    
   209  105  226 1    
   210  106  227 1    
   211  106  228 1    
   212  106  229 1    
   213  107  108 2    
   214  107  109 am   BACKBONE|DICT|INTERRES
   215  109  110 1    
   216  109  230 1    
   217  110  111 1    
   218  110  112 1    
   219  110  231 1    
   220  111  232 1    
   221  111  233 1    
   222  111  234 1    
   223  112  113 2    
   224  112  114 am   BACKBONE|DICT|INTERRES
   225  114  115 1    
   226  114  235 1    
   227  115  116 1    
   228  115  117 1    
   229  115  236 1    
   230  116  237 1    
   231  116  238 1    
   232  116  239 1    
   233  117  118 2    
   234  117  119 am   BACKBONE|DICT|INTERRES
   235  119  120 1    
   236  119  240 1    
   237  120  121 1    
   238  120  124 1    
   239  120  241 1    
   240  121  122 am   BACKBONE|DICT|INTERRES
   241  121  123 2    
   242  122  242 1    
   243  122  243 1    
   244  124  125 1    
   245  124  244 1    
   246  124  245 1    
   247  125  126 1    
   248  126  246 1    
   249  126  247 1    
@<TRIPOS>SUBSTRUCTURE
     1 UNK         1 GROUP             0       ****    0 ROOT    
