@<TRIPOS>MOLECULE
3R540
247   249    1
SMALL
USER_CHARGES


@<TRIPOS>ATOM
      1 CA          5.7313  -10.7495  -49.6279 C.3       0 UNK        -0.1800 
      2 C           5.1906  -11.3888  -48.3572 C.2       0 UNK         0.5000 
      3 O           4.7347  -10.6809  -47.4588 O.2       0 UNK        -0.5000 
      4 N           5.2263  -12.7258  -48.2803 N.am      1 UNK        -0.5000 
      5 CA          4.7543  -13.5154  -47.1345 C.3       1 UNK         0.1400 
      6 C6          5.3310  -14.9543  -47.1340 C.3       23 UNK        -0.0398 
      7 S7          4.9505  -15.9357  -48.6296 S.3       23 UNK        -0.2404 
      8 C8          3.5402  -16.9207  -48.0372 C.3       23 UNK        -0.0205 
      9 C9          3.0682  -17.9148  -49.0853 C.ar      23 UNK        -0.0193 
     10 C10         2.3195  -17.4765  -50.1815 C.ar      23 UNK        -0.1150 
     11 C11         1.8484  -18.3897  -51.1294 C.ar      23 UNK        -0.0193 
     12 C12         2.1388  -19.7490  -50.9767 C.ar      23 UNK        -0.1150 
     13 C13         2.8637  -20.2049  -49.8705 C.ar      23 UNK        -0.0193 
     14 C14         3.3352  -19.2787  -48.9350 C.ar      23 UNK        -0.1150 
     15 C15         3.1199  -21.6948  -49.6755 C.3       23 UNK        -0.0205 
     16 S16         1.5594  -22.6233  -49.5491 S.3       23 UNK        -0.2404 
     17 C17         2.0509  -24.1348  -48.6443 C.3       23 UNK        -0.0398 
     18 CA          1.5928  -24.1487  -47.1586 C.3       11 UNK         0.1400 
     19 N           2.2235  -23.0741  -46.3828 N.am      11 UNK        -0.5000 
     20 C           3.4244  -23.1701  -45.7968 C.2       10 UNK         0.5000 
     21 O           4.0788  -24.2135  -45.7751 O.2       10 UNK        -0.5000 
     22 CA          4.0269  -21.9087  -45.1411 C.3       10 UNK         0.1400 
     23 CB          5.2860  -21.4495  -45.8946 C.3       10 UNK        -0.1800 
     24 N           3.0969  -20.7821  -45.0435 N.am      10 UNK        -0.5000 
     25 C           2.1786  -20.6449  -44.0792 C.2       9 UNK         0.5000 
     26 O           2.0065  -21.4687  -43.1802 O.2       9 UNK        -0.5000 
     27 CA          1.2940  -19.3829  -44.1271 C.3       9 UNK         0.1400 
     28 CB          1.9614  -18.2424  -43.3461 C.3       9 UNK        -0.1800 
     29 N           0.9276  -18.8877  -45.4599 N.am      9 UNK        -0.5000 
     30 C           0.4031  -19.6016  -46.4643 C.2       8 UNK         0.5000 
     31 O           0.3867  -20.8288  -46.4762 O.2       8 UNK        -0.5000 
     32 CA         -0.2403  -18.8197  -47.6284 C.3       8 UNK         0.1400 
     33 CB         -1.0282  -19.7384  -48.5757 C.3       8 UNK        -0.1800 
     34 N          -1.1419  -17.7705  -47.1594 N.am      8 UNK        -0.5000 
     35 C          -0.7885  -16.5790  -46.6710 C.2       7 UNK         0.5000 
     36 O           0.3811  -16.2243  -46.5356 O.2       7 UNK        -0.5000 
     37 CA         -1.9278  -15.6530  -46.2150 C.3       7 UNK         0.1400 
     38 CB         -2.9084  -15.3223  -47.3564 C.3       7 UNK        -0.1800 
     39 N          -2.6265  -16.1452  -45.0248 N.am      7 UNK        -0.5000 
     40 C          -3.3376  -17.2734  -44.8671 C.2       6 UNK         0.5000 
     41 O          -3.5651  -18.0678  -45.7803 O.2       6 UNK        -0.5000 
     42 CA         -3.9113  -17.5624  -43.4610 C.3       6 UNK         0.1400 
     43 CB         -3.8143  -19.0586  -43.0909 C.3       6 UNK        -0.1800 
     44 N          -3.3558  -16.7096  -42.3990 N.am      6 UNK        -0.5000 
     45 C          -2.0940  -16.6949  -41.9463 C.2       5 UNK         0.5000 
     46 O          -1.2149  -17.4768  -42.3106 O.2       5 UNK        -0.5000 
     47 CA         -1.7511  -15.5858  -40.9331 C.3       5 UNK         0.1400 
     48 CB         -1.5550  -16.1764  -39.5285 C.3       5 UNK        -0.1800 
     49 N          -0.5477  -14.8427  -41.3153 N.am      5 UNK        -0.5000 
     50 C          -0.3837  -14.1682  -42.4623 C.2       4 UNK         0.5000 
     51 O          -1.2631  -14.0654  -43.3218 O.2       4 UNK        -0.5000 
     52 CA          1.0033  -13.5238  -42.6703 C.3       4 UNK         0.1400 
     53 CB          2.0799  -14.6019  -42.8717 C.3       4 UNK        -0.1800 
     54 N           1.0497  -12.6046  -43.8096 N.am      4 UNK        -0.5000 
     55 C           0.4685  -11.3963  -43.8499 C.2       3 UNK         0.5000 
     56 O          -0.1497  -10.9121  -42.9002 O.2       3 UNK        -0.5000 
     57 CA          0.6199  -10.5629  -45.1429 C.3       3 UNK         0.1400 
     58 CB          1.6054   -9.4041  -44.9223 C.3       3 UNK        -0.1800 
     59 N           1.0740  -11.3410  -46.2956 N.am      3 UNK        -0.5000 
     60 C           0.3151  -12.1939  -46.9959 C.2       2 UNK         0.5000 
     61 O          -0.8951  -12.3255  -46.8158 O.2       2 UNK        -0.5000 
     62 CA          1.0140  -13.0489  -48.0770 C.3       2 UNK         0.1400 
     63 CB          0.6047  -12.5836  -49.4828 C.3       2 UNK        -0.1800 
     64 N           2.4796  -13.0851  -48.0054 N.am      2 UNK        -0.5000 
     65 C           3.2177  -13.5159  -46.9708 C.2       1 UNK         0.5000 
     66 O           2.7336  -13.8873  -45.9039 O.2       1 UNK        -0.5000 
     67 C           0.0565  -24.1498  -46.9888 C.2       11 UNK         0.5000 
     68 O          -0.6492  -24.6885  -47.8429 O.2       11 UNK        -0.5000 
     69 N          -0.4420  -23.5364  -45.9045 N.am      12 UNK        -0.5000 
     70 CA         -1.8309  -23.0951  -45.7352 C.3       12 UNK         0.1400 
     71 CB         -1.9757  -22.3690  -44.3893 C.3       12 UNK        -0.1800 
     72 C          -2.8981  -24.1926  -45.8741 C.2       12 UNK         0.5000 
     73 O          -3.9819  -23.9100  -46.3848 O.2       12 UNK        -0.5000 
     74 N          -2.5680  -25.4180  -45.4473 N.am      13 UNK        -0.5000 
     75 CA         -3.4362  -26.5913  -45.5527 C.3       13 UNK         0.1400 
     76 CB         -2.8914  -27.7034  -44.6437 C.3       13 UNK        -0.1800 
     77 C          -3.5904  -27.1031  -46.9981 C.2       13 UNK         0.5000 
     78 O          -4.6605  -27.5988  -47.3511 O.2       13 UNK        -0.5000 
     79 N          -2.5311  -26.9686  -47.8074 N.am      14 UNK        -0.5000 
     80 CA         -2.5136  -27.3520  -49.2199 C.3       14 UNK         0.1400 
     81 CB         -1.0756  -27.7004  -49.6352 C.3       14 UNK        -0.1800 
     82 C          -3.0789  -26.2312  -50.1069 C.2       14 UNK         0.5000 
     83 O          -3.8117  -26.5100  -51.0556 O.2       14 UNK        -0.5000 
     84 N          -2.7449  -24.9813  -49.7616 N.am      15 UNK        -0.5000 
     85 CA         -3.2057  -23.7669  -50.4316 C.3       15 UNK         0.1400 
     86 CB         -2.2702  -22.6148  -50.0431 C.3       15 UNK        -0.1800 
     87 C          -4.6610  -23.3907  -50.1051 C.2       15 UNK         0.5000 
     88 O          -5.2017  -22.4966  -50.7574 O.2       15 UNK        -0.5000 
     89 N          -5.2563  -24.0352  -49.0914 N.am      16 UNK        -0.5000 
     90 CA         -6.6007  -23.7952  -48.5548 C.3       16 UNK         0.1400 
     91 CB         -7.6719  -24.2458  -49.5694 C.3       16 UNK        -0.1800 
     92 C          -6.7842  -22.3380  -48.0782 C.2       16 UNK         0.5000 
     93 O          -7.8107  -21.7177  -48.3550 O.2       16 UNK        -0.5000 
     94 N          -5.7489  -21.8183  -47.4017 N.am      17 UNK        -0.5000 
     95 CA         -5.5775  -20.4265  -46.9720 C.3       17 UNK         0.1400 
     96 CB         -6.5778  -20.0704  -45.8527 C.3       17 UNK        -0.1800 
     97 C          -5.6020  -19.4321  -48.1568 C.2       17 UNK         0.5000 
     98 O          -6.3253  -18.4349  -48.1182 O.2       17 UNK        -0.5000 
     99 N          -4.8070  -19.7468  -49.1924 N.am      18 UNK        -0.5000 
    100 CA        -4.6330  -18.9986  -50.4449 C.3       18 UNK         0.1400 
    101 CB        -4.0258  -17.6040  -50.1781 C.3       18 UNK        -0.1800 
    102 C         -5.9207  -18.9388  -51.2953 C.2       18 UNK         0.5000 
    103 O         -6.2751  -17.8750  -51.8085 O.2       18 UNK        -0.5000 
    104 N         -6.5974  -20.0866  -51.4259 N.am      19 UNK        -0.5000 
    105 CA        -7.7979  -20.2604  -52.2477 C.3       19 UNK         0.1400 
    106 CB        -8.9841  -20.6387  -51.3486 C.3       19 UNK        -0.1800 
    107 C         -7.5904  -21.3221  -53.3411 C.2       19 UNK         0.5000 
    108 O         -8.1472  -21.1786  -54.4301 O.2       19 UNK        -0.5000 
    109 N         -6.7900  -22.3556  -53.0487 N.am      20 UNK        -0.5000 
    110 CA        -6.4209  -23.4293  -53.9746 C.3       20 UNK         0.1400 
    111 CB        -6.4963  -24.7713  -53.2274 C.3       20 UNK        -0.1800 
    112 C         -5.0165  -23.2155  -54.5746 C.2       20 UNK         0.5000 
    113 O         -4.6024  -23.9923  -55.4361 O.2       20 UNK        -0.5000 
    114 N         -4.3113  -22.1737  -54.1215 N.am      21 UNK        -0.5000 
    115 CA        -3.0055  -21.7386  -54.6012 C.3       21 UNK         0.1400 
    116 CB        -1.8948  -22.4543  -53.8106 C.3       21 UNK        -0.1800 
    117 C         -2.9143  -20.2107  -54.4578 C.2       21 UNK         0.5000 
    118 O         -3.8510  -19.5839  -53.9553 O.2       21 UNK        -0.5000 
    119 N         -1.7823  -19.6503  -54.9000 N.am      22 UNK        -0.5000 
    120 CA        -1.4460  -18.2124  -54.8856 C.3       22 UNK         0.1400 
    121 C         -2.1683  -17.3658  -55.9786 C.2       22 UNK         0.5000 
    122 N         -2.8409  -17.9688  -56.9514 N.am      22 UNK        -0.7600 
    123 O         -2.0928  -16.1400  -55.9683 O.2       22 UNK        -0.5000 
    124 C124       -1.5333  -17.5406  -53.4828 C.3       23 UNK        -0.0398 
    125 S125       -0.7153  -18.4708  -52.1430 S.3       23 UNK        -0.2404 
    126 C126        1.0089  -17.9139  -52.3055 C.3       23 UNK        -0.0205 
    127 H127        6.0937  -11.4962  -50.3348 H         1 UNK         0.0600 
    128 H128        6.5566  -10.0791  -49.3883 H         1 UNK         0.0600 
    129 H129        4.9497  -10.1685  -50.1174 H         1 UNK         0.0600 
    130 H130        5.6009  -13.2623  -49.0508 H         1 UNK         0.3000 
    131 H131        5.1406  -13.0281  -46.2364 H         1 UNK         0.0600 
    132 H132        6.4172  -14.8989  -47.0526 H         1 UNK         0.0800 
    133 H133        5.0081  -15.4969  -46.2434 H         1 UNK         0.0800 
    134 H134        2.7146  -16.2575  -47.7795 H         1 UNK         0.0800 
    135 H135        3.8167  -17.4390  -47.1178 H         1 UNK         0.0800 
    136 H136        2.0955  -16.4241  -50.2865 H         1 UNK         0.1150 
    137 H137        1.7653  -20.4592  -51.7012 H         1 UNK         0.1150 
    138 H138        3.8989  -19.6177  -48.0796 H         1 UNK         0.1150 
    139 H139        3.7039  -22.0787  -50.5127 H         1 UNK         0.0800 
    140 H140        3.7116  -21.8647  -48.7761 H         1 UNK         0.0800 
    141 H141        3.1333  -24.2555  -48.7005 H         1 UNK         0.0800 
    142 H142        1.6376  -24.9945  -49.1742 H         1 UNK         0.0800 
    143 H143        1.9034  -25.1062  -46.7361 H         1 UNK         0.0600 
    144 H144        1.7241  -22.1868  -46.3827 H         1 UNK         0.3000 
    145 H145        4.3350  -22.1927  -44.1325 H         1 UNK         0.0600 
    146 H146        5.7325  -20.5740  -45.4229 H         1 UNK         0.0600 
    147 H147        5.0719  -21.2005  -46.9325 H         1 UNK         0.0600 
    148 H148        6.0442  -22.2336  -45.9001 H         1 UNK         0.0600 
    149 H149        3.1504  -20.0738  -45.7594 H         1 UNK         0.3000 
    150 H150        0.3592  -19.6324  -43.6214 H         1 UNK         0.0600 
    151 H151        2.8610  -17.8818  -43.8464 H         1 UNK         0.0600 
    152 H152        2.2444  -18.5626  -42.3425 H         1 UNK         0.0600 
    153 H153        1.2784  -17.4021  -43.2332 H         1 UNK         0.0600 
    154 H154        0.9078  -17.8789  -45.5699 H         1 UNK         0.3000 
    155 H155        0.5619  -18.3566  -48.1982 H         1 UNK         0.0600 
    156 H156       -0.3864  -20.5131  -48.9935 H         1 UNK         0.0600 
    157 H157       -1.4369  -19.1831  -49.4163 H         1 UNK         0.0600 
    158 H158       -1.8550  -20.2284  -48.0613 H         1 UNK         0.0600 
    159 H159       -2.1234  -18.0181  -47.0786 H         1 UNK         0.3000 
    160 H160       -1.4565  -14.7179  -45.9138 H         1 UNK         0.0600 
    161 H161       -3.5053  -16.1843  -47.6509 H         1 UNK         0.0600 
    162 H162       -2.3741  -14.9729  -48.2408 H         1 UNK         0.0600 
    163 H163       -3.5955  -14.5301  -47.0597 H         1 UNK         0.0600 
    164 H164       -2.4638  -15.5768  -44.2012 H         1 UNK         0.3000 
    165 H165       -4.9713  -17.3117  -43.5194 H         1 UNK         0.0600 
    166 H166       -4.2137  -19.2466  -42.0945 H         1 UNK         0.0600 
    167 H167       -4.3851  -19.6722  -43.7881 H         1 UNK         0.0600 
    168 H168       -2.7857  -19.4190  -43.1154 H         1 UNK         0.0600 
    169 H169       -3.9957  -16.0164  -42.0355 H         1 UNK         0.3000 
    170 H170       -2.5774  -14.8731  -40.8928 H         1 UNK         0.0600 
    171 H171       -0.7161  -16.8731  -39.4991 H         1 UNK         0.0600 
    172 H172       -1.3690  -15.3941  -38.7924 H         1 UNK         0.0600 
    173 H173       -2.4441  -16.7201  -39.2064 H         1 UNK         0.0600 
    174 H174        0.2296  -14.9040  -40.6747 H         1 UNK         0.3000 
    175 H175        1.2468  -12.9579  -41.7689 H         1 UNK         0.0600 
    176 H176        1.8769  -15.2008  -43.7600 H         1 UNK         0.0600 
    177 H177        3.0676  -14.1561  -42.9907 H         1 UNK         0.0600 
    178 H178        2.1337  -15.2811  -42.0203 H         1 UNK         0.0600 
    179 H179        1.5275  -12.9497  -44.6364 H         1 UNK         0.3000 
    180 H180       -0.3593  -10.1384  -45.3738 H         1 UNK         0.0600 
    181 H181        1.6689   -8.7668  -45.8045 H         1 UNK         0.0600 
    182 H182        2.6091   -9.7679  -44.6982 H         1 UNK         0.0600 
    183 H183        1.2903   -8.7737  -44.0898 H         1 UNK         0.0600 
    184 H184        2.0583  -11.2891  -46.5173 H         1 UNK         0.3000 
    185 H185        0.6600  -14.0716  -47.9485 H         1 UNK         0.0600 
    186 H186        0.9601  -11.5735  -49.6898 H         1 UNK         0.0600 
    187 H187        1.0048  -13.2465  -50.2504 H         1 UNK         0.0600 
    188 H188       -0.4804  -12.5800  -49.5947 H         1 UNK         0.0600 
    189 H189        2.9734  -12.7848  -48.8327 H         1 UNK         0.3000 
    190 H190        0.2223  -23.1327  -45.2606 H         1 UNK         0.3000 
    191 H191       -2.0250  -22.3663  -46.5242 H         1 UNK         0.0600 
    192 H192       -1.3199  -21.4999  -44.3372 H         1 UNK         0.0600 
    193 H193       -1.7335  -23.0235  -43.5513 H         1 UNK         0.0600 
    194 H194       -2.9959  -22.0105  -44.2447 H         1 UNK         0.0600 
    195 H195       -1.6503  -25.5568  -45.0502 H         1 UNK         0.3000 
    196 H196       -4.4295  -26.3145  -45.1925 H         1 UNK         0.0600 
    197 H197       -2.8493  -27.3778  -43.6042 H         1 UNK         0.0600 
    198 H198       -1.8881  -28.0116  -44.9408 H         1 UNK         0.0600 
    199 H199       -3.5308  -28.5864  -44.6809 H         1 UNK         0.0600 
    200 H200       -1.7173  -26.4713  -47.4671 H         1 UNK         0.3000 
    201 H201       -3.1311  -28.2416  -49.3622 H         1 UNK         0.0600 
    202 H202       -0.6808  -28.5206  -49.0355 H         1 UNK         0.0600 
    203 H203       -0.4026  -26.8496  -49.5233 H         1 UNK         0.0600 
    204 H204       -1.0372  -28.0131  -50.6794 H         1 UNK         0.0600 
    205 H205       -2.0834  -24.8531  -48.9988 H         1 UNK         0.3000 
    206 H206       -3.1455  -23.9177  -51.5109 H         1 UNK         0.0600 
    207 H207       -1.2525  -22.8140  -50.3757 H         1 UNK         0.0600 
    208 H208       -2.2445  -22.4688  -48.9635 H         1 UNK         0.0600 
    209 H209       -2.5787  -21.6737  -50.4996 H         1 UNK         0.0600 
    210 H210       -4.6994  -24.7045  -48.5787 H         1 UNK         0.3000 
    211 H211       -6.6971  -24.4225  -47.6675 H         1 UNK         0.0600 
    212 H212       -7.6484  -23.6466  -50.4788 H         1 UNK         0.0600 
    213 H213       -8.6734  -24.1606  -49.1464 H         1 UNK         0.0600 
    214 H214       -7.5276  -25.2878  -49.8548 H         1 UNK         0.0600 
    215 H215       -4.9892  -22.4536  -47.1726 H         1 UNK         0.3000 
    216 H216       -4.5760  -20.3694  -46.5442 H         1 UNK         0.0600 
    217 H217       -6.3755  -19.0751  -45.4552 H         1 UNK         0.0600 
    218 H218       -6.5054  -20.7723  -45.0222 H         1 UNK         0.0600 
    219 H219       -7.6078  -20.0766  -46.2101 H         1 UNK         0.0600 
    220 H220       -4.3102  -20.6230  -49.1437 H         1 UNK         0.3000 
    221 H221       -3.9071  -19.5589  -51.0362 H         1 UNK         0.0600 
    222 H222       -4.7277  -16.9479  -49.6633 H         1 UNK         0.0600 
    223 H223       -3.1237  -17.6676  -49.5727 H         1 UNK         0.0600 
    224 H224       -3.7524  -17.1140  -51.1124 H         1 UNK         0.0600 
    225 H225       -6.2239  -20.9160  -50.9745 H         1 UNK         0.3000 
    226 H226       -8.0499  -19.3279  -52.7566 H         1 UNK         0.0600 
    227 H227       -9.1450  -19.8896  -50.5731 H         1 UNK         0.0600 
    228 H228       -9.9050  -20.7132  -51.9281 H         1 UNK         0.0600 
    229 H229       -8.8283  -21.5985  -50.8571 H         1 UNK         0.0600 
    230 H230       -6.3378  -22.3953  -52.1385 H         1 UNK         0.3000 
    231 H231       -7.1263  -23.4682  -54.8070 H         1 UNK         0.0600 
    232 H232       -6.2922  -25.6054  -53.8997 H         1 UNK         0.0600 
    233 H233       -5.7722  -24.8250  -52.4148 H         1 UNK         0.0600 
    234 H234       -7.4878  -24.9323  -52.8041 H         1 UNK         0.0600 
    235 H235       -4.7519  -21.5286  -53.4785 H         1 UNK         0.3000 
    236 H236       -2.9110  -21.9796  -55.6620 H         1 UNK         0.0600 
    237 H237       -1.8653  -22.1192  -52.7750 H         1 UNK         0.0600 
    238 H238       -2.0350  -23.5354  -53.8130 H         1 UNK         0.0600 
    239 H239       -0.9133  -22.2575  -54.2422 H         1 UNK         0.0600 
    240 H240       -1.0726  -20.2487  -55.2970 H         1 UNK         0.3000 
    241 H241       -0.3960  -18.1770  -55.1770 H         1 UNK         0.0600 
    242 H242       -3.2942  -17.4124  -57.6594 H         1 UNK         0.3800 
    243 H243       -2.9051  -18.9731  -56.9862 H         1 UNK         0.3800 
    244 H244       -2.5775  -17.4054  -53.1998 H         1 UNK         0.0800 
    245 H245       -1.1070  -16.5367  -53.5132 H         1 UNK         0.0800 
    246 H246        1.0354  -16.8255  -52.3767 H         1 UNK         0.0800 
    247 H247        1.4299  -18.2999  -53.2347 H         1 UNK         0.0800 
@<TRIPOS>BOND
     1    1    2 1    
     2    1  127 1    
     3    1  128 1    
     4    1  129 1    
     5    2    3 2    
     6    2    4 am   BACKBONE|DICT|INTERRES
     7    4    5 1    
     8    4  130 1    
     9    5    6 1    
    10    5   65 1    
    11    5  131 1    
    12    6    7 1    
    13    6  132 1    
    14    6  133 1    
    15    7    8 1    
    16    8    9 1    
    17    8  134 1    
    18    8  135 1    
    19    9   10 ar   
    20    9   14 ar   
    21   10   11 ar   
    22   10  136 1    
    23   11   12 ar   
    24   11  126 1    
    25   12   13 ar   
    26   12  137 1    
    27   13   14 ar   
    28   13   15 1    
    29   14  138 1    
    30   15   16 1    
    31   15  139 1    
    32   15  140 1    
    33   16   17 1    
    34   17   18 1    
    35   17  141 1    
    36   17  142 1    
    37   18   19 1    
    38   18   67 1    
    39   18  143 1    
    40   19   20 am   BACKBONE|DICT|INTERRES
    41   19  144 1    
    42   20   21 2    
    43   20   22 1    
    44   22   23 1    
    45   22   24 1    
    46   22  145 1    
    47   23  146 1    
    48   23  147 1    
    49   23  148 1    
    50   24   25 am   BACKBONE|DICT|INTERRES
    51   24  149 1    
    52   25   26 2    
    53   25   27 1    
    54   27   28 1    
    55   27   29 1    
    56   27  150 1    
    57   28  151 1    
    58   28  152 1    
    59   28  153 1    
    60   29   30 am   BACKBONE|DICT|INTERRES
    61   29  154 1    
    62   30   31 2    
    63   30   32 1    
    64   32   33 1    
    65   32   34 1    
    66   32  155 1    
    67   33  156 1    
    68   33  157 1    
    69   33  158 1    
    70   34   35 am   BACKBONE|DICT|INTERRES
    71   34  159 1    
    72   35   36 2    
    73   35   37 1    
    74   37   38 1    
    75   37   39 1    
    76   37  160 1    
    77   38  161 1    
    78   38  162 1    
    79   38  163 1    
    80   39   40 am   BACKBONE|DICT|INTERRES
    81   39  164 1    
    82   40   41 2    
    83   40   42 1    
    84   42   43 1    
    85   42   44 1    
    86   42  165 1    
    87   43  166 1    
    88   43  167 1    
    89   43  168 1    
    90   44   45 am   BACKBONE|DICT|INTERRES
    91   44  169 1    
    92   45   46 2    
    93   45   47 1    
    94   47   48 1    
    95   47   49 1    
    96   47  170 1    
    97   48  171 1    
    98   48  172 1    
    99   48  173 1    
   100   49   50 am   BACKBONE|DICT|INTERRES
   101   49  174 1    
   102   50   51 2    
   103   50   52 1    
   104   52   53 1    
   105   52   54 1    
   106   52  175 1    
   107   53  176 1    
   108   53  177 1    
   109   53  178 1    
   110   54   55 am   BACKBONE|DICT|INTERRES
   111   54  179 1    
   112   55   56 2    
   113   55   57 1    
   114   57   58 1    
   115   57   59 1    
   116   57  180 1    
   117   58  181 1    
   118   58  182 1    
   119   58  183 1    
   120   59   60 am   BACKBONE|DICT|INTERRES
   121   59  184 1    
   122   60   61 2    
   123   60   62 1    
   124   62   63 1    
   125   62   64 1    
   126   62  185 1    
   127   63  186 1    
   128   63  187 1    
   129   63  188 1    
   130   64   65 am   BACKBONE|DICT|INTERRES
   131   64  189 1    
   132   65   66 2    
   133   67   68 2    
   134   67   69 am   BACKBONE|DICT|INTERRES
   135   69   70 1    
   136   69  190 1    
   137   70   71 1    
   138   70   72 1    
   139   70  191 1    
   140   71  192 1    
   141   71  193 1    
   142   71  194 1    
   143   72   73 2    
   144   72   74 am   BACKBONE|DICT|INTERRES
   145   74   75 1    
   146   74  195 1    
   147   75   76 1    
   148   75   77 1    
   149   75  196 1    
   150   76  197 1    
   151   76  198 1    
   152   76  199 1    
   153   77   78 2    
   154   77   79 am   BACKBONE|DICT|INTERRES
   155   79   80 1    
   156   79  200 1    
   157   80   81 1    
   158   80   82 1    
   159   80  201 1    
   160   81  202 1    
   161   81  203 1    
   162   81  204 1    
   163   82   83 2    
   164   82   84 am   BACKBONE|DICT|INTERRES
   165   84   85 1    
   166   84  205 1    
   167   85   86 1    
   168   85   87 1    
   169   85  206 1    
   170   86  207 1    
   171   86  208 1    
   172   86  209 1    
   173   87   88 2    
   174   87   89 am   BACKBONE|DICT|INTERRES
   175   89   90 1    
   176   89  210 1    
   177   90   91 1    
   178   90   92 1    
   179   90  211 1    
   180   91  212 1    
   181   91  213 1    
   182   91  214 1    
   183   92   93 2    
   184   92   94 am   BACKBONE|DICT|INTERRES
   185   94   95 1    
   186   94  215 1    
   187   95   96 1    
   188   95   97 1    
   189   95  216 1    
   190   96  217 1    
   191   96  218 1    
   192   96  219 1    
   193   97   98 2    
   194   97   99 am   BACKBONE|DICT|INTERRES
   195   99  100 1    
   196   99  220 1    
   197  100  101 1    
   198  100  102 1    
   199  100  221 1    
   200  101  222 1    
   201  101  223 1    
   202  101  224 1    
   203  102  103 2    
   204  102  104 am   BACKBONE|DICT|INTERRES
   205  104  105 1    
   206  104  225 1    
   207  105  106 1    
   208  105  107 1    
   209  105  226 1    
   210  106  227 1    
   211  106  228 1    
   212  106  229 1    
   213  107  108 2    
   214  107  109 am   BACKBONE|DICT|INTERRES
   215  109  110 1    
   216  109  230 1    
   217  110  111 1    
   218  110  112 1    
   219  110  231 1    
   220  111  232 1    
   221  111  233 1    
   222  111  234 1    
   223  112  113 2    
   224  112  114 am   BACKBONE|DICT|INTERRES
   225  114  115 1    
   226  114  235 1    
   227  115  116 1    
   228  115  117 1    
   229  115  236 1    
   230  116  237 1    
   231  116  238 1    
   232  116  239 1    
   233  117  118 2    
   234  117  119 am   BACKBONE|DICT|INTERRES
   235  119  120 1    
   236  119  240 1    
   237  120  121 1    
   238  120  124 1    
   239  120  241 1    
   240  121  122 am   BACKBONE|DICT|INTERRES
   241  121  123 2    
   242  122  242 1    
   243  122  243 1    
   244  124  125 1    
   245  124  244 1    
   246  124  245 1    
   247  125  126 1    
   248  126  246 1    
   249  126  247 1    
@<TRIPOS>SUBSTRUCTURE
     1 UNK         1 GROUP             0       ****    0 ROOT    
