@<TRIPOS>MOLECULE
3R540
247   249    1
SMALL
USER_CHARGES


@<TRIPOS>ATOM
      1 CA         -0.6327  -10.4915  -51.1949 C.3       0 UNK        -0.1800 
      2 C           0.4401  -11.1555  -52.0470 C.2       0 UNK         0.5000 
      3 O           1.2739  -10.4649  -52.6342 O.2       0 UNK        -0.5000 
      4 N           0.4147  -12.4909  -52.1194 N.am      1 UNK        -0.5000 
      5 CA          1.4184  -13.3210  -52.7910 C.3       1 UNK         0.1400 
      6 C6          0.8144  -14.6937  -53.1973 C.3       23 UNK        -0.0398 
      7 S7          0.5212  -15.8226  -51.7934 S.3       23 UNK        -0.2404 
      8 C8         -1.2873  -15.8423  -51.6420 C.3       23 UNK        -0.0205 
      9 C9         -1.6792  -16.4763  -50.3177 C.ar      23 UNK        -0.0193 
     10 C10        -2.1506  -15.6882  -49.2641 C.ar      23 UNK        -0.1150 
     11 C11        -2.4303  -16.2567  -48.0162 C.ar      23 UNK        -0.0193 
     12 C12        -2.2486  -17.6322  -47.8383 C.ar      23 UNK        -0.1150 
     13 C13        -1.7667  -18.4300  -48.8828 C.ar      23 UNK        -0.0193 
     14 C14        -1.5022  -17.8476  -50.1238 C.ar      23 UNK        -0.1150 
     15 C15        -1.5026  -19.9153  -48.6806 C.3       23 UNK        -0.0205 
     16 S16        -0.1171  -20.2171  -47.5448 S.3       23 UNK        -0.2404 
     17 C17        -1.0210  -20.5934  -46.0088 C.3       23 UNK        -0.0398 
     18 CA         -1.0833  -22.1103  -45.7207 C.3       11 UNK         0.1400 
     19 N          -1.2915  -22.3720  -44.2994 N.am      11 UNK        -0.5000 
     20 C          -1.2074  -23.5712  -43.7111 C.2       10 UNK         0.5000 
     21 O          -0.9460  -24.6134  -44.3131 O.2       10 UNK        -0.5000 
     22 CA         -1.5105  -23.6034  -42.2050 C.3       10 UNK         0.1400 
     23 CB         -0.2893  -23.1458  -41.3926 C.3       10 UNK        -0.1800 
     24 N          -2.6569  -22.7529  -41.8825 N.am      10 UNK        -0.5000 
     25 C          -3.9332  -23.0986  -42.0992 C.2       9 UNK         0.5000 
     26 O          -4.2788  -24.1983  -42.5319 O.2       9 UNK        -0.5000 
     27 CA         -5.0011  -22.0272  -41.8046 C.3       9 UNK         0.1400 
     28 CB         -5.3882  -22.0445  -40.3182 C.3       9 UNK        -0.1800 
     29 N          -4.5826  -20.6737  -42.1790 N.am      9 UNK        -0.5000 
     30 C          -4.3748  -20.2689  -43.4396 C.2       8 UNK         0.5000 
     31 O          -4.5052  -20.9970  -44.4209 O.2       8 UNK        -0.5000 
     32 CA         -3.8915  -18.8214  -43.6426 C.3       8 UNK         0.1400 
     33 CB         -5.0834  -17.8577  -43.7403 C.3       8 UNK        -0.1800 
     34 N          -2.9520  -18.3405  -42.6245 N.am      8 UNK        -0.5000 
     35 C          -1.7845  -18.9235  -42.3226 C.2       7 UNK         0.5000 
     36 O          -1.4324  -20.0236  -42.7530 O.2       7 UNK        -0.5000 
     37 CA         -0.8420  -18.1559  -41.3813 C.3       7 UNK         0.1400 
     38 CB         -0.7969  -18.8294  -40.0014 C.3       7 UNK        -0.1800 
     39 N           0.5096  -18.1081  -41.9408 N.am      7 UNK        -0.5000 
     40 C           0.8423  -17.4482  -43.0583 C.2       6 UNK         0.5000 
     41 O           0.0602  -16.7299  -43.6861 O.2       6 UNK        -0.5000 
     42 CA          2.2768  -17.6652  -43.5745 C.3       6 UNK         0.1400 
     43 CB          2.3395  -18.9221  -44.4572 C.3       6 UNK        -0.1800 
     44 N           2.7498  -16.5168  -44.3471 N.am      6 UNK        -0.5000 
     45 C           3.1296  -15.3473  -43.8102 C.2       5 UNK         0.5000 
     46 O           3.2131  -15.1547  -42.5960 O.2       5 UNK        -0.5000 
     47 CA          3.4843  -14.1958  -44.7764 C.3       5 UNK         0.1400 
     48 CB          5.0063  -14.1000  -44.9639 C.3       5 UNK        -0.1800 
     49 N           2.8568  -14.3320  -46.0898 N.am      5 UNK        -0.5000 
     50 C           1.5452  -14.2059  -46.3313 C.2       4 UNK         0.5000 
     51 O           0.7398  -13.7957  -45.4953 O.2       4 UNK        -0.5000 
     52 CA          1.0386  -14.6133  -47.7310 C.3       4 UNK         0.1400 
     53 CB          0.4617  -13.4001  -48.4768 C.3       4 UNK        -0.1800 
     54 N           2.0244  -15.2853  -48.5872 N.am      4 UNK        -0.5000 
     55 C           2.5585  -16.4935  -48.3475 C.2       3 UNK         0.5000 
     56 O           2.3875  -17.1055  -47.2934 O.2       3 UNK        -0.5000 
     57 CA          3.4432  -17.1274  -49.4387 C.3       3 UNK         0.1400 
     58 CB          2.7564  -18.3703  -50.0229 C.3       3 UNK        -0.1800 
     59 N           3.7716  -16.2087  -50.5310 N.am      3 UNK        -0.5000 
     60 C           4.7972  -15.3459  -50.5188 C.2       2 UNK         0.5000 
     61 O           5.5834  -15.2373  -49.5774 O.2       2 UNK        -0.5000 
     62 CA          4.9719  -14.4429  -51.7602 C.3       2 UNK         0.1400 
     63 CB          5.9586  -15.0813  -52.7498 C.3       2 UNK        -0.1800 
     64 N           3.7200  -14.1403  -52.4639 N.am      2 UNK        -0.5000 
     65 C           2.6994  -13.4570  -51.9278 C.2       1 UNK         0.5000 
     66 O           2.7336  -13.0007  -50.7822 O.2       1 UNK        -0.5000 
     67 C          -2.1131  -22.8403  -46.6123 C.2       11 UNK         0.5000 
     68 O          -1.7440  -23.3069  -47.6873 O.2       11 UNK        -0.5000 
     69 N          -3.3616  -22.9821  -46.1416 N.am      12 UNK        -0.5000 
     70 CA         -4.4212  -23.7553  -46.7969 C.3       12 UNK         0.1400 
     71 CB         -5.7353  -23.5995  -46.0137 C.3       12 UNK        -0.1800 
     72 C          -4.0828  -25.2496  -46.9450 C.2       12 UNK         0.5000 
     73 O          -4.4148  -25.8460  -47.9696 O.2       12 UNK        -0.5000 
     74 N          -3.4250  -25.8208  -45.9264 N.am      13 UNK        -0.5000 
     75 CA         -2.9667  -27.2092  -45.9220 C.3       13 UNK         0.1400 
     76 CB         -2.6980  -27.6575  -44.4771 C.3       13 UNK        -0.1800 
     77 C          -1.7205  -27.4057  -46.8030 C.2       13 UNK         0.5000 
     78 O          -1.6152  -28.4268  -47.4836 O.2       13 UNK        -0.5000 
     79 N          -0.8077  -26.4242  -46.7829 N.am      14 UNK        -0.5000 
     80 CA          0.4047  -26.4058  -47.6028 C.3       14 UNK         0.1400 
     81 CB          1.3571  -25.3227  -47.0718 C.3       14 UNK        -0.1800 
     82 C           0.1151  -26.1773  -49.0990 C.2       14 UNK         0.5000 
     83 O           0.7705  -26.7895  -49.9429 O.2       14 UNK        -0.5000 
     84 N          -0.8469  -25.2879  -49.3868 N.am      15 UNK        -0.5000 
     85 CA         -1.2461  -24.7820  -50.7037 C.3       15 UNK         0.1400 
     86 CB         -1.9164  -25.8877  -51.5434 C.3       15 UNK        -0.1800 
     87 C          -0.0929  -24.0631  -51.4363 C.2       15 UNK         0.5000 
     88 O           0.0472  -24.1880  -52.6548 O.2       15 UNK        -0.5000 
     89 N           0.7294  -23.3374  -50.6661 N.am      16 UNK        -0.5000 
     90 CA          1.8649  -22.5580  -51.1492 C.3       16 UNK         0.1400 
     91 CB          2.7379  -22.1532  -49.9513 C.3       16 UNK        -0.1800 
     92 C           1.3754  -21.3250  -51.9251 C.2       16 UNK         0.5000 
     93 O           0.6556  -20.5050  -51.3579 O.2       16 UNK        -0.5000 
     94 N           1.7404  -21.2362  -53.2111 N.am      17 UNK        -0.5000 
     95 CA          1.3600  -20.2160  -54.2020 C.3       17 UNK         0.1400 
     96 CB          1.8044  -18.8068  -53.7641 C.3       17 UNK        -0.1800 
     97 C          -0.1317  -20.2287  -54.6049 C.2       17 UNK         0.5000 
     98 O          -0.4340  -20.0650  -55.7878 O.2       17 UNK        -0.5000 
     99 N          -1.0305  -20.4429  -53.6413 N.am      18 UNK        -0.5000 
    100 CA        -2.4717  -20.5679  -53.8065 C.3       18 UNK         0.1400 
    101 CB        -3.1122  -19.1687  -53.7949 C.3       18 UNK        -0.1800 
    102 C         -3.0243  -21.4239  -52.6597 C.2       18 UNK         0.5000 
    103 O         -2.3957  -21.5225  -51.6043 O.2       18 UNK        -0.5000 
    104 N         -4.2235  -21.9851  -52.8462 N.am      19 UNK        -0.5000 
    105 CA        -4.9627  -22.7332  -51.8247 C.3       19 UNK         0.1400 
    106 CB        -5.9401  -23.6942  -52.5246 C.3       19 UNK        -0.1800 
    107 C         -5.6620  -21.7804  -50.8289 C.2       19 UNK         0.5000 
    108 O         -6.8881  -21.7977  -50.7157 O.2       19 UNK        -0.5000 
    109 N         -4.8540  -20.9488  -50.1554 N.am      20 UNK        -0.5000 
    110 CA        -5.2302  -19.8732  -49.2350 C.3       20 UNK         0.1400 
    111 CB        -5.8320  -20.4228  -47.9293 C.3       20 UNK        -0.1800 
    112 C         -6.1045  -18.7990  -49.9011 C.2       20 UNK         0.5000 
    113 O         -7.3083  -18.7240  -49.6471 O.2       20 UNK        -0.5000 
    114 N         -5.4597  -17.9471  -50.7128 N.am      21 UNK        -0.5000 
    115 CA        -6.0664  -16.7685  -51.3479 C.3       21 UNK         0.1400 
    116 CB        -5.0285  -16.0925  -52.2556 C.3       21 UNK        -0.1800 
    117 C         -6.6420  -15.7488  -50.3406 C.2       21 UNK         0.5000 
    118 O         -7.5609  -15.0048  -50.6850 O.2       21 UNK        -0.5000 
    119 N         -6.1153  -15.7661  -49.1094 N.am      22 UNK        -0.5000 
    120 CA        -6.6539  -15.0638  -47.9365 C.3       22 UNK         0.1400 
    121 C         -8.0319  -15.5924  -47.4315 C.2       22 UNK         0.5000 
    122 N         -8.5157  -16.7529  -47.8606 N.am      22 UNK        -0.7600 
    123 O         -8.6817  -14.9270  -46.6298 O.2       22 UNK        -0.5000 
    124 C124       -5.6307  -15.0518  -46.7735 C.3       23 UNK        -0.0398 
    125 S125       -4.1021  -14.1471  -47.1886 S.3       23 UNK        -0.2404 
    126 C126       -2.8049  -15.3771  -46.8262 C.3       23 UNK        -0.0205 
    127 H127       -1.2359   -9.8196  -51.8054 H         1 UNK         0.0600 
    128 H128       -0.1701   -9.9087  -50.3983 H         1 UNK         0.0600 
    129 H129       -1.2973  -11.2241  -50.7359 H         1 UNK         0.0600 
    130 H130       -0.2721  -12.9990  -51.5840 H         1 UNK         0.3000 
    131 H131        1.7125  -12.8112  -53.7109 H         1 UNK         0.0600 
    132 H132       -0.1150  -14.5465  -53.7492 H         1 UNK         0.0800 
    133 H133        1.4809  -15.2032  -53.8945 H         1 UNK         0.0800 
    134 H134       -1.6784  -14.8267  -51.7133 H         1 UNK         0.0800 
    135 H135       -1.7170  -16.4077  -52.4700 H         1 UNK         0.0800 
    136 H136       -2.2571  -14.6216  -49.4003 H         1 UNK         0.1150 
    137 H137       -2.4334  -18.0727  -46.8705 H         1 UNK         0.1150 
    138 H138       -1.1094  -18.4531  -50.9295 H         1 UNK         0.1150 
    139 H139       -2.4011  -20.4195  -48.3287 H         1 UNK         0.0800 
    140 H140       -1.2526  -20.3874  -49.6289 H         1 UNK         0.0800 
    141 H141       -2.0182  -20.1543  -46.0163 H         1 UNK         0.0800 
    142 H142       -0.4795  -20.0845  -45.2110 H         1 UNK         0.0800 
    143 H143       -0.1046  -22.5326  -45.9565 H         1 UNK         0.0600 
    144 H144       -1.4721  -21.5586  -43.7143 H         1 UNK         0.3000 
    145 H145       -1.7393  -24.6345  -41.9267 H         1 UNK         0.0600 
    146 H146       -0.4839  -23.2072  -40.3218 H         1 UNK         0.0600 
    147 H147        0.5758  -23.7761  -41.6026 H         1 UNK         0.0600 
    148 H148       -0.0092  -22.1172  -41.6233 H         1 UNK         0.0600 
    149 H149       -2.4528  -21.8086  -41.5866 H         1 UNK         0.3000 
    150 H150       -5.8883  -22.2783  -42.3901 H         1 UNK         0.0600 
    151 H151       -5.7233  -23.0370  -40.0138 H         1 UNK         0.0600 
    152 H152       -6.2045  -21.3511  -40.1151 H         1 UNK         0.0600 
    153 H153       -4.5477  -21.7713  -39.6789 H         1 UNK         0.0600 
    154 H154       -4.4387  -20.0127  -41.4300 H         1 UNK         0.3000 
    155 H155       -3.3652  -18.7912  -44.5979 H         1 UNK         0.0600 
    156 H156       -5.6374  -17.8066  -42.8023 H         1 UNK         0.0600 
    157 H157       -4.7568  -16.8489  -43.9932 H         1 UNK         0.0600 
    158 H158       -5.7805  -18.1757  -44.5172 H         1 UNK         0.0600 
    159 H159       -3.1653  -17.4436  -42.2126 H         1 UNK         0.3000 
    160 H160       -1.2030  -17.1324  -41.2607 H         1 UNK         0.0600 
    161 H161       -0.4284  -19.8545  -40.0636 H         1 UNK         0.0600 
    162 H162       -1.7899  -18.8646  -39.5514 H         1 UNK         0.0600 
    163 H163       -0.1499  -18.2816  -39.3161 H         1 UNK         0.0600 
    164 H164        1.1939  -18.7076  -41.5036 H         1 UNK         0.3000 
    165 H165        2.9409  -17.8082  -42.7195 H         1 UNK         0.0600 
    166 H166        3.3526  -19.1041  -44.8157 H         1 UNK         0.0600 
    167 H167        2.0237  -19.8083  -43.9051 H         1 UNK         0.0600 
    168 H168        1.6892  -18.8316  -45.3279 H         1 UNK         0.0600 
    169 H169        2.6556  -16.5906  -45.3554 H         1 UNK         0.3000 
    170 H170        3.1347  -13.2654  -44.3243 H         1 UNK         0.0600 
    171 H171        5.5107  -13.9699  -44.0056 H         1 UNK         0.0600 
    172 H172        5.4115  -14.9995  -45.4292 H         1 UNK         0.0600 
    173 H173        5.2743  -13.2481  -45.5893 H         1 UNK         0.0600 
    174 H174        3.4416  -14.6682  -46.8407 H         1 UNK         0.3000 
    175 H175        0.2303  -15.3273  -47.5698 H         1 UNK         0.0600 
    176 H176        0.0858  -13.6831  -49.4589 H         1 UNK         0.0600 
    177 H177        1.2110  -12.6202  -48.6144 H         1 UNK         0.0600 
    178 H178       -0.3712  -12.9616  -47.9258 H         1 UNK         0.0600 
    179 H179        2.2504  -14.8194  -49.4562 H         1 UNK         0.3000 
    180 H180        4.3672  -17.4544  -48.9574 H         1 UNK         0.0600 
    181 H181        1.7917  -18.1278  -50.4681 H         1 UNK         0.0600 
    182 H182        2.5693  -19.1123  -49.2460 H         1 UNK         0.0600 
    183 H183        3.3705  -18.8468  -50.7868 H         1 UNK         0.0600 
    184 H184        3.1535  -16.2203  -51.3296 H         1 UNK         0.3000 
    185 H185        5.3979  -13.4977  -51.4170 H         1 UNK         0.0600 
    186 H186        6.9129  -15.2959  -52.2667 H         1 UNK         0.0600 
    187 H187        5.5754  -16.0206  -53.1507 H         1 UNK         0.0600 
    188 H188        6.1639  -14.4157  -53.5884 H         1 UNK         0.0600 
    189 H189        3.6410  -14.4932  -53.4065 H         1 UNK         0.3000 
    190 H190       -3.6238  -22.4948  -45.2897 H         1 UNK         0.3000 
    191 H191       -4.5630  -23.3466  -47.7995 H         1 UNK         0.0600 
    192 H192       -5.6394  -23.9692  -44.9922 H         1 UNK         0.0600 
    193 H193       -6.5424  -24.1571  -46.4903 H         1 UNK         0.0600 
    194 H194       -6.0542  -22.5601  -45.9582 H         1 UNK         0.0600 
    195 H195       -3.1691  -25.2528  -45.1305 H         1 UNK         0.3000 
    196 H196       -3.7636  -27.8382  -46.3248 H         1 UNK         0.0600 
    197 H197       -2.4040  -28.7073  -44.4448 H         1 UNK         0.0600 
    198 H198       -3.5894  -27.5499  -43.8588 H         1 UNK         0.0600 
    199 H199       -1.8980  -27.0802  -44.0135 H         1 UNK         0.0600 
    200 H200       -0.9485  -25.6458  -46.1488 H         1 UNK         0.3000 
    201 H201        0.8998  -27.3737  -47.5004 H         1 UNK         0.0600 
    202 H202        1.5983  -25.4883  -46.0216 H         1 UNK         0.0600 
    203 H203        0.9250  -24.3262  -47.1630 H         1 UNK         0.0600 
    204 H204        2.2961  -25.3234  -47.6268 H         1 UNK         0.0600 
    205 H205       -1.2718  -24.7871  -48.6084 H         1 UNK         0.3000 
    206 H206       -1.9988  -24.0171  -50.5102 H         1 UNK         0.0600 
    207 H207       -2.3351  -25.4780  -52.4633 H         1 UNK         0.0600 
    208 H208       -1.2093  -26.6690  -51.8232 H         1 UNK         0.0600 
    209 H209       -2.7346  -26.3546  -50.9948 H         1 UNK         0.0600 
    210 H210        0.5038  -23.2442  -49.6868 H         1 UNK         0.3000 
    211 H211        2.4626  -23.1887  -51.8104 H         1 UNK         0.0600 
    212 H212        2.1780  -21.5581  -49.2288 H         1 UNK         0.0600 
    213 H213        3.5932  -21.5586  -50.2745 H         1 UNK         0.0600 
    214 H214        3.1265  -23.0296  -49.4322 H         1 UNK         0.0600 
    215 H215        2.2940  -21.9933  -53.5873 H         1 UNK         0.3000 
    216 H216        1.9233  -20.4651  -55.1027 H         1 UNK         0.0600 
    217 H217        1.6273  -18.0786  -54.5562 H         1 UNK         0.0600 
    218 H218        2.8679  -18.7807  -53.5270 H         1 UNK         0.0600 
    219 H219        1.2565  -18.4665  -52.8864 H         1 UNK         0.0600 
    220 H220       -0.6950  -20.5791  -52.6886 H         1 UNK         0.3000 
    221 H221       -2.6894  -21.0708  -54.7509 H         1 UNK         0.0600 
    222 H222       -2.9079  -18.6460  -52.8599 H         1 UNK         0.0600 
    223 H223       -2.7339  -18.5525  -54.6106 H         1 UNK         0.0600 
    224 H224       -4.1951  -19.2289  -53.9092 H         1 UNK         0.0600 
    225 H225       -4.7053  -21.8329  -53.7207 H         1 UNK         0.3000 
    226 H226       -4.2630  -23.3431  -51.2494 H         1 UNK         0.0600 
    227 H227       -5.4097  -24.3877  -53.1775 H         1 UNK         0.0600 
    228 H228       -6.4886  -24.2927  -51.7961 H         1 UNK         0.0600 
    229 H229       -6.6723  -23.1571  -53.1289 H         1 UNK         0.0600 
    230 H230       -3.8651  -21.0175  -50.3776 H         1 UNK         0.3000 
    231 H231       -4.3126  -19.3632  -48.9556 H         1 UNK         0.0600 
    232 H232       -6.1619  -19.6137  -47.2763 H         1 UNK         0.0600 
    233 H233       -5.0836  -20.9868  -47.3763 H         1 UNK         0.0600 
    234 H234       -6.6902  -21.0707  -48.1079 H         1 UNK         0.0600 
    235 H235       -4.4704  -18.0747  -50.8663 H         1 UNK         0.3000 
    236 H236       -6.8932  -17.1175  -51.9698 H         1 UNK         0.0600 
    237 H237       -4.6497  -16.7801  -53.0109 H         1 UNK         0.0600 
    238 H238       -5.4667  -15.2443  -52.7831 H         1 UNK         0.0600 
    239 H239       -4.1824  -15.7160  -51.6818 H         1 UNK         0.0600 
    240 H240       -5.3345  -16.3795  -48.9356 H         1 UNK         0.3000 
    241 H241       -6.8278  -14.0287  -48.2365 H         1 UNK         0.0600 
    242 H242       -9.4110  -17.0634  -47.5189 H         1 UNK         0.3800 
    243 H243       -8.0144  -17.3318  -48.5279 H         1 UNK         0.3800 
    244 H244       -6.0542  -14.5674  -45.8917 H         1 UNK         0.0800 
    245 H245       -5.3936  -16.0733  -46.4721 H         1 UNK         0.0800 
    246 H246       -1.9103  -14.8368  -46.5150 H         1 UNK         0.0800 
    247 H247       -3.0978  -15.9805  -45.9658 H         1 UNK         0.0800 
@<TRIPOS>BOND
     1    1    2 1    
     2    1  127 1    
     3    1  128 1    
     4    1  129 1    
     5    2    3 2    
     6    2    4 am   BACKBONE|DICT|INTERRES
     7    4    5 1    
     8    4  130 1    
     9    5    6 1    
    10    5   65 1    
    11    5  131 1    
    12    6    7 1    
    13    6  132 1    
    14    6  133 1    
    15    7    8 1    
    16    8    9 1    
    17    8  134 1    
    18    8  135 1    
    19    9   10 ar   
    20    9   14 ar   
    21   10   11 ar   
    22   10  136 1    
    23   11   12 ar   
    24   11  126 1    
    25   12   13 ar   
    26   12  137 1    
    27   13   14 ar   
    28   13   15 1    
    29   14  138 1    
    30   15   16 1    
    31   15  139 1    
    32   15  140 1    
    33   16   17 1    
    34   17   18 1    
    35   17  141 1    
    36   17  142 1    
    37   18   19 1    
    38   18   67 1    
    39   18  143 1    
    40   19   20 am   BACKBONE|DICT|INTERRES
    41   19  144 1    
    42   20   21 2    
    43   20   22 1    
    44   22   23 1    
    45   22   24 1    
    46   22  145 1    
    47   23  146 1    
    48   23  147 1    
    49   23  148 1    
    50   24   25 am   BACKBONE|DICT|INTERRES
    51   24  149 1    
    52   25   26 2    
    53   25   27 1    
    54   27   28 1    
    55   27   29 1    
    56   27  150 1    
    57   28  151 1    
    58   28  152 1    
    59   28  153 1    
    60   29   30 am   BACKBONE|DICT|INTERRES
    61   29  154 1    
    62   30   31 2    
    63   30   32 1    
    64   32   33 1    
    65   32   34 1    
    66   32  155 1    
    67   33  156 1    
    68   33  157 1    
    69   33  158 1    
    70   34   35 am   BACKBONE|DICT|INTERRES
    71   34  159 1    
    72   35   36 2    
    73   35   37 1    
    74   37   38 1    
    75   37   39 1    
    76   37  160 1    
    77   38  161 1    
    78   38  162 1    
    79   38  163 1    
    80   39   40 am   BACKBONE|DICT|INTERRES
    81   39  164 1    
    82   40   41 2    
    83   40   42 1    
    84   42   43 1    
    85   42   44 1    
    86   42  165 1    
    87   43  166 1    
    88   43  167 1    
    89   43  168 1    
    90   44   45 am   BACKBONE|DICT|INTERRES
    91   44  169 1    
    92   45   46 2    
    93   45   47 1    
    94   47   48 1    
    95   47   49 1    
    96   47  170 1    
    97   48  171 1    
    98   48  172 1    
    99   48  173 1    
   100   49   50 am   BACKBONE|DICT|INTERRES
   101   49  174 1    
   102   50   51 2    
   103   50   52 1    
   104   52   53 1    
   105   52   54 1    
   106   52  175 1    
   107   53  176 1    
   108   53  177 1    
   109   53  178 1    
   110   54   55 am   BACKBONE|DICT|INTERRES
   111   54  179 1    
   112   55   56 2    
   113   55   57 1    
   114   57   58 1    
   115   57   59 1    
   116   57  180 1    
   117   58  181 1    
   118   58  182 1    
   119   58  183 1    
   120   59   60 am   BACKBONE|DICT|INTERRES
   121   59  184 1    
   122   60   61 2    
   123   60   62 1    
   124   62   63 1    
   125   62   64 1    
   126   62  185 1    
   127   63  186 1    
   128   63  187 1    
   129   63  188 1    
   130   64   65 am   BACKBONE|DICT|INTERRES
   131   64  189 1    
   132   65   66 2    
   133   67   68 2    
   134   67   69 am   BACKBONE|DICT|INTERRES
   135   69   70 1    
   136   69  190 1    
   137   70   71 1    
   138   70   72 1    
   139   70  191 1    
   140   71  192 1    
   141   71  193 1    
   142   71  194 1    
   143   72   73 2    
   144   72   74 am   BACKBONE|DICT|INTERRES
   145   74   75 1    
   146   74  195 1    
   147   75   76 1    
   148   75   77 1    
   149   75  196 1    
   150   76  197 1    
   151   76  198 1    
   152   76  199 1    
   153   77   78 2    
   154   77   79 am   BACKBONE|DICT|INTERRES
   155   79   80 1    
   156   79  200 1    
   157   80   81 1    
   158   80   82 1    
   159   80  201 1    
   160   81  202 1    
   161   81  203 1    
   162   81  204 1    
   163   82   83 2    
   164   82   84 am   BACKBONE|DICT|INTERRES
   165   84   85 1    
   166   84  205 1    
   167   85   86 1    
   168   85   87 1    
   169   85  206 1    
   170   86  207 1    
   171   86  208 1    
   172   86  209 1    
   173   87   88 2    
   174   87   89 am   BACKBONE|DICT|INTERRES
   175   89   90 1    
   176   89  210 1    
   177   90   91 1    
   178   90   92 1    
   179   90  211 1    
   180   91  212 1    
   181   91  213 1    
   182   91  214 1    
   183   92   93 2    
   184   92   94 am   BACKBONE|DICT|INTERRES
   185   94   95 1    
   186   94  215 1    
   187   95   96 1    
   188   95   97 1    
   189   95  216 1    
   190   96  217 1    
   191   96  218 1    
   192   96  219 1    
   193   97   98 2    
   194   97   99 am   BACKBONE|DICT|INTERRES
   195   99  100 1    
   196   99  220 1    
   197  100  101 1    
   198  100  102 1    
   199  100  221 1    
   200  101  222 1    
   201  101  223 1    
   202  101  224 1    
   203  102  103 2    
   204  102  104 am   BACKBONE|DICT|INTERRES
   205  104  105 1    
   206  104  225 1    
   207  105  106 1    
   208  105  107 1    
   209  105  226 1    
   210  106  227 1    
   211  106  228 1    
   212  106  229 1    
   213  107  108 2    
   214  107  109 am   BACKBONE|DICT|INTERRES
   215  109  110 1    
   216  109  230 1    
   217  110  111 1    
   218  110  112 1    
   219  110  231 1    
   220  111  232 1    
   221  111  233 1    
   222  111  234 1    
   223  112  113 2    
   224  112  114 am   BACKBONE|DICT|INTERRES
   225  114  115 1    
   226  114  235 1    
   227  115  116 1    
   228  115  117 1    
   229  115  236 1    
   230  116  237 1    
   231  116  238 1    
   232  116  239 1    
   233  117  118 2    
   234  117  119 am   BACKBONE|DICT|INTERRES
   235  119  120 1    
   236  119  240 1    
   237  120  121 1    
   238  120  124 1    
   239  120  241 1    
   240  121  122 am   BACKBONE|DICT|INTERRES
   241  121  123 2    
   242  122  242 1    
   243  122  243 1    
   244  124  125 1    
   245  124  244 1    
   246  124  245 1    
   247  125  126 1    
   248  126  246 1    
   249  126  247 1    
@<TRIPOS>SUBSTRUCTURE
     1 UNK         1 GROUP             0       ****    0 ROOT    
