@<TRIPOS>MOLECULE
3R540
247   249    1
SMALL
USER_CHARGES


@<TRIPOS>ATOM
      1 CA         -1.2390  -17.2263  -48.7550 C.3       0 UNK        -0.1800 
      2 C          -1.0027  -15.7293  -48.8940 C.2       0 UNK         0.5000 
      3 O          -1.8811  -15.0028  -49.3591 O.2       0 UNK        -0.5000 
      4 N           0.1883  -15.2738  -48.4864 N.am      1 UNK        -0.5000 
      5 CA          0.6148  -13.8716  -48.4549 C.3       1 UNK         0.1400 
      6 C6          2.0867  -13.7347  -47.9928 C.3       23 UNK        -0.0398 
      7 S7          3.2904  -14.3935  -49.1941 S.3       23 UNK        -0.2404 
      8 C8          3.5284  -16.1193  -48.6348 C.3       23 UNK        -0.0205 
      9 C9          2.9064  -17.2028  -49.5215 C.ar      23 UNK        -0.0193 
     10 C10         2.1327  -16.9172  -50.6576 C.ar      23 UNK        -0.1150 
     11 C11         1.6324  -17.9460  -51.4598 C.ar      23 UNK        -0.0193 
     12 C12         1.9100  -19.2708  -51.1255 C.ar      23 UNK        -0.1150 
     13 C13         2.6685  -19.5781  -49.9954 C.ar      23 UNK        -0.0193 
     14 C14         3.1558  -18.5410  -49.1947 C.ar      23 UNK        -0.1150 
     15 C15         2.9925  -21.0303  -49.6754 C.3       23 UNK        -0.0205 
     16 S16         1.4937  -22.0286  -49.4117 S.3       23 UNK        -0.2404 
     17 C17         0.9655  -21.4325  -47.7759 C.3       23 UNK        -0.0398 
     18 CA         -0.0364  -22.4002  -47.1015 C.3       11 UNK         0.1400 
     19 N           0.0184  -22.3127  -45.6396 N.am      11 UNK        -0.5000 
     20 C          -0.6123  -23.1445  -44.7984 C.2       10 UNK         0.5000 
     21 O          -1.2899  -24.1044  -45.1651 O.2       10 UNK        -0.5000 
     22 CA         -0.5091  -22.8219  -43.2966 C.3       10 UNK         0.1400 
     23 CB          0.8287  -23.3102  -42.7218 C.3       10 UNK        -0.1800 
     24 N          -0.6787  -21.3951  -43.0172 N.am      10 UNK        -0.5000 
     25 C          -1.8051  -20.7087  -43.2604 C.2       9 UNK         0.5000 
     26 O          -2.8377  -21.2218  -43.6889 O.2       9 UNK        -0.5000 
     27 CA         -1.7575  -19.1864  -43.0453 C.3       9 UNK         0.1400 
     28 CB         -1.9135  -18.8343  -41.5587 C.3       9 UNK        -0.1800 
     29 N          -0.5309  -18.5850  -43.5638 N.am      9 UNK        -0.5000 
     30 C          -0.1432  -18.6038  -44.8458 C.2       8 UNK         0.5000 
     31 O          -0.7964  -19.1113  -45.7557 O.2       8 UNK        -0.5000 
     32 CA          1.2380  -18.0025  -45.1498 C.3       8 UNK         0.1400 
     33 CB          1.1742  -16.4675  -45.1748 C.3       8 UNK        -0.1800 
     34 N           2.2451  -18.4388  -44.1822 N.am      8 UNK        -0.5000 
     35 C           2.6787  -19.7009  -44.0530 C.2       7 UNK         0.5000 
     36 O           2.2958  -20.6312  -44.7610 O.2       7 UNK        -0.5000 
     37 CA          3.6799  -19.9745  -42.9165 C.3       7 UNK         0.1400 
     38 CB          5.1050  -19.5998  -43.3497 C.3       7 UNK        -0.1800 
     39 N           3.3404  -19.2579  -41.6864 N.am      7 UNK        -0.5000 
     40 C           2.2605  -19.5159  -40.9348 C.2       6 UNK         0.5000 
     41 O           1.4536  -20.4124  -41.1807 O.2       6 UNK        -0.5000 
     42 CA          2.0126  -18.5736  -39.7399 C.3       6 UNK         0.1400 
     43 CB          2.8289  -19.0215  -38.5184 C.3       6 UNK        -0.1800 
     44 N           2.3016  -17.1637  -40.0317 N.am      6 UNK        -0.5000 
     45 C           1.7086  -16.4583  -41.0038 C.2       5 UNK         0.5000 
     46 O           0.8862  -16.9440  -41.7823 O.2       5 UNK        -0.5000 
     47 CA          2.1426  -14.9887  -41.1699 C.3       5 UNK         0.1400 
     48 CB          3.5151  -14.9131  -41.8582 C.3       5 UNK        -0.1800 
     49 N           1.1837  -14.2302  -41.9746 N.am      5 UNK        -0.5000 
     50 C          -0.0706  -13.9356  -41.6069 C.2       4 UNK         0.5000 
     51 O          -0.5195  -14.1499  -40.4786 O.2       4 UNK        -0.5000 
     52 CA         -0.9640  -13.3078  -42.6985 C.3       4 UNK         0.1400 
     53 CB         -2.2457  -12.6600  -42.1346 C.3       4 UNK        -0.1800 
     54 N          -0.2517  -12.3681  -43.5726 N.am      4 UNK        -0.5000 
     55 C           0.3643  -11.2304  -43.2070 C.2       3 UNK         0.5000 
     56 O           0.4643  -10.8439  -42.0420 O.2       3 UNK        -0.5000 
     57 CA          0.9693  -10.3652  -44.3333 C.3       3 UNK         0.1400 
     58 CB          2.4775  -10.6333  -44.4573 C.3       3 UNK        -0.1800 
     59 N           0.3449  -10.5814  -45.6398 N.am      3 UNK        -0.5000 
     60 C          -0.9339  -10.3197  -45.9463 C.2       2 UNK         0.5000 
     61 O          -1.7127   -9.7451  -45.1849 O.2       2 UNK        -0.5000 
     62 CA         -1.4399  -10.7995  -47.3234 C.3       2 UNK         0.1400 
     63 CB         -1.6437   -9.6034  -48.2666 C.3       2 UNK        -0.1800 
     64 N          -0.5802  -11.7847  -47.9926 N.am      2 UNK        -0.5000 
     65 C          -0.2922  -13.0152  -47.5443 C.2       1 UNK         0.5000 
     66 O          -0.6534  -13.4494  -46.4466 O.2       1 UNK        -0.5000 
     67 C          -1.4688  -22.2037  -47.6419 C.2       11 UNK         0.5000 
     68 O          -1.9036  -22.9688  -48.5047 O.2       11 UNK        -0.5000 
     69 N          -2.1868  -21.2150  -47.0895 N.am      12 UNK        -0.5000 
     70 CA         -3.5890  -20.9323  -47.3880 C.3       12 UNK         0.1400 
     71 CB         -4.0046  -19.6042  -46.7389 C.3       12 UNK        -0.1800 
     72 C          -4.5286  -22.0681  -46.9493 C.2       12 UNK         0.5000 
     73 O          -5.4033  -22.4547  -47.7219 O.2       12 UNK        -0.5000 
     74 N          -4.3153  -22.6046  -45.7389 N.am      13 UNK        -0.5000 
     75 CA         -5.0715  -23.7297  -45.1832 C.3       13 UNK         0.1400 
     76 CB         -4.6860  -23.9361  -43.7107 C.3       13 UNK        -0.1800 
     77 C          -4.8845  -25.0319  -45.9830 C.2       13 UNK         0.5000 
     78 O          -5.8551  -25.7609  -46.1921 O.2       13 UNK        -0.5000 
     79 N          -3.6500  -25.2854  -46.4382 N.am      14 UNK        -0.5000 
     80 CA         -3.3100  -26.3928  -47.3318 C.3       14 UNK         0.1400 
     81 CB         -1.7840  -26.5748  -47.3432 C.3       14 UNK        -0.1800 
     82 C          -3.8287  -26.1871  -48.7686 C.2       14 UNK         0.5000 
     83 O          -4.0725  -27.1726  -49.4655 O.2       14 UNK        -0.5000 
     84 N          -3.9566  -24.9166  -49.1833 N.am      15 UNK        -0.5000 
     85 CA         -4.2729  -24.4353  -50.5324 C.3       15 UNK         0.1400 
     86 CB         -5.7244  -24.7860  -50.9178 C.3       15 UNK        -0.1800 
     87 C          -3.2286  -24.9074  -51.5650 C.2       15 UNK         0.5000 
     88 O          -3.5817  -25.3105  -52.6746 O.2       15 UNK        -0.5000 
     89 N          -1.9531  -24.8868  -51.1496 N.am      16 UNK        -0.5000 
     90 CA         -0.8283  -25.4825  -51.8728 C.3       16 UNK         0.1400 
     91 CB          0.3954  -25.5352  -50.9478 C.3       16 UNK        -0.1800 
     92 C          -0.4915  -24.7679  -53.1930 C.2       16 UNK         0.5000 
     93 O          -0.0749  -25.4236  -54.1483 O.2       16 UNK        -0.5000 
     94 N          -0.7235  -23.4507  -53.2477 N.am      17 UNK        -0.5000 
     95 CA         -0.5617  -22.6134  -54.4376 C.3       17 UNK         0.1400 
     96 CB         -0.1510  -21.1990  -53.9954 C.3       17 UNK        -0.1800 
     97 C          -1.8328  -22.6243  -55.3113 C.2       17 UNK         0.5000 
     98 O          -2.3288  -21.5640  -55.6932 O.2       17 UNK        -0.5000 
     99 N          -2.3649  -23.8259  -55.5752 N.am      18 UNK        -0.5000 
    100 CA        -3.5677  -24.1674  -56.3513 C.3       18 UNK         0.1400 
    101 CB        -3.4408  -23.6803  -57.8078 C.3       18 UNK        -0.1800 
    102 C         -4.9120  -23.7187  -55.7364 C.2       18 UNK         0.5000 
    103 O         -5.9410  -24.3226  -56.0435 O.2       18 UNK        -0.5000 
    104 N         -4.8938  -22.6926  -54.8842 N.am      19 UNK        -0.5000 
    105 CA        -6.0285  -22.1339  -54.1669 C.3       19 UNK         0.1400 
    106 CB        -6.7282  -21.0847  -55.0487 C.3       19 UNK        -0.1800 
    107 C         -5.5104  -21.4971  -52.8725 C.2       19 UNK         0.5000 
    108 O         -4.3263  -21.1613  -52.7825 O.2       19 UNK        -0.5000 
    109 N         -6.4137  -21.3030  -51.9039 N.am      20 UNK        -0.5000 
    110 CA        -6.1258  -20.6714  -50.6115 C.3       20 UNK         0.1400 
    111 CB        -7.3568  -20.8069  -49.7034 C.3       20 UNK        -0.1800 
    112 C         -5.7058  -19.1928  -50.7285 C.2       20 UNK         0.5000 
    113 O         -4.9336  -18.7098  -49.9022 O.2       20 UNK        -0.5000 
    114 N         -6.2103  -18.5151  -51.7672 N.am      21 UNK        -0.5000 
    115 CA        -5.8904  -17.1291  -52.1097 C.3       21 UNK         0.1400 
    116 CB        -7.1281  -16.5039  -52.7762 C.3       21 UNK        -0.1800 
    117 C         -4.6514  -16.9976  -53.0224 C.2       21 UNK         0.5000 
    118 O         -4.3124  -15.8726  -53.3908 O.2       21 UNK        -0.5000 
    119 N         -4.0195  -18.1279  -53.3753 N.am      22 UNK        -0.5000 
    120 CA        -2.9100  -18.2853  -54.3303 C.3       22 UNK         0.1400 
    121 C         -3.3805  -18.0937  -55.7986 C.2       22 UNK         0.5000 
    122 N         -3.3309  -19.1378  -56.6128 N.am      22 UNK        -0.7600 
    123 O         -3.7571  -17.0039  -56.2218 O.2       22 UNK        -0.5000 
    124 C124       -1.6615  -17.4150  -54.0158 C.3       23 UNK        -0.0398 
    125 S125       -0.9693  -17.7453  -52.3599 S.3       23 UNK        -0.2404 
    126 C126        0.8123  -17.6357  -52.7014 C.3       23 UNK        -0.0205 
    127 H127       -1.5674  -17.4549  -47.7425 H         1 UNK         0.0600 
    128 H128       -2.0106  -17.5632  -49.4479 H         1 UNK         0.0600 
    129 H129       -0.3302  -17.7934  -48.9592 H         1 UNK         0.0600 
    130 H130        0.8663  -15.9368  -48.1455 H         1 UNK         0.3000 
    131 H131        0.5318  -13.4889  -49.4743 H         1 UNK         0.0600 
    132 H132        2.2391  -14.1950  -47.0159 H         1 UNK         0.0800 
    133 H133        2.3446  -12.6819  -47.8618 H         1 UNK         0.0800 
    134 H134        3.1658  -16.2403  -47.6145 H         1 UNK         0.0800 
    135 H135        4.6039  -16.2976  -48.5915 H         1 UNK         0.0800 
    136 H136        1.9153  -15.8974  -50.9374 H         1 UNK         0.1150 
    137 H137        1.5324  -20.0699  -51.7443 H         1 UNK         0.1150 
    138 H138        3.7553  -18.7750  -48.3258 H         1 UNK         0.1150 
    139 H139        3.5501  -21.4542  -50.5116 H         1 UNK         0.0800 
    140 H140        3.6438  -21.1079  -48.8036 H         1 UNK         0.0800 
    141 H141        1.8662  -21.3526  -47.1683 H         1 UNK         0.0800 
    142 H142        0.5668  -20.4194  -47.8597 H         1 UNK         0.0800 
    143 H143        0.2601  -23.4225  -47.3471 H         1 UNK         0.0600 
    144 H144        0.5894  -21.5682  -45.2523 H         1 UNK         0.3000 
    145 H145       -1.3115  -23.3588  -42.7866 H         1 UNK         0.0600 
    146 H146        0.8699  -23.1627  -41.6426 H         1 UNK         0.0600 
    147 H147        0.9693  -24.3753  -42.9103 H         1 UNK         0.0600 
    148 H148        1.6749  -22.7833  -43.1630 H         1 UNK         0.0600 
    149 H149        0.1172  -20.9104  -42.6149 H         1 UNK         0.3000 
    150 H150       -2.5959  -18.7471  -43.5894 H         1 UNK         0.0600 
    151 H151       -2.8392  -19.2457  -41.1547 H         1 UNK         0.0600 
    152 H152       -1.9438  -17.7544  -41.4110 H         1 UNK         0.0600 
    153 H153       -1.0899  -19.2285  -40.9631 H         1 UNK         0.0600 
    154 H154        0.0598  -18.1050  -42.8867 H         1 UNK         0.3000 
    155 H155        1.5447  -18.3486  -46.1394 H         1 UNK         0.0600 
    156 H156        2.1426  -16.0344  -45.4218 H         1 UNK         0.0600 
    157 H157        0.8619  -16.0564  -44.2163 H         1 UNK         0.0600 
    158 H158        0.4537  -16.1208  -45.9143 H         1 UNK         0.0600 
    159 H159        2.5600  -17.7515  -43.5150 H         1 UNK         0.3000 
    160 H160        3.6580  -21.0456  -42.7042 H         1 UNK         0.0600 
    161 H161        5.1997  -18.5321  -43.5513 H         1 UNK         0.0600 
    162 H162        5.3886  -20.1321  -44.2586 H         1 UNK         0.0600 
    163 H163        5.8320  -19.8621  -42.5809 H         1 UNK         0.0600 
    164 H164        3.9493  -18.5014  -41.4119 H         1 UNK         0.3000 
    165 H165        0.9534  -18.6447  -39.4842 H         1 UNK         0.0600 
    166 H166        3.9016  -18.9352  -38.6958 H         1 UNK         0.0600 
    167 H167        2.5842  -18.4243  -37.6398 H         1 UNK         0.0600 
    168 H168        2.6197  -20.0629  -38.2698 H         1 UNK         0.0600 
    169 H169        2.9777  -16.7088  -39.4352 H         1 UNK         0.3000 
    170 H170        2.2087  -14.5298  -40.1815 H         1 UNK         0.0600 
    171 H171        4.2789  -15.4303  -41.2763 H         1 UNK         0.0600 
    172 H172        3.4948  -15.3663  -42.8504 H         1 UNK         0.0600 
    173 H173        3.8424  -13.8791  -41.9700 H         1 UNK         0.0600 
    174 H174        1.4593  -14.0175  -42.9208 H         1 UNK         0.3000 
    175 H175       -1.2734  -14.1351  -43.3392 H         1 UNK         0.0600 
    176 H176       -2.8616  -12.2467  -42.9335 H         1 UNK         0.0600 
    177 H177       -2.8540  -13.3930  -41.6034 H         1 UNK         0.0600 
    178 H178       -2.0189  -11.8545  -41.4356 H         1 UNK         0.0600 
    179 H179       -0.2810  -12.5975  -44.5608 H         1 UNK         0.3000 
    180 H180        0.8244   -9.3182  -44.0593 H         1 UNK         0.0600 
    181 H181        2.9365   -9.9750  -45.1951 H         1 UNK         0.0600 
    182 H182        2.9851  -10.4579  -43.5077 H         1 UNK         0.0600 
    183 H183        2.6808  -11.6636  -44.7522 H         1 UNK         0.0600 
    184 H184        0.9112  -11.0343  -46.3401 H         1 UNK         0.3000 
    185 H185       -2.4101  -11.2720  -47.1569 H         1 UNK         0.0600 
    186 H186       -2.0936   -9.9152  -49.2094 H         1 UNK         0.0600 
    187 H187       -2.3093   -8.8619  -47.8225 H         1 UNK         0.0600 
    188 H188       -0.7004   -9.1042  -48.4918 H         1 UNK         0.0600 
    189 H189       -0.2233  -11.5053  -48.8954 H         1 UNK         0.3000 
    190 H190       -1.7315  -20.5938  -46.4249 H         1 UNK         0.3000 
    191 H191       -3.6769  -20.8219  -48.4699 H         1 UNK         0.0600 
    192 H192       -5.0485  -19.3747  -46.9563 H         1 UNK         0.0600 
    193 H193       -3.4081  -18.7773  -47.1212 H         1 UNK         0.0600 
    194 H194       -3.8898  -19.6278  -45.6553 H         1 UNK         0.0600 
    195 H195       -3.6082  -22.1922  -45.1355 H         1 UNK         0.3000 
    196 H196       -6.1308  -23.4679  -45.2223 H         1 UNK         0.0600 
    197 H197       -5.2456  -24.7629  -43.2716 H         1 UNK         0.0600 
    198 H198       -4.9024  -23.0467  -43.1187 H         1 UNK         0.0600 
    199 H199       -3.6250  -24.1613  -43.6003 H         1 UNK         0.0600 
    200 H200       -2.8877  -24.6756  -46.1555 H         1 UNK         0.3000 
    201 H201       -3.7621  -27.3063  -46.9400 H         1 UNK         0.0600 
    202 H202       -1.4057  -26.7912  -46.3440 H         1 UNK         0.0600 
    203 H203       -1.2753  -25.6806  -47.7058 H         1 UNK         0.0600 
    204 H204       -1.4922  -27.4040  -47.9890 H         1 UNK         0.0600 
    205 H205       -3.6790  -24.1919  -48.5326 H         1 UNK         0.3000 
    206 H206       -4.1921  -23.3484  -50.4966 H         1 UNK         0.0600 
    207 H207       -6.4290  -24.3823  -50.1904 H         1 UNK         0.0600 
    208 H208       -5.9852  -24.3676  -51.8896 H         1 UNK         0.0600 
    209 H209       -5.8809  -25.8632  -50.9770 H         1 UNK         0.0600 
    210 H210       -1.7588  -24.5048  -50.2320 H         1 UNK         0.3000 
    211 H211       -1.1046  -26.5094  -52.1217 H         1 UNK         0.0600 
    212 H212        0.7104  -24.5376  -50.6455 H         1 UNK         0.0600 
    213 H213        1.2420  -26.0100  -51.4454 H         1 UNK         0.0600 
    214 H214        0.1851  -26.1091  -50.0450 H         1 UNK         0.0600 
    215 H215       -1.1089  -23.0019  -52.4294 H         1 UNK         0.3000 
    216 H216        0.2465  -23.0088  -55.0561 H         1 UNK         0.0600 
    217 H217       -0.0638  -20.5217  -54.8459 H         1 UNK         0.0600 
    218 H218        0.8215  -21.2226  -53.5069 H         1 UNK         0.0600 
    219 H219       -0.8706  -20.7684  -53.2983 H         1 UNK         0.0600 
    220 H220       -1.8859  -24.6216  -55.1717 H         1 UNK         0.3000 
    221 H221       -3.5963  -25.2578  -56.3725 H         1 UNK         0.0600 
    222 H222       -3.4455  -22.5921  -57.8759 H         1 UNK         0.0600 
    223 H223       -2.5211  -24.0425  -58.2671 H         1 UNK         0.0600 
    224 H224       -4.2715  -24.0452  -58.4131 H         1 UNK         0.0600 
    225 H225       -4.0062  -22.2446  -54.6834 H         1 UNK         0.3000 
    226 H226       -6.7281  -22.9315  -53.9087 H         1 UNK         0.0600 
    227 H227       -7.5866  -20.6476  -54.5377 H         1 UNK         0.0600 
    228 H228       -6.0524  -20.2705  -55.3154 H         1 UNK         0.0600 
    229 H229       -7.0953  -21.5286  -55.9741 H         1 UNK         0.0600 
    230 H230       -7.3679  -21.5989  -52.0535 H         1 UNK         0.3000 
    231 H231       -5.2972  -21.2129  -50.1540 H         1 UNK         0.0600 
    232 H232       -7.1681  -20.3656  -48.7237 H         1 UNK         0.0600 
    233 H233       -7.6109  -21.8544  -49.5397 H         1 UNK         0.0600 
    234 H234       -8.2296  -20.3085  -50.1268 H         1 UNK         0.0600 
    235 H235       -6.8403  -18.9974  -52.3908 H         1 UNK         0.3000 
    236 H236       -5.6791  -16.5703  -51.1955 H         1 UNK         0.0600 
    237 H237       -7.3740  -17.0026  -53.7146 H         1 UNK         0.0600 
    238 H238       -8.0000  -16.5639  -52.1245 H         1 UNK         0.0600 
    239 H239       -6.9650  -15.4486  -52.9984 H         1 UNK         0.0600 
    240 H240       -4.3608  -18.9999  -52.9921 H         1 UNK         0.3000 
    241 H241       -2.6029  -19.3256  -54.2216 H         1 UNK         0.0600 
    242 H242       -3.6182  -19.0295  -57.5720 H         1 UNK         0.3800 
    243 H243       -2.9859  -20.0434  -56.2917 H         1 UNK         0.3800 
    244 H244       -1.8865  -16.3510  -54.0944 H         1 UNK         0.0800 
    245 H245       -0.8887  -17.6101  -54.7610 H         1 UNK         0.0800 
    246 H246        1.0485  -16.6375  -53.0732 H         1 UNK         0.0800 
    247 H247        1.0759  -18.3343  -53.4970 H         1 UNK         0.0800 
@<TRIPOS>BOND
     1    1    2 1    
     2    1  127 1    
     3    1  128 1    
     4    1  129 1    
     5    2    3 2    
     6    2    4 am   BACKBONE|DICT|INTERRES
     7    4    5 1    
     8    4  130 1    
     9    5    6 1    
    10    5   65 1    
    11    5  131 1    
    12    6    7 1    
    13    6  132 1    
    14    6  133 1    
    15    7    8 1    
    16    8    9 1    
    17    8  134 1    
    18    8  135 1    
    19    9   10 ar   
    20    9   14 ar   
    21   10   11 ar   
    22   10  136 1    
    23   11   12 ar   
    24   11  126 1    
    25   12   13 ar   
    26   12  137 1    
    27   13   14 ar   
    28   13   15 1    
    29   14  138 1    
    30   15   16 1    
    31   15  139 1    
    32   15  140 1    
    33   16   17 1    
    34   17   18 1    
    35   17  141 1    
    36   17  142 1    
    37   18   19 1    
    38   18   67 1    
    39   18  143 1    
    40   19   20 am   BACKBONE|DICT|INTERRES
    41   19  144 1    
    42   20   21 2    
    43   20   22 1    
    44   22   23 1    
    45   22   24 1    
    46   22  145 1    
    47   23  146 1    
    48   23  147 1    
    49   23  148 1    
    50   24   25 am   BACKBONE|DICT|INTERRES
    51   24  149 1    
    52   25   26 2    
    53   25   27 1    
    54   27   28 1    
    55   27   29 1    
    56   27  150 1    
    57   28  151 1    
    58   28  152 1    
    59   28  153 1    
    60   29   30 am   BACKBONE|DICT|INTERRES
    61   29  154 1    
    62   30   31 2    
    63   30   32 1    
    64   32   33 1    
    65   32   34 1    
    66   32  155 1    
    67   33  156 1    
    68   33  157 1    
    69   33  158 1    
    70   34   35 am   BACKBONE|DICT|INTERRES
    71   34  159 1    
    72   35   36 2    
    73   35   37 1    
    74   37   38 1    
    75   37   39 1    
    76   37  160 1    
    77   38  161 1    
    78   38  162 1    
    79   38  163 1    
    80   39   40 am   BACKBONE|DICT|INTERRES
    81   39  164 1    
    82   40   41 2    
    83   40   42 1    
    84   42   43 1    
    85   42   44 1    
    86   42  165 1    
    87   43  166 1    
    88   43  167 1    
    89   43  168 1    
    90   44   45 am   BACKBONE|DICT|INTERRES
    91   44  169 1    
    92   45   46 2    
    93   45   47 1    
    94   47   48 1    
    95   47   49 1    
    96   47  170 1    
    97   48  171 1    
    98   48  172 1    
    99   48  173 1    
   100   49   50 am   BACKBONE|DICT|INTERRES
   101   49  174 1    
   102   50   51 2    
   103   50   52 1    
   104   52   53 1    
   105   52   54 1    
   106   52  175 1    
   107   53  176 1    
   108   53  177 1    
   109   53  178 1    
   110   54   55 am   BACKBONE|DICT|INTERRES
   111   54  179 1    
   112   55   56 2    
   113   55   57 1    
   114   57   58 1    
   115   57   59 1    
   116   57  180 1    
   117   58  181 1    
   118   58  182 1    
   119   58  183 1    
   120   59   60 am   BACKBONE|DICT|INTERRES
   121   59  184 1    
   122   60   61 2    
   123   60   62 1    
   124   62   63 1    
   125   62   64 1    
   126   62  185 1    
   127   63  186 1    
   128   63  187 1    
   129   63  188 1    
   130   64   65 am   BACKBONE|DICT|INTERRES
   131   64  189 1    
   132   65   66 2    
   133   67   68 2    
   134   67   69 am   BACKBONE|DICT|INTERRES
   135   69   70 1    
   136   69  190 1    
   137   70   71 1    
   138   70   72 1    
   139   70  191 1    
   140   71  192 1    
   141   71  193 1    
   142   71  194 1    
   143   72   73 2    
   144   72   74 am   BACKBONE|DICT|INTERRES
   145   74   75 1    
   146   74  195 1    
   147   75   76 1    
   148   75   77 1    
   149   75  196 1    
   150   76  197 1    
   151   76  198 1    
   152   76  199 1    
   153   77   78 2    
   154   77   79 am   BACKBONE|DICT|INTERRES
   155   79   80 1    
   156   79  200 1    
   157   80   81 1    
   158   80   82 1    
   159   80  201 1    
   160   81  202 1    
   161   81  203 1    
   162   81  204 1    
   163   82   83 2    
   164   82   84 am   BACKBONE|DICT|INTERRES
   165   84   85 1    
   166   84  205 1    
   167   85   86 1    
   168   85   87 1    
   169   85  206 1    
   170   86  207 1    
   171   86  208 1    
   172   86  209 1    
   173   87   88 2    
   174   87   89 am   BACKBONE|DICT|INTERRES
   175   89   90 1    
   176   89  210 1    
   177   90   91 1    
   178   90   92 1    
   179   90  211 1    
   180   91  212 1    
   181   91  213 1    
   182   91  214 1    
   183   92   93 2    
   184   92   94 am   BACKBONE|DICT|INTERRES
   185   94   95 1    
   186   94  215 1    
   187   95   96 1    
   188   95   97 1    
   189   95  216 1    
   190   96  217 1    
   191   96  218 1    
   192   96  219 1    
   193   97   98 2    
   194   97   99 am   BACKBONE|DICT|INTERRES
   195   99  100 1    
   196   99  220 1    
   197  100  101 1    
   198  100  102 1    
   199  100  221 1    
   200  101  222 1    
   201  101  223 1    
   202  101  224 1    
   203  102  103 2    
   204  102  104 am   BACKBONE|DICT|INTERRES
   205  104  105 1    
   206  104  225 1    
   207  105  106 1    
   208  105  107 1    
   209  105  226 1    
   210  106  227 1    
   211  106  228 1    
   212  106  229 1    
   213  107  108 2    
   214  107  109 am   BACKBONE|DICT|INTERRES
   215  109  110 1    
   216  109  230 1    
   217  110  111 1    
   218  110  112 1    
   219  110  231 1    
   220  111  232 1    
   221  111  233 1    
   222  111  234 1    
   223  112  113 2    
   224  112  114 am   BACKBONE|DICT|INTERRES
   225  114  115 1    
   226  114  235 1    
   227  115  116 1    
   228  115  117 1    
   229  115  236 1    
   230  116  237 1    
   231  116  238 1    
   232  116  239 1    
   233  117  118 2    
   234  117  119 am   BACKBONE|DICT|INTERRES
   235  119  120 1    
   236  119  240 1    
   237  120  121 1    
   238  120  124 1    
   239  120  241 1    
   240  121  122 am   BACKBONE|DICT|INTERRES
   241  121  123 2    
   242  122  242 1    
   243  122  243 1    
   244  124  125 1    
   245  124  244 1    
   246  124  245 1    
   247  125  126 1    
   248  126  246 1    
   249  126  247 1    
@<TRIPOS>SUBSTRUCTURE
     1 UNK         1 GROUP             0       ****    0 ROOT    
