@<TRIPOS>MOLECULE
3R540
247   249    1
SMALL
USER_CHARGES


@<TRIPOS>ATOM
      1 CA         -3.2305  -17.8225  -43.3762 C.3       0 UNK        -0.1800 
      2 C          -3.8652  -17.9719  -44.7512 C.2       0 UNK         0.5000 
      3 O          -4.8817  -18.6519  -44.8889 O.2       0 UNK        -0.5000 
      4 N          -3.2774  -17.3300  -45.7654 N.am      1 UNK        -0.5000 
      5 CA         -3.7049  -17.3194  -47.1688 C.3       1 UNK         0.1400 
      6 C6         -2.5488  -16.8789  -48.0985 C.3       23 UNK        -0.0398 
      7 S7         -1.1609  -18.0533  -48.0858 S.3       23 UNK        -0.2404 
      8 C8         -0.0937  -17.2890  -49.3475 C.3       23 UNK        -0.0205 
      9 C9          0.8342  -18.3135  -49.9800 C.ar      23 UNK        -0.0193 
     10 C10         0.7186  -18.6321  -51.3364 C.ar      23 UNK        -0.1150 
     11 C11         1.5551  -19.5909  -51.9158 C.ar      23 UNK        -0.0193 
     12 C12         2.4999  -20.2478  -51.1221 C.ar      23 UNK        -0.1150 
     13 C13         2.6123  -19.9489  -49.7615 C.ar      23 UNK        -0.0193 
     14 C14         1.7958  -18.9630  -49.2035 C.ar      23 UNK        -0.1150 
     15 C15         3.5803  -20.7252  -48.8844 C.3       23 UNK        -0.0205 
     16 S16         2.8465  -22.2969  -48.3376 S.3       23 UNK        -0.2404 
     17 C17         1.5271  -21.7073  -47.2211 C.3       23 UNK        -0.0398 
     18 CA          0.7596  -22.8703  -46.5574 C.3       11 UNK         0.1400 
     19 N           1.6392  -23.7860  -45.8314 N.am      11 UNK        -0.5000 
     20 C           1.3051  -25.0296  -45.4666 C.2       10 UNK         0.5000 
     21 O           0.2196  -25.5494  -45.7251 O.2       10 UNK        -0.5000 
     22 CA          2.3467  -25.7953  -44.6302 C.3       10 UNK         0.1400 
     23 CB          3.3760  -26.4788  -45.5424 C.3       10 UNK        -0.1800 
     24 N           3.0426  -24.9232  -43.6803 N.am      10 UNK        -0.5000 
     25 C           2.4500  -24.3248  -42.6374 C.2       9 UNK         0.5000 
     26 O           1.2702  -24.4987  -42.3358 O.2       9 UNK        -0.5000 
     27 CA          3.3001  -23.3296  -41.8264 C.3       9 UNK         0.1400 
     28 CB          4.0382  -24.0537  -40.6909 C.3       9 UNK        -0.1800 
     29 N           4.2681  -22.5857  -42.6383 N.am      9 UNK        -0.5000 
     30 C           3.9508  -21.7267  -43.6156 C.2       8 UNK         0.5000 
     31 O           2.7953  -21.4941  -43.9817 O.2       8 UNK        -0.5000 
     32 CA          5.1257  -21.0504  -44.3310 C.3       8 UNK         0.1400 
     33 CB          5.6989  -21.9691  -45.4242 C.3       8 UNK        -0.1800 
     34 N           4.6726  -19.7974  -44.9272 N.am      8 UNK        -0.5000 
     35 C           5.4484  -18.7316  -45.1608 C.2       7 UNK         0.5000 
     36 O           6.6515  -18.7014  -44.8974 O.2       7 UNK        -0.5000 
     37 CA          4.7961  -17.4906  -45.8045 C.3       7 UNK         0.1400 
     38 CB          5.3267  -17.2778  -47.2322 C.3       7 UNK        -0.1800 
     39 N           3.3335  -17.5495  -45.8565 N.am      7 UNK        -0.5000 
     40 C           2.5226  -17.2019  -44.8508 C.2       6 UNK         0.5000 
     41 O           2.9173  -16.8340  -43.7423 O.2       6 UNK        -0.5000 
     42 CA          1.0147  -17.2955  -45.1310 C.3       6 UNK         0.1400 
     43 CB          0.4162  -18.5592  -44.4987 C.3       6 UNK        -0.1800 
     44 N           0.3280  -16.1182  -44.6052 N.am      6 UNK        -0.5000 
     45 C           0.1828  -14.9755  -45.2845 C.2       5 UNK         0.5000 
     46 O           0.5323  -14.8239  -46.4576 O.2       5 UNK        -0.5000 
     47 CA         -0.4310  -13.7925  -44.5139 C.3       5 UNK         0.1400 
     48 CB          0.6748  -12.9016  -43.9273 C.3       5 UNK        -0.1800 
     49 N          -1.2810  -12.9855  -45.3887 N.am      5 UNK        -0.5000 
     50 C          -2.5003  -13.3573  -45.7934 C.2       4 UNK         0.5000 
     51 O          -3.0693  -14.3702  -45.3829 O.2       4 UNK        -0.5000 
     52 CA         -3.1702  -12.4614  -46.8491 C.3       4 UNK         0.1400 
     53 CB         -2.6092  -12.7561  -48.2504 C.3       4 UNK        -0.1800 
     54 N          -4.6177  -12.6681  -46.8711 N.am      4 UNK        -0.5000 
     55 C          -5.4994  -11.9379  -46.1750 C.2       3 UNK         0.5000 
     56 O          -5.1786  -10.9903  -45.4558 O.2       3 UNK        -0.5000 
     57 CA         -6.9935  -12.2964  -46.3118 C.3       3 UNK         0.1400 
     58 CB         -7.6843  -11.3407  -47.2974 C.3       3 UNK        -0.1800 
     59 N          -7.2238  -13.6716  -46.7537 N.am      3 UNK        -0.5000 
     60 C          -7.1449  -14.7479  -45.9618 C.2       2 UNK         0.5000 
     61 O          -6.9135  -14.6909  -44.7531 O.2       2 UNK        -0.5000 
     62 CA         -7.3425  -16.1276  -46.6234 C.3       2 UNK         0.1400 
     63 CB         -8.0548  -16.0828  -47.9947 C.3       2 UNK        -0.1800 
     64 N          -6.0677  -16.8390  -46.7192 N.am      2 UNK        -0.5000 
     65 C          -4.9622  -16.4416  -47.3642 C.2       1 UNK         0.5000 
     66 O          -4.9103  -15.4248  -48.0607 O.2       1 UNK        -0.5000 
     67 C          -0.3624  -22.3461  -45.6415 C.2       11 UNK         0.5000 
     68 O          -1.4989  -22.2250  -46.0912 O.2       11 UNK        -0.5000 
     69 N          -0.0455  -22.1003  -44.3615 N.am      12 UNK        -0.5000 
     70 CA         -1.0151  -21.7385  -43.3255 C.3       12 UNK         0.1400 
     71 CB         -0.2749  -21.3259  -42.0441 C.3       12 UNK        -0.1800 
     72 C          -2.0194  -22.8710  -43.0350 C.2       12 UNK         0.5000 
     73 O          -3.1974  -22.5901  -42.8185 O.2       12 UNK        -0.5000 
     74 N          -1.5439  -24.1249  -43.0651 N.am      13 UNK        -0.5000 
     75 CA         -2.3611  -25.3318  -42.9307 C.3       13 UNK         0.1400 
     76 CB         -1.4530  -26.5476  -42.6912 C.3       13 UNK        -0.1800 
     77 C          -3.2853  -25.5624  -44.1419 C.2       13 UNK         0.5000 
     78 O          -4.4362  -25.9586  -43.9536 O.2       13 UNK        -0.5000 
     79 N          -2.7829  -25.2865  -45.3557 N.am      14 UNK        -0.5000 
     80 CA         -3.5688  -25.2748  -46.5954 C.3       14 UNK         0.1400 
     81 CB         -2.6195  -25.1874  -47.8006 C.3       14 UNK        -0.1800 
     82 C          -4.5972  -24.1254  -46.6289 C.2       14 UNK         0.5000 
     83 O          -5.6833  -24.2878  -47.1868 O.2       14 UNK        -0.5000 
     84 N          -4.2342  -22.9986  -46.0050 N.am      15 UNK        -0.5000 
     85 CA         -5.0093  -21.7776  -45.8186 C.3       15 UNK         0.1400 
     86 CB         -6.2131  -22.0308  -44.8835 C.3       15 UNK        -0.1800 
     87 C          -5.3678  -21.1308  -47.1691 C.2       15 UNK         0.5000 
     88 O          -4.4705  -20.8857  -47.9745 O.2       15 UNK        -0.5000 
     89 N          -6.6612  -20.8852  -47.4170 N.am      16 UNK        -0.5000 
     90 CA         -7.1930  -20.2559  -48.6296 C.3       16 UNK         0.1400 
     91 CB         -8.7067  -20.0585  -48.4575 C.3       16 UNK        -0.1800 
     92 C          -6.8887  -21.0091  -49.9434 C.2       16 UNK         0.5000 
     93 O          -6.9726  -20.4021  -51.0115 O.2       16 UNK        -0.5000 
     94 N          -6.5252  -22.2981  -49.8540 N.am      17 UNK        -0.5000 
     95 CA         -6.0593  -23.1062  -50.9825 C.3       17 UNK         0.1400 
     96 CB         -6.0476  -24.5879  -50.5795 C.3       17 UNK        -0.1800 
     97 C          -4.6735  -22.6761  -51.5070 C.2       17 UNK         0.5000 
     98 O          -4.3786  -22.9129  -52.6796 O.2       17 UNK        -0.5000 
     99 N          -3.8561  -22.0354  -50.6580 N.am      18 UNK        -0.5000 
    100 CA        -2.5943  -21.4067  -51.0397 C.3       18 UNK         0.1400 
    101 CB        -1.6397  -21.4049  -49.8316 C.3       18 UNK        -0.1800 
    102 C         -2.8904  -19.9952  -51.5794 C.2       18 UNK         0.5000 
    103 O         -2.7660  -19.0078  -50.8566 O.2       18 UNK        -0.5000 
    104 N         -3.3483  -19.9281  -52.8348 N.am      19 UNK        -0.5000 
    105 CA        -3.6732  -18.6812  -53.5231 C.3       19 UNK         0.1400 
    106 CB        -4.4396  -19.0040  -54.8149 C.3       19 UNK        -0.1800 
    107 C         -2.4033  -17.8717  -53.8367 C.2       19 UNK         0.5000 
    108 O         -1.4361  -18.4354  -54.3502 O.2       19 UNK        -0.5000 
    109 N         -2.4453  -16.5576  -53.5774 N.am      20 UNK        -0.5000 
    110 CA        -1.3408  -15.6112  -53.7925 C.3       20 UNK         0.1400 
    111 CB        -1.7194  -14.2600  -53.1668 C.3       20 UNK        -0.1800 
    112 C         -0.9221  -15.4332  -55.2693 C.2       20 UNK         0.5000 
    113 O          0.1451  -14.8788  -55.5391 O.2       20 UNK        -0.5000 
    114 N         -1.7447  -15.9448  -56.1962 N.am      21 UNK        -0.5000 
    115 CA        -1.5026  -16.0353  -57.6375 C.3       21 UNK         0.1400 
    116 CB        -2.7521  -16.6340  -58.3027 C.3       21 UNK        -0.1800 
    117 C         -0.2430  -16.8387  -58.0319 C.2       21 UNK         0.5000 
    118 O          0.2031  -16.7199  -59.1742 O.2       21 UNK        -0.5000 
    119 N          0.3228  -17.6161  -57.0961 N.am      22 UNK        -0.5000 
    120 CA         1.6446  -18.2500  -57.2233 C.3       22 UNK         0.1400 
    121 C          2.8420  -17.2567  -57.3576 C.2       22 UNK         0.5000 
    122 N          2.7041  -15.9907  -56.9758 N.am      22 UNK        -0.7600 
    123 O          3.9095  -17.6428  -57.8264 O.2       22 UNK        -0.5000 
    124 C124        1.8914  -19.2945  -56.1022 C.3       23 UNK        -0.0398 
    125 S125        2.0486  -18.5720  -54.4292 S.3       23 UNK        -0.2404 
    126 C126        1.4234  -19.9283  -53.3925 C.3       23 UNK        -0.0205 
    127 H127       -3.9521  -17.4039  -42.6749 H         1 UNK         0.0600 
    128 H128       -2.3609  -17.1654  -43.4011 H         1 UNK         0.0600 
    129 H129       -2.9132  -18.7957  -43.0017 H         1 UNK         0.0600 
    130 H130       -2.5045  -16.7125  -45.5630 H         1 UNK         0.3000 
    131 H131       -3.9855  -18.3354  -47.4499 H         1 UNK         0.0600 
    132 H132       -2.9010  -16.7969  -49.1286 H         1 UNK         0.0800 
    133 H133       -2.1735  -15.8955  -47.8124 H         1 UNK         0.0800 
    134 H134        0.4920  -16.4898  -48.8910 H         1 UNK         0.0800 
    135 H135       -0.7130  -16.8237  -50.1160 H         1 UNK         0.0800 
    136 H136       -0.0259  -18.1394  -51.9451 H         1 UNK         0.1150 
    137 H137        3.1336  -21.0086  -51.5557 H         1 UNK         0.1150 
    138 H138        1.8684  -18.7356  -48.1514 H         1 UNK         0.1150 
    139 H139        3.8739  -20.1413  -48.0118 H         1 UNK         0.0800 
    140 H140        4.4967  -20.9325  -49.4388 H         1 UNK         0.0800 
    141 H141        0.8295  -21.0986  -47.7984 H         1 UNK         0.0800 
    142 H142        1.9712  -21.0513  -46.4720 H         1 UNK         0.0800 
    143 H143        0.2791  -23.4387  -47.3570 H         1 UNK         0.0600 
    144 H144        2.5368  -23.4187  -45.5538 H         1 UNK         0.3000 
    145 H145        1.8204  -26.5677  -44.0652 H         1 UNK         0.0600 
    146 H146        2.8852  -27.1483  -46.2501 H         1 UNK         0.0600 
    147 H147        4.0792  -27.0780  -44.9637 H         1 UNK         0.0600 
    148 H148        3.9489  -25.7526  -46.1207 H         1 UNK         0.0600 
    149 H149        4.0182  -24.7349  -43.8566 H         1 UNK         0.3000 
    150 H150        2.6178  -22.6045  -41.3787 H         1 UNK         0.0600 
    151 H151        4.5707  -23.3479  -40.0532 H         1 UNK         0.0600 
    152 H152        3.3385  -24.5988  -40.0557 H         1 UNK         0.0600 
    153 H153        4.7624  -24.7734  -41.0747 H         1 UNK         0.0600 
    154 H154        5.2419  -22.7275  -42.4108 H         1 UNK         0.3000 
    155 H155        5.8982  -20.8409  -43.5879 H         1 UNK         0.0600 
    156 H156        4.9522  -22.2047  -46.1824 H         1 UNK         0.0600 
    157 H157        6.0500  -22.9121  -45.0037 H         1 UNK         0.0600 
    158 H158        6.5475  -21.5045  -45.9265 H         1 UNK         0.0600 
    159 H159        3.6773  -19.7422  -45.0915 H         1 UNK         0.3000 
    160 H160        5.0937  -16.6262  -45.2068 H         1 UNK         0.0600 
    161 H161        5.0726  -18.1085  -47.8900 H         1 UNK         0.0600 
    162 H162        6.4131  -17.1795  -47.2357 H         1 UNK         0.0600 
    163 H163        4.9205  -16.3665  -47.6716 H         1 UNK         0.0600 
    164 H164        2.9331  -17.8146  -46.7426 H         1 UNK         0.3000 
    165 H165        0.8668  -17.3540  -46.2096 H         1 UNK         0.0600 
    166 H166        0.9616  -19.4494  -44.8117 H         1 UNK         0.0600 
    167 H167        0.4510  -18.5174  -43.4100 H         1 UNK         0.0600 
    168 H168       -0.6225  -18.6953  -44.7996 H         1 UNK         0.0600 
    169 H169        0.0919  -16.1429  -43.6239 H         1 UNK         0.3000 
    170 H170       -1.0373  -14.1780  -43.6910 H         1 UNK         0.0600 
    171 H171        1.3102  -12.4810  -44.7079 H         1 UNK         0.0600 
    172 H172        1.3171  -13.4696  -43.2529 H         1 UNK         0.0600 
    173 H173        0.2536  -12.0749  -43.3549 H         1 UNK         0.0600 
    174 H174       -0.8529  -12.1685  -45.7989 H         1 UNK         0.3000 
    175 H175       -2.9459  -11.4206  -46.6061 H         1 UNK         0.0600 
    176 H176       -3.0266  -12.0726  -48.9899 H         1 UNK         0.0600 
    177 H177       -1.5251  -12.6387  -48.2764 H         1 UNK         0.0600 
    178 H178       -2.8362  -13.7712  -48.5742 H         1 UNK         0.0600 
    179 H179       -4.9379  -13.4981  -47.3594 H         1 UNK         0.3000 
    180 H180       -7.4547  -12.1608  -45.3310 H         1 UNK         0.0600 
    181 H181       -7.2714  -11.4319  -48.3028 H         1 UNK         0.0600 
    182 H182       -7.5628  -10.3024  -46.9857 H         1 UNK         0.0600 
    183 H183       -8.7550  -11.5380  -47.3539 H         1 UNK         0.0600 
    184 H184       -7.3884  -13.8110  -47.7401 H         1 UNK         0.3000 
    185 H185       -7.9709  -16.7076  -45.9459 H         1 UNK         0.0600 
    186 H186       -9.0223  -15.5854  -47.9159 H         1 UNK         0.0600 
    187 H187       -7.4740  -15.5597  -48.7545 H         1 UNK         0.0600 
    188 H188       -8.2430  -17.0894  -48.3665 H         1 UNK         0.0600 
    189 H189       -5.9584  -17.6330  -46.0934 H         1 UNK         0.3000 
    190 H190        0.9273  -22.1626  -44.0797 H         1 UNK         0.3000 
    191 H191       -1.5778  -20.8758  -43.6879 H         1 UNK         0.0600 
    192 H192        0.4940  -20.5809  -42.2455 H         1 UNK         0.0600 
    193 H193       -0.9678  -20.8947  -41.3208 H         1 UNK         0.0600 
    194 H194        0.2067  -22.1768  -41.5637 H         1 UNK         0.0600 
    195 H195       -0.5427  -24.2610  -43.1582 H         1 UNK         0.3000 
    196 H196       -2.9952  -25.2089  -42.0502 H         1 UNK         0.0600 
    197 H197       -0.7813  -26.7235  -43.5310 H         1 UNK         0.0600 
    198 H198       -2.0439  -27.4531  -42.5487 H         1 UNK         0.0600 
    199 H199       -0.8427  -26.4132  -41.7980 H         1 UNK         0.0600 
    200 H200       -1.8031  -25.0383  -45.4320 H         1 UNK         0.3000 
    201 H201       -4.1177  -26.2165  -46.6595 H         1 UNK         0.0600 
    202 H202       -3.1721  -25.2375  -48.7390 H         1 UNK         0.0600 
    203 H203       -1.9033  -26.0092  -47.7999 H         1 UNK         0.0600 
    204 H204       -2.0571  -24.2539  -47.8036 H         1 UNK         0.0600 
    205 H205       -3.2643  -22.9254  -45.7145 H         1 UNK         0.3000 
    206 H206       -4.3325  -21.0894  -45.3139 H         1 UNK         0.0600 
    207 H207       -6.9412  -22.7151  -45.3202 H         1 UNK         0.0600 
    208 H208       -5.8820  -22.4634  -43.9391 H         1 UNK         0.0600 
    209 H209       -6.7257  -21.0987  -44.6426 H         1 UNK         0.0600 
    210 H210       -7.3370  -21.1426  -46.7126 H         1 UNK         0.3000 
    211 H211       -6.7279  -19.2714  -48.7134 H         1 UNK         0.0600 
    212 H212       -9.1361  -19.5487  -49.3211 H         1 UNK         0.0600 
    213 H213       -8.9294  -19.4504  -47.5804 H         1 UNK         0.0600 
    214 H214       -9.2254  -21.0116  -48.3472 H         1 UNK         0.0600 
    215 H215       -6.4727  -22.7249  -48.9382 H         1 UNK         0.3000 
    216 H216       -6.7721  -22.9850  -51.8009 H         1 UNK         0.0600 
    217 H217       -5.3225  -24.7840  -49.7904 H         1 UNK         0.0600 
    218 H218       -7.0265  -24.9108  -50.2250 H         1 UNK         0.0600 
    219 H219       -5.7840  -25.2199  -51.4285 H         1 UNK         0.0600 
    220 H220       -4.1893  -21.8071  -49.7258 H         1 UNK         0.3000 
    221 H221       -2.1149  -21.9830  -51.8338 H         1 UNK         0.0600 
    222 H222       -2.0462  -20.8457  -48.9889 H         1 UNK         0.0600 
    223 H223       -1.4344  -22.4184  -49.4879 H         1 UNK         0.0600 
    224 H224       -0.6838  -20.9500  -50.0919 H         1 UNK         0.0600 
    225 H225       -3.4560  -20.7845  -53.3608 H         1 UNK         0.3000 
    226 H226       -4.3243  -18.0917  -52.8739 H         1 UNK         0.0600 
    227 H227       -5.3569  -19.5535  -54.6015 H         1 UNK         0.0600 
    228 H228       -4.7229  -18.0913  -55.3407 H         1 UNK         0.0600 
    229 H229       -3.8399  -19.6050  -55.4999 H         1 UNK         0.0600 
    230 H230       -3.2846  -16.1704  -53.1706 H         1 UNK         0.3000 
    231 H231       -0.4676  -15.9983  -53.2632 H         1 UNK         0.0600 
    232 H232       -2.6039  -13.8320  -53.6400 H         1 UNK         0.0600 
    233 H233       -0.9086  -13.5378  -53.2726 H         1 UNK         0.0600 
    234 H234       -1.9228  -14.3615  -52.1004 H         1 UNK         0.0600 
    235 H235       -2.5892  -16.3846  -55.8637 H         1 UNK         0.3000 
    236 H236       -1.3651  -15.0190  -58.0116 H         1 UNK         0.0600 
    237 H237       -2.9531  -17.6438  -57.9423 H         1 UNK         0.0600 
    238 H238       -3.6348  -16.0248  -58.1073 H         1 UNK         0.0600 
    239 H239       -2.6321  -16.6895  -59.3855 H         1 UNK         0.0600 
    240 H240       -0.1139  -17.6809  -56.1853 H         1 UNK         0.3000 
    241 H241        1.6225  -18.8041  -58.1636 H         1 UNK         0.0600 
    242 H242        3.4813  -15.3564  -57.0699 H         1 UNK         0.3800 
    243 H243        1.8394  -15.6669  -56.5583 H         1 UNK         0.3800 
    244 H244        2.7964  -19.8668  -56.3130 H         1 UNK         0.0800 
    245 H245        1.0766  -20.0200  -56.1008 H         1 UNK         0.0800 
    246 H246        1.9730  -20.8410  -53.6277 H         1 UNK         0.0800 
    247 H247        0.3781  -20.1281  -53.6288 H         1 UNK         0.0800 
@<TRIPOS>BOND
     1    1    2 1    
     2    1  127 1    
     3    1  128 1    
     4    1  129 1    
     5    2    3 2    
     6    2    4 am   BACKBONE|DICT|INTERRES
     7    4    5 1    
     8    4  130 1    
     9    5    6 1    
    10    5   65 1    
    11    5  131 1    
    12    6    7 1    
    13    6  132 1    
    14    6  133 1    
    15    7    8 1    
    16    8    9 1    
    17    8  134 1    
    18    8  135 1    
    19    9   10 ar   
    20    9   14 ar   
    21   10   11 ar   
    22   10  136 1    
    23   11   12 ar   
    24   11  126 1    
    25   12   13 ar   
    26   12  137 1    
    27   13   14 ar   
    28   13   15 1    
    29   14  138 1    
    30   15   16 1    
    31   15  139 1    
    32   15  140 1    
    33   16   17 1    
    34   17   18 1    
    35   17  141 1    
    36   17  142 1    
    37   18   19 1    
    38   18   67 1    
    39   18  143 1    
    40   19   20 am   BACKBONE|DICT|INTERRES
    41   19  144 1    
    42   20   21 2    
    43   20   22 1    
    44   22   23 1    
    45   22   24 1    
    46   22  145 1    
    47   23  146 1    
    48   23  147 1    
    49   23  148 1    
    50   24   25 am   BACKBONE|DICT|INTERRES
    51   24  149 1    
    52   25   26 2    
    53   25   27 1    
    54   27   28 1    
    55   27   29 1    
    56   27  150 1    
    57   28  151 1    
    58   28  152 1    
    59   28  153 1    
    60   29   30 am   BACKBONE|DICT|INTERRES
    61   29  154 1    
    62   30   31 2    
    63   30   32 1    
    64   32   33 1    
    65   32   34 1    
    66   32  155 1    
    67   33  156 1    
    68   33  157 1    
    69   33  158 1    
    70   34   35 am   BACKBONE|DICT|INTERRES
    71   34  159 1    
    72   35   36 2    
    73   35   37 1    
    74   37   38 1    
    75   37   39 1    
    76   37  160 1    
    77   38  161 1    
    78   38  162 1    
    79   38  163 1    
    80   39   40 am   BACKBONE|DICT|INTERRES
    81   39  164 1    
    82   40   41 2    
    83   40   42 1    
    84   42   43 1    
    85   42   44 1    
    86   42  165 1    
    87   43  166 1    
    88   43  167 1    
    89   43  168 1    
    90   44   45 am   BACKBONE|DICT|INTERRES
    91   44  169 1    
    92   45   46 2    
    93   45   47 1    
    94   47   48 1    
    95   47   49 1    
    96   47  170 1    
    97   48  171 1    
    98   48  172 1    
    99   48  173 1    
   100   49   50 am   BACKBONE|DICT|INTERRES
   101   49  174 1    
   102   50   51 2    
   103   50   52 1    
   104   52   53 1    
   105   52   54 1    
   106   52  175 1    
   107   53  176 1    
   108   53  177 1    
   109   53  178 1    
   110   54   55 am   BACKBONE|DICT|INTERRES
   111   54  179 1    
   112   55   56 2    
   113   55   57 1    
   114   57   58 1    
   115   57   59 1    
   116   57  180 1    
   117   58  181 1    
   118   58  182 1    
   119   58  183 1    
   120   59   60 am   BACKBONE|DICT|INTERRES
   121   59  184 1    
   122   60   61 2    
   123   60   62 1    
   124   62   63 1    
   125   62   64 1    
   126   62  185 1    
   127   63  186 1    
   128   63  187 1    
   129   63  188 1    
   130   64   65 am   BACKBONE|DICT|INTERRES
   131   64  189 1    
   132   65   66 2    
   133   67   68 2    
   134   67   69 am   BACKBONE|DICT|INTERRES
   135   69   70 1    
   136   69  190 1    
   137   70   71 1    
   138   70   72 1    
   139   70  191 1    
   140   71  192 1    
   141   71  193 1    
   142   71  194 1    
   143   72   73 2    
   144   72   74 am   BACKBONE|DICT|INTERRES
   145   74   75 1    
   146   74  195 1    
   147   75   76 1    
   148   75   77 1    
   149   75  196 1    
   150   76  197 1    
   151   76  198 1    
   152   76  199 1    
   153   77   78 2    
   154   77   79 am   BACKBONE|DICT|INTERRES
   155   79   80 1    
   156   79  200 1    
   157   80   81 1    
   158   80   82 1    
   159   80  201 1    
   160   81  202 1    
   161   81  203 1    
   162   81  204 1    
   163   82   83 2    
   164   82   84 am   BACKBONE|DICT|INTERRES
   165   84   85 1    
   166   84  205 1    
   167   85   86 1    
   168   85   87 1    
   169   85  206 1    
   170   86  207 1    
   171   86  208 1    
   172   86  209 1    
   173   87   88 2    
   174   87   89 am   BACKBONE|DICT|INTERRES
   175   89   90 1    
   176   89  210 1    
   177   90   91 1    
   178   90   92 1    
   179   90  211 1    
   180   91  212 1    
   181   91  213 1    
   182   91  214 1    
   183   92   93 2    
   184   92   94 am   BACKBONE|DICT|INTERRES
   185   94   95 1    
   186   94  215 1    
   187   95   96 1    
   188   95   97 1    
   189   95  216 1    
   190   96  217 1    
   191   96  218 1    
   192   96  219 1    
   193   97   98 2    
   194   97   99 am   BACKBONE|DICT|INTERRES
   195   99  100 1    
   196   99  220 1    
   197  100  101 1    
   198  100  102 1    
   199  100  221 1    
   200  101  222 1    
   201  101  223 1    
   202  101  224 1    
   203  102  103 2    
   204  102  104 am   BACKBONE|DICT|INTERRES
   205  104  105 1    
   206  104  225 1    
   207  105  106 1    
   208  105  107 1    
   209  105  226 1    
   210  106  227 1    
   211  106  228 1    
   212  106  229 1    
   213  107  108 2    
   214  107  109 am   BACKBONE|DICT|INTERRES
   215  109  110 1    
   216  109  230 1    
   217  110  111 1    
   218  110  112 1    
   219  110  231 1    
   220  111  232 1    
   221  111  233 1    
   222  111  234 1    
   223  112  113 2    
   224  112  114 am   BACKBONE|DICT|INTERRES
   225  114  115 1    
   226  114  235 1    
   227  115  116 1    
   228  115  117 1    
   229  115  236 1    
   230  116  237 1    
   231  116  238 1    
   232  116  239 1    
   233  117  118 2    
   234  117  119 am   BACKBONE|DICT|INTERRES
   235  119  120 1    
   236  119  240 1    
   237  120  121 1    
   238  120  124 1    
   239  120  241 1    
   240  121  122 am   BACKBONE|DICT|INTERRES
   241  121  123 2    
   242  122  242 1    
   243  122  243 1    
   244  124  125 1    
   245  124  244 1    
   246  124  245 1    
   247  125  126 1    
   248  126  246 1    
   249  126  247 1    
@<TRIPOS>SUBSTRUCTURE
     1 UNK         1 GROUP             0       ****    0 ROOT    
