@<TRIPOS>MOLECULE
3R540
247   249    1
SMALL
USER_CHARGES


@<TRIPOS>ATOM
      1 CA          4.4766  -11.8340  -45.3344 C.3       0 UNK        -0.1800 
      2 C           3.0341  -11.3508  -45.2797 C.2       0 UNK         0.5000 
      3 O           2.7893  -10.1780  -44.9944 O.2       0 UNK        -0.5000 
      4 N           2.0827  -12.2535  -45.5415 N.am      1 UNK        -0.5000 
      5 CA          0.6452  -11.9796  -45.6123 C.3       1 UNK         0.1400 
      6 C6         -0.1698  -13.2964  -45.5108 C.3       23 UNK        -0.0398 
      7 S7         -1.6951  -13.0872  -44.5299 S.3       23 UNK        -0.2404 
      8 C8         -2.9914  -13.5205  -45.7328 C.3       23 UNK        -0.0205 
      9 C9         -2.8949  -14.9664  -46.1986 C.ar      23 UNK        -0.0193 
     10 C10        -2.6809  -15.2516  -47.5491 C.ar      23 UNK        -0.1150 
     11 C11        -2.6114  -16.5735  -47.9946 C.ar      23 UNK        -0.0193 
     12 C12        -2.7372  -17.6174  -47.0750 C.ar      23 UNK        -0.1150 
     13 C13        -2.9472  -17.3457  -45.7204 C.ar      23 UNK        -0.0193 
     14 C14        -3.0332  -16.0190  -45.2884 C.ar      23 UNK        -0.1150 
     15 C15        -3.0888  -18.4878  -44.7302 C.3       23 UNK        -0.0205 
     16 S16        -1.4619  -19.0710  -44.1665 S.3       23 UNK        -0.2404 
     17 C17        -1.9587  -20.5470  -43.2203 C.3       23 UNK        -0.0398 
     18 CA         -1.9904  -21.8103  -44.1101 C.3       11 UNK         0.1400 
     19 N          -0.6612  -22.1955  -44.5979 N.am      11 UNK        -0.5000 
     20 C          -0.4215  -23.1594  -45.4972 C.2       10 UNK         0.5000 
     21 O          -1.3062  -23.8251  -46.0315 O.2       10 UNK        -0.5000 
     22 CA          1.0456  -23.4715  -45.8206 C.3       10 UNK         0.1400 
     23 CB          1.6338  -22.4331  -46.7885 C.3       10 UNK        -0.1800 
     24 N           1.8453  -23.5489  -44.5996 N.am      10 UNK        -0.5000 
     25 C           1.7923  -24.5738  -43.7357 C.2       9 UNK         0.5000 
     26 O           1.1203  -25.5881  -43.9211 O.2       9 UNK        -0.5000 
     27 CA          2.6062  -24.4365  -42.4350 C.3       9 UNK         0.1400 
     28 CB          4.0229  -24.9981  -42.6257 C.3       9 UNK        -0.1800 
     29 N           2.6975  -23.0559  -41.9579 N.am      9 UNK        -0.5000 
     30 C           1.6651  -22.3406  -41.4896 C.2       8 UNK         0.5000 
     31 O           0.5177  -22.7749  -41.3886 O.2       8 UNK        -0.5000 
     32 CA          1.9586  -20.8680  -41.1423 C.3       8 UNK         0.1400 
     33 CB          2.5550  -20.7505  -39.7319 C.3       8 UNK        -0.1800 
     34 N           2.8487  -20.2125  -42.1089 N.am      8 UNK        -0.5000 
     35 C           2.5696  -20.0828  -43.4117 C.2       7 UNK         0.5000 
     36 O           1.5466  -20.5321  -43.9339 O.2       7 UNK        -0.5000 
     37 CA          3.6142  -19.3923  -44.2953 C.3       7 UNK         0.1400 
     38 CB          4.7006  -20.3979  -44.7221 C.3       7 UNK        -0.1800 
     39 N           2.9055  -18.8758  -45.4597 N.am      7 UNK        -0.5000 
     40 C           3.3641  -18.0197  -46.3757 C.2       6 UNK         0.5000 
     41 O           4.5178  -17.5826  -46.3816 O.2       6 UNK        -0.5000 
     42 CA          2.3705  -17.6212  -47.4927 C.3       6 UNK         0.1400 
     43 CB          0.9027  -17.5551  -47.0117 C.3       6 UNK        -0.1800 
     44 N           2.7308  -16.3752  -48.1768 N.am      6 UNK        -0.5000 
     45 C           2.8554  -15.1565  -47.6303 C.2       5 UNK         0.5000 
     46 O           2.6944  -14.9034  -46.4351 O.2       5 UNK        -0.5000 
     47 CA          3.1997  -14.0069  -48.5961 C.3       5 UNK         0.1400 
     48 CB          4.7222  -13.8630  -48.7422 C.3       5 UNK        -0.1800 
     49 N           2.5938  -14.1261  -49.9262 N.am      5 UNK        -0.5000 
     50 C           1.2752  -14.1494  -50.1657 C.2       4 UNK         0.5000 
     51 O           0.4143  -14.2053  -49.2865 O.2       4 UNK        -0.5000 
     52 CA          0.8450  -14.1046  -51.6441 C.3       4 UNK         0.1400 
     53 CB          0.4316  -15.4968  -52.1459 C.3       4 UNK        -0.1800 
     54 N          -0.2670  -13.1704  -51.8209 N.am      4 UNK        -0.5000 
     55 C          -0.1371  -11.8388  -51.7562 C.2       3 UNK         0.5000 
     56 O           0.9533  -11.2659  -51.7030 O.2       3 UNK        -0.5000 
     57 CA         -1.4203  -10.9827  -51.7382 C.3       3 UNK         0.1400 
     58 CB         -2.7136  -11.7429  -52.1134 C.3       3 UNK        -0.1800 
     59 N          -1.5404  -10.2921  -50.4491 N.am      3 UNK        -0.5000 
     60 C          -1.7306  -10.8604  -49.2493 C.2       2 UNK         0.5000 
     61 O          -2.0370  -12.0413  -49.0807 O.2       2 UNK        -0.5000 
     62 CA         -1.5676   -9.9392  -48.0239 C.3       2 UNK         0.1400 
     63 CB         -2.9287   -9.3724  -47.5921 C.3       2 UNK        -0.1800 
     64 N          -0.9648  -10.6392  -46.8871 N.am      2 UNK        -0.5000 
     65 C           0.2680  -11.1644  -46.8730 C.2       1 UNK         0.5000 
     66 O           1.0762  -11.0253  -47.7956 O.2       1 UNK        -0.5000 
     67 C          -2.7103  -22.9735  -43.3993 C.2       11 UNK         0.5000 
     68 O          -3.8981  -23.1858  -43.6464 O.2       11 UNK        -0.5000 
     69 N          -1.9682  -23.7556  -42.6015 N.am      12 UNK        -0.5000 
     70 CA         -2.4379  -24.9919  -41.9665 C.3       12 UNK         0.1400 
     71 CB         -1.3578  -25.5007  -41.0001 C.3       12 UNK        -0.1800 
     72 C          -2.8268  -26.1000  -42.9696 C.2       12 UNK         0.5000 
     73 O          -3.6303  -26.9686  -42.6294 O.2       12 UNK        -0.5000 
     74 N          -2.2759  -26.0336  -44.1878 N.am      13 UNK        -0.5000 
     75 CA         -2.5653  -26.9160  -45.3158 C.3       13 UNK         0.1400 
     76 CB         -1.2330  -27.3101  -45.9788 C.3       13 UNK        -0.1800 
     77 C          -3.5376  -26.2642  -46.3230 C.2       13 UNK         0.5000 
     78 O          -3.5602  -26.6734  -47.4837 O.2       13 UNK        -0.5000 
     79 N          -4.3132  -25.2599  -45.8823 N.am      14 UNK        -0.5000 
     80 CA         -5.3108  -24.5069  -46.6534 C.3       14 UNK         0.1400 
     81 CB         -6.4849  -25.4175  -47.0711 C.3       14 UNK        -0.1800 
     82 C          -4.6829  -23.7490  -47.8403 C.2       14 UNK         0.5000 
     83 O          -5.1000  -23.9224  -48.9870 O.2       14 UNK        -0.5000 
     84 N          -3.6512  -22.9520  -47.5298 N.am      15 UNK        -0.5000 
     85 CA         -2.7981  -22.2012  -48.4586 C.3       15 UNK         0.1400 
     86 CB         -3.5936  -21.0877  -49.1700 C.3       15 UNK        -0.1800 
     87 C          -2.0568  -23.1392  -49.4321 C.2       15 UNK         0.5000 
     88 O          -2.0258  -22.8842  -50.6364 O.2       15 UNK        -0.5000 
     89 N          -1.5112  -24.2315  -48.8752 N.am      16 UNK        -0.5000 
     90 CA         -0.8423  -25.3439  -49.5578 C.3       16 UNK         0.1400 
     91 CB          0.5332  -24.8956  -50.0912 C.3       16 UNK        -0.1800 
     92 C          -1.7394  -25.9940  -50.6332 C.2       16 UNK         0.5000 
     93 O          -1.3232  -26.1481  -51.7822 O.2       16 UNK        -0.5000 
     94 N          -2.9713  -26.3342  -50.2264 N.am      17 UNK        -0.5000 
     95 CA         -4.0743  -26.8447  -51.0445 C.3       17 UNK         0.1400 
     96 CB         -3.7605  -28.2629  -51.5651 C.3       17 UNK        -0.1800 
     97 C          -4.4811  -25.8567  -52.1584 C.2       17 UNK         0.5000 
     98 O          -4.6081  -26.2489  -53.3202 O.2       17 UNK        -0.5000 
     99 N          -4.6713  -24.5879  -51.7661 N.am      18 UNK        -0.5000 
    100 CA        -5.0225  -23.4366  -52.6023 C.3       18 UNK         0.1400 
    101 CB        -6.4764  -23.5578  -53.1032 C.3       18 UNK        -0.1800 
    102 C         -4.0071  -23.1855  -53.7374 C.2       18 UNK         0.5000 
    103 O         -4.3887  -23.0781  -54.9050 O.2       18 UNK        -0.5000 
    104 N         -2.7211  -23.0964  -53.3711 N.am      19 UNK        -0.5000 
    105 CA        -1.6117  -22.8023  -54.2836 C.3       19 UNK         0.1400 
    106 CB        -0.2832  -23.1293  -53.5861 C.3       19 UNK        -0.1800 
    107 C         -1.6082  -21.3434  -54.7823 C.2       19 UNK         0.5000 
    108 O         -1.0216  -21.0607  -55.8280 O.2       19 UNK        -0.5000 
    109 N         -2.2685  -20.4536  -54.0351 N.am      20 UNK        -0.5000 
    110 CA        -2.5299  -19.0635  -54.3811 C.3       20 UNK         0.1400 
    111 CB        -1.6228  -18.1553  -53.5342 C.3       20 UNK        -0.1800 
    112 C         -4.0113  -18.7667  -54.1069 C.2       20 UNK         0.5000 
    113 O         -4.6461  -19.4770  -53.3216 O.2       20 UNK        -0.5000 
    114 N         -4.5306  -17.7129  -54.7494 N.am      21 UNK        -0.5000 
    115 CA        -5.8962  -17.2193  -54.5480 C.3       21 UNK         0.1400 
    116 CB        -6.2799  -16.3053  -55.7221 C.3       21 UNK        -0.1800 
    117 C         -6.0680  -16.4776  -53.2078 C.2       21 UNK         0.5000 
    118 O         -7.1632  -16.4923  -52.6450 O.2       21 UNK        -0.5000 
    119 N         -4.9811  -15.8542  -52.7289 N.am      22 UNK        -0.5000 
    120 CA        -4.8706  -15.1544  -51.4349 C.3       22 UNK         0.1400 
    121 C         -5.7402  -13.8643  -51.3095 C.2       22 UNK         0.5000 
    122 N         -6.1769  -13.2577  -52.4068 N.am      22 UNK        -0.7600 
    123 O         -6.0023  -13.3851  -50.2100 O.2       22 UNK        -0.5000 
    124 C124       -5.0261  -16.1043  -50.2136 C.3       23 UNK        -0.0398 
    125 S125       -3.8883  -17.5337  -50.2682 S.3       23 UNK        -0.2404 
    126 C126       -2.3933  -16.8700  -49.4689 C.3       23 UNK        -0.0205 
    127 H127        5.0038  -11.5518  -44.4231 H         1 UNK         0.0600 
    128 H128        4.9912  -11.3823  -46.1825 H         1 UNK         0.0600 
    129 H129        4.5357  -12.9180  -45.4364 H         1 UNK         0.0600 
    130 H130        2.3524  -13.2048  -45.7824 H         1 UNK         0.3000 
    131 H131        0.4130  -11.3549  -44.7468 H         1 UNK         0.0600 
    132 H132        0.4085  -14.0659  -44.9968 H         1 UNK         0.0800 
    133 H133       -0.3850  -13.7151  -46.4966 H         1 UNK         0.0800 
    134 H134       -2.9396  -12.8347  -46.5797 H         1 UNK         0.0800 
    135 H135       -3.9672  -13.3638  -45.2714 H         1 UNK         0.0800 
    136 H136       -2.5719  -14.4430  -48.2583 H         1 UNK         0.1150 
    137 H137       -2.6726  -18.6411  -47.4151 H         1 UNK         0.1150 
    138 H138       -3.1974  -15.8029  -44.2421 H         1 UNK         0.1150 
    139 H139       -3.6807  -18.1727  -43.8694 H         1 UNK         0.0800 
    140 H140       -3.6338  -19.3093  -45.1976 H         1 UNK         0.0800 
    141 H141       -2.9336  -20.3580  -42.7667 H         1 UNK         0.0800 
    142 H142       -1.2592  -20.6804  -42.3936 H         1 UNK         0.0800 
    143 H143       -2.5905  -21.5764  -44.9916 H         1 UNK         0.0600 
    144 H144        0.1232  -21.6542  -44.2400 H         1 UNK         0.3000 
    145 H145        1.0783  -24.4435  -46.3179 H         1 UNK         0.0600 
    146 H146        1.6092  -21.4250  -46.3771 H         1 UNK         0.0600 
    147 H147        2.6687  -22.6684  -47.0370 H         1 UNK         0.0600 
    148 H148        1.0719  -22.4148  -47.7233 H         1 UNK         0.0600 
    149 H149        2.3673  -22.7241  -44.3440 H         1 UNK         0.3000 
    150 H150        2.1039  -25.0280  -41.6666 H         1 UNK         0.0600 
    151 H151        3.9894  -26.0357  -42.9607 H         1 UNK         0.0600 
    152 H152        4.5844  -24.9778  -41.6915 H         1 UNK         0.0600 
    153 H153        4.5850  -24.4311  -43.3689 H         1 UNK         0.0600 
    154 H154        3.6030  -22.6136  -42.0121 H         1 UNK         0.3000 
    155 H155        1.0066  -20.3332  -41.1544 H         1 UNK         0.0600 
    156 H156        1.9033  -21.2181  -38.9926 H         1 UNK         0.0600 
    157 H157        2.6770  -19.7069  -39.4412 H         1 UNK         0.0600 
    158 H158        3.5299  -21.2348  -39.6635 H         1 UNK         0.0600 
    159 H159        3.7112  -19.8323  -41.7463 H         1 UNK         0.3000 
    160 H160        4.0595  -18.5614  -43.7448 H         1 UNK         0.0600 
    161 H161        5.4687  -19.9220  -45.3314 H         1 UNK         0.0600 
    162 H162        4.2805  -21.2219  -45.3003 H         1 UNK         0.0600 
    163 H163        5.2023  -20.8269  -43.8540 H         1 UNK         0.0600 
    164 H164        1.9411  -19.1842  -45.4998 H         1 UNK         0.3000 
    165 H165        2.4351  -18.4055  -48.2479 H         1 UNK         0.0600 
    166 H166        0.7840  -16.8920  -46.1537 H         1 UNK         0.0600 
    167 H167        0.2515  -17.1843  -47.8026 H         1 UNK         0.0600 
    168 H168        0.5254  -18.5374  -46.7257 H         1 UNK         0.0600 
    169 H169        2.9119  -16.4583  -49.1662 H         1 UNK         0.3000 
    170 H170        2.8182  -13.0857  -48.1534 H         1 UNK         0.0600 
    171 H171        5.1630  -14.7306  -49.2345 H         1 UNK         0.0600 
    172 H172        4.9813  -12.9774  -49.3227 H         1 UNK         0.0600 
    173 H173        5.2015  -13.7619  -47.7677 H         1 UNK         0.0600 
    174 H174        3.2300  -14.0912  -50.7095 H         1 UNK         0.3000 
    175 H175        1.6863  -13.7621  -52.2507 H         1 UNK         0.0600 
    176 H176       -0.4232  -15.8898  -51.5975 H         1 UNK         0.0600 
    177 H177        0.1680  -15.4707  -53.2032 H         1 UNK         0.0600 
    178 H178        1.2483  -16.2108  -52.0330 H         1 UNK         0.0600 
    179 H179       -1.1953  -13.5625  -51.7926 H         1 UNK         0.3000 
    180 H180       -1.2755  -10.2052  -52.4897 H         1 UNK         0.0600 
    181 H181       -2.9430  -12.5485  -51.4179 H         1 UNK         0.0600 
    182 H182       -2.6353  -12.1798  -53.1096 H         1 UNK         0.0600 
    183 H183       -3.5705  -11.0693  -52.1257 H         1 UNK         0.0600 
    184 H184       -1.2922   -9.3129  -50.4722 H         1 UNK         0.3000 
    185 H185       -0.9110   -9.1086  -48.2913 H         1 UNK         0.0600 
    186 H186       -2.8232   -8.6845  -46.7530 H         1 UNK         0.0600 
    187 H187       -3.3983   -8.8202  -48.4072 H         1 UNK         0.0600 
    188 H188       -3.6170  -10.1646  -47.2940 H         1 UNK         0.0600 
    189 H189       -1.5744  -10.8209  -46.1033 H         1 UNK         0.3000 
    190 H190       -1.0086  -23.4850  -42.4041 H         1 UNK         0.3000 
    191 H191       -3.3303  -24.7500  -41.3858 H         1 UNK         0.0600 
    192 H192       -0.4294  -25.7318  -41.5232 H         1 UNK         0.0600 
    193 H193       -1.1345  -24.7597  -40.2323 H         1 UNK         0.0600 
    194 H194       -1.6831  -26.4083  -40.4901 H         1 UNK         0.0600 
    195 H195       -1.6446  -25.2689  -44.3896 H         1 UNK         0.3000 
    196 H196       -3.0454  -27.8302  -44.9621 H         1 UNK         0.0600 
    197 H197       -0.5689  -27.7950  -45.2632 H         1 UNK         0.0600 
    198 H198       -0.7092  -26.4416  -46.3775 H         1 UNK         0.0600 
    199 H199       -1.3882  -28.0105  -46.8003 H         1 UNK         0.0600 
    200 H200       -4.1843  -24.9486  -44.9273 H         1 UNK         0.3000 
    201 H201       -5.7100  -23.7467  -45.9803 H         1 UNK         0.0600 
    202 H202       -7.2755  -24.8372  -47.5483 H         1 UNK         0.0600 
    203 H203       -6.9243  -25.9149  -46.2066 H         1 UNK         0.0600 
    204 H204       -6.1750  -26.1868  -47.7790 H         1 UNK         0.0600 
    205 H205       -3.3197  -22.9829  -46.5754 H         1 UNK         0.3000 
    206 H206       -2.0294  -21.7175  -47.8543 H         1 UNK         0.0600 
    207 H207       -4.0858  -20.4328  -48.4513 H         1 UNK         0.0600 
    208 H208       -4.3594  -21.4899  -49.8327 H         1 UNK         0.0600 
    209 H209       -2.9342  -20.4657  -49.7763 H         1 UNK         0.0600 
    210 H210       -1.5983  -24.3214  -47.8671 H         1 UNK         0.3000 
    211 H211       -0.6672  -26.1126  -48.8045 H         1 UNK         0.0600 
    212 H212        1.1605  -24.5137  -49.2861 H         1 UNK         0.0600 
    213 H213        1.0664  -25.7292  -50.5496 H         1 UNK         0.0600 
    214 H214        0.4408  -24.1121  -50.8426 H         1 UNK         0.0600 
    215 H215       -3.1958  -26.2164  -49.2402 H         1 UNK         0.3000 
    216 H216       -4.9338  -26.9229  -50.3770 H         1 UNK         0.0600 
    217 H217       -4.6249  -28.6907  -52.0742 H         1 UNK         0.0600 
    218 H218       -2.9316  -28.2629  -52.2734 H         1 UNK         0.0600 
    219 H219       -3.5020  -28.9339  -50.7459 H         1 UNK         0.0600 
    220 H220       -4.5792  -24.3816  -50.7741 H         1 UNK         0.3000 
    221 H221       -4.9736  -22.5617  -51.9529 H         1 UNK         0.0600 
    222 H222       -6.6038  -24.4017  -53.7818 H         1 UNK         0.0600 
    223 H223       -7.1688  -23.6882  -52.2715 H         1 UNK         0.0600 
    224 H224       -6.7794  -22.6573  -53.6388 H         1 UNK         0.0600 
    225 H225       -2.4832  -23.1734  -52.3829 H         1 UNK         0.3000 
    226 H226       -1.7070  -23.4501  -55.1574 H         1 UNK         0.0600 
    227 H227       -0.2404  -24.1778  -53.2930 H         1 UNK         0.0600 
    228 H228        0.5636  -22.9436  -54.2478 H         1 UNK         0.0600 
    229 H229       -0.1407  -22.5225  -52.6911 H         1 UNK         0.0600 
    230 H230       -2.7789  -20.7888  -53.2287 H         1 UNK         0.3000 
    231 H231       -2.3348  -18.8895  -55.4414 H         1 UNK         0.0600 
    232 H232       -1.7979  -17.1031  -53.7595 H         1 UNK         0.0600 
    233 H233       -0.5699  -18.3583  -53.7304 H         1 UNK         0.0600 
    234 H234       -1.7958  -18.2967  -52.4666 H         1 UNK         0.0600 
    235 H235       -3.9525  -17.1927  -55.3938 H         1 UNK         0.3000 
    236 H236       -6.5780  -18.0727  -54.5446 H         1 UNK         0.0600 
    237 H237       -6.2309  -16.8407  -56.6705 H         1 UNK         0.0600 
    238 H238       -7.3003  -15.9359  -55.6116 H         1 UNK         0.0600 
    239 H239       -5.6223  -15.4379  -55.7913 H         1 UNK         0.0600 
    240 H240       -4.1342  -15.9020  -53.2739 H         1 UNK         0.3000 
    241 H241       -3.8466  -14.7829  -51.4049 H         1 UNK         0.0600 
    242 H242       -5.9726  -13.6336  -53.3184 H         1 UNK         0.3800 
    243 H243       -6.7323  -12.4211  -52.3219 H         1 UNK         0.3800 
    244 H244       -4.8699  -15.5640  -49.2798 H         1 UNK         0.0800 
    245 H245       -6.0456  -16.4881  -50.1628 H         1 UNK         0.0800 
    246 H246       -1.5838  -17.5934  -49.5753 H         1 UNK         0.0800 
    247 H247       -2.0732  -15.9699  -49.9940 H         1 UNK         0.0800 
@<TRIPOS>BOND
     1    1    2 1    
     2    1  127 1    
     3    1  128 1    
     4    1  129 1    
     5    2    3 2    
     6    2    4 am   BACKBONE|DICT|INTERRES
     7    4    5 1    
     8    4  130 1    
     9    5    6 1    
    10    5   65 1    
    11    5  131 1    
    12    6    7 1    
    13    6  132 1    
    14    6  133 1    
    15    7    8 1    
    16    8    9 1    
    17    8  134 1    
    18    8  135 1    
    19    9   10 ar   
    20    9   14 ar   
    21   10   11 ar   
    22   10  136 1    
    23   11   12 ar   
    24   11  126 1    
    25   12   13 ar   
    26   12  137 1    
    27   13   14 ar   
    28   13   15 1    
    29   14  138 1    
    30   15   16 1    
    31   15  139 1    
    32   15  140 1    
    33   16   17 1    
    34   17   18 1    
    35   17  141 1    
    36   17  142 1    
    37   18   19 1    
    38   18   67 1    
    39   18  143 1    
    40   19   20 am   BACKBONE|DICT|INTERRES
    41   19  144 1    
    42   20   21 2    
    43   20   22 1    
    44   22   23 1    
    45   22   24 1    
    46   22  145 1    
    47   23  146 1    
    48   23  147 1    
    49   23  148 1    
    50   24   25 am   BACKBONE|DICT|INTERRES
    51   24  149 1    
    52   25   26 2    
    53   25   27 1    
    54   27   28 1    
    55   27   29 1    
    56   27  150 1    
    57   28  151 1    
    58   28  152 1    
    59   28  153 1    
    60   29   30 am   BACKBONE|DICT|INTERRES
    61   29  154 1    
    62   30   31 2    
    63   30   32 1    
    64   32   33 1    
    65   32   34 1    
    66   32  155 1    
    67   33  156 1    
    68   33  157 1    
    69   33  158 1    
    70   34   35 am   BACKBONE|DICT|INTERRES
    71   34  159 1    
    72   35   36 2    
    73   35   37 1    
    74   37   38 1    
    75   37   39 1    
    76   37  160 1    
    77   38  161 1    
    78   38  162 1    
    79   38  163 1    
    80   39   40 am   BACKBONE|DICT|INTERRES
    81   39  164 1    
    82   40   41 2    
    83   40   42 1    
    84   42   43 1    
    85   42   44 1    
    86   42  165 1    
    87   43  166 1    
    88   43  167 1    
    89   43  168 1    
    90   44   45 am   BACKBONE|DICT|INTERRES
    91   44  169 1    
    92   45   46 2    
    93   45   47 1    
    94   47   48 1    
    95   47   49 1    
    96   47  170 1    
    97   48  171 1    
    98   48  172 1    
    99   48  173 1    
   100   49   50 am   BACKBONE|DICT|INTERRES
   101   49  174 1    
   102   50   51 2    
   103   50   52 1    
   104   52   53 1    
   105   52   54 1    
   106   52  175 1    
   107   53  176 1    
   108   53  177 1    
   109   53  178 1    
   110   54   55 am   BACKBONE|DICT|INTERRES
   111   54  179 1    
   112   55   56 2    
   113   55   57 1    
   114   57   58 1    
   115   57   59 1    
   116   57  180 1    
   117   58  181 1    
   118   58  182 1    
   119   58  183 1    
   120   59   60 am   BACKBONE|DICT|INTERRES
   121   59  184 1    
   122   60   61 2    
   123   60   62 1    
   124   62   63 1    
   125   62   64 1    
   126   62  185 1    
   127   63  186 1    
   128   63  187 1    
   129   63  188 1    
   130   64   65 am   BACKBONE|DICT|INTERRES
   131   64  189 1    
   132   65   66 2    
   133   67   68 2    
   134   67   69 am   BACKBONE|DICT|INTERRES
   135   69   70 1    
   136   69  190 1    
   137   70   71 1    
   138   70   72 1    
   139   70  191 1    
   140   71  192 1    
   141   71  193 1    
   142   71  194 1    
   143   72   73 2    
   144   72   74 am   BACKBONE|DICT|INTERRES
   145   74   75 1    
   146   74  195 1    
   147   75   76 1    
   148   75   77 1    
   149   75  196 1    
   150   76  197 1    
   151   76  198 1    
   152   76  199 1    
   153   77   78 2    
   154   77   79 am   BACKBONE|DICT|INTERRES
   155   79   80 1    
   156   79  200 1    
   157   80   81 1    
   158   80   82 1    
   159   80  201 1    
   160   81  202 1    
   161   81  203 1    
   162   81  204 1    
   163   82   83 2    
   164   82   84 am   BACKBONE|DICT|INTERRES
   165   84   85 1    
   166   84  205 1    
   167   85   86 1    
   168   85   87 1    
   169   85  206 1    
   170   86  207 1    
   171   86  208 1    
   172   86  209 1    
   173   87   88 2    
   174   87   89 am   BACKBONE|DICT|INTERRES
   175   89   90 1    
   176   89  210 1    
   177   90   91 1    
   178   90   92 1    
   179   90  211 1    
   180   91  212 1    
   181   91  213 1    
   182   91  214 1    
   183   92   93 2    
   184   92   94 am   BACKBONE|DICT|INTERRES
   185   94   95 1    
   186   94  215 1    
   187   95   96 1    
   188   95   97 1    
   189   95  216 1    
   190   96  217 1    
   191   96  218 1    
   192   96  219 1    
   193   97   98 2    
   194   97   99 am   BACKBONE|DICT|INTERRES
   195   99  100 1    
   196   99  220 1    
   197  100  101 1    
   198  100  102 1    
   199  100  221 1    
   200  101  222 1    
   201  101  223 1    
   202  101  224 1    
   203  102  103 2    
   204  102  104 am   BACKBONE|DICT|INTERRES
   205  104  105 1    
   206  104  225 1    
   207  105  106 1    
   208  105  107 1    
   209  105  226 1    
   210  106  227 1    
   211  106  228 1    
   212  106  229 1    
   213  107  108 2    
   214  107  109 am   BACKBONE|DICT|INTERRES
   215  109  110 1    
   216  109  230 1    
   217  110  111 1    
   218  110  112 1    
   219  110  231 1    
   220  111  232 1    
   221  111  233 1    
   222  111  234 1    
   223  112  113 2    
   224  112  114 am   BACKBONE|DICT|INTERRES
   225  114  115 1    
   226  114  235 1    
   227  115  116 1    
   228  115  117 1    
   229  115  236 1    
   230  116  237 1    
   231  116  238 1    
   232  116  239 1    
   233  117  118 2    
   234  117  119 am   BACKBONE|DICT|INTERRES
   235  119  120 1    
   236  119  240 1    
   237  120  121 1    
   238  120  124 1    
   239  120  241 1    
   240  121  122 am   BACKBONE|DICT|INTERRES
   241  121  123 2    
   242  122  242 1    
   243  122  243 1    
   244  124  125 1    
   245  124  244 1    
   246  124  245 1    
   247  125  126 1    
   248  126  246 1    
   249  126  247 1    
@<TRIPOS>SUBSTRUCTURE
     1 UNK         1 GROUP             0       ****    0 ROOT    
