@<TRIPOS>MOLECULE
3R540
247   249    1
SMALL
USER_CHARGES


@<TRIPOS>ATOM
      1 CA         -2.6288   -9.1895  -46.9245 C.3       0 UNK        -0.1800 
      2 C          -1.7601  -10.4042  -46.6356 C.2       0 UNK         0.5000 
      3 O          -1.2308  -10.5317  -45.5312 O.2       0 UNK        -0.5000 
      4 N          -1.6272  -11.3141  -47.6099 N.am      1 UNK        -0.5000 
      5 CA         -0.8080  -12.5314  -47.5216 C.3       1 UNK         0.1400 
      6 C6         -0.6255  -13.2174  -48.8997 C.3       23 UNK        -0.0398 
      7 S7         -2.1729  -13.7240  -49.7410 S.3       23 UNK        -0.2404 
      8 C8         -2.4895  -15.4137  -49.1230 C.3       23 UNK        -0.0205 
      9 C9         -1.4693  -16.4389  -49.5984 C.ar      23 UNK        -0.0193 
     10 C10        -1.7041  -17.1868  -50.7544 C.ar      23 UNK        -0.1150 
     11 C11        -0.7946  -18.1665  -51.1639 C.ar      23 UNK        -0.0193 
     12 C12         0.3666  -18.3869  -50.4160 C.ar      23 UNK        -0.1150 
     13 C13         0.6158  -17.6412  -49.2598 C.ar      23 UNK        -0.0193 
     14 C14        -0.3128  -16.6795  -48.8534 C.ar      23 UNK        -0.1150 
     15 C15         1.8968  -17.8524  -48.4629 C.3       23 UNK        -0.0205 
     16 S16         1.7492  -19.1864  -47.2308 S.3       23 UNK        -0.2404 
     17 C17         0.5265  -18.4939  -46.0702 C.3       23 UNK        -0.0398 
     18 CA         -0.8283  -19.2261  -46.1815 C.3       11 UNK         0.1400 
     19 N          -0.7200  -20.5951  -45.6698 N.am      11 UNK        -0.5000 
     20 C          -1.6977  -21.5050  -45.5837 C.2       10 UNK         0.5000 
     21 O          -2.8283  -21.3304  -46.0360 O.2       10 UNK        -0.5000 
     22 CA         -1.3748  -22.7992  -44.8133 C.3       10 UNK         0.1400 
     23 CB         -1.0456  -23.9336  -45.7943 C.3       10 UNK        -0.1800 
     24 N          -0.2753  -22.6610  -43.8500 N.am      10 UNK        -0.5000 
     25 C          -0.2187  -21.7991  -42.8247 C.2       9 UNK         0.5000 
     26 O          -1.1091  -20.9858  -42.5758 O.2       9 UNK        -0.5000 
     27 CA          1.0614  -21.7898  -41.9679 C.3       9 UNK         0.1400 
     28 CB          0.9368  -22.7506  -40.7711 C.3       9 UNK        -0.1800 
     29 N           2.3096  -22.0132  -42.7119 N.am      9 UNK        -0.5000 
     30 C           2.7560  -23.1290  -43.3127 C.2       8 UNK         0.5000 
     31 O           2.0991  -24.1669  -43.3980 O.2       8 UNK        -0.5000 
     32 CA          4.1609  -23.0805  -43.9524 C.3       8 UNK         0.1400 
     33 CB          4.0406  -22.9390  -45.4782 C.3       8 UNK        -0.1800 
     34 N           5.0007  -21.9926  -43.4485 N.am      8 UNK        -0.5000 
     35 C           5.4519  -21.8685  -42.1920 C.2       7 UNK         0.5000 
     36 O           5.3300  -22.7454  -41.3360 O.2       7 UNK        -0.5000 
     37 CA          6.1209  -20.5281  -41.8137 C.3       7 UNK         0.1400 
     38 CB          7.6372  -20.7136  -41.6467 C.3       7 UNK        -0.1800 
     39 N           5.8826  -19.4250  -42.7555 N.am      7 UNK        -0.5000 
     40 C           4.6907  -18.9092  -43.0874 C.2       6 UNK         0.5000 
     41 O           3.6148  -19.3402  -42.6618 O.2       6 UNK        -0.5000 
     42 CA          4.7209  -17.7756  -44.1304 C.3       6 UNK         0.1400 
     43 CB          5.0796  -18.3355  -45.5172 C.3       6 UNK        -0.1800 
     44 N           3.4357  -17.0871  -44.2298 N.am      6 UNK        -0.5000 
     45 C           2.9641  -16.2148  -43.3315 C.2       5 UNK         0.5000 
     46 O           3.5898  -15.8424  -42.3355 O.2       5 UNK        -0.5000 
     47 CA          1.5409  -15.6880  -43.5868 C.3       5 UNK         0.1400 
     48 CB          0.5059  -16.4788  -42.7695 C.3       5 UNK        -0.1800 
     49 N           1.4142  -14.2674  -43.2715 N.am      5 UNK        -0.5000 
     50 C           1.9795  -13.2717  -43.9663 C.2       4 UNK         0.5000 
     51 O           2.6942  -13.4538  -44.9543 O.2       4 UNK        -0.5000 
     52 CA          1.6601  -11.8365  -43.4939 C.3       4 UNK         0.1400 
     53 CB          2.1583  -10.7628  -44.4784 C.3       4 UNK        -0.1800 
     54 N           0.2227  -11.6495  -43.2951 N.am      4 UNK        -0.5000 
     55 C          -0.4587  -11.9524  -42.1827 C.2       3 UNK         0.5000 
     56 O           0.0640  -12.4037  -41.1635 O.2       3 UNK        -0.5000 
     57 CA         -1.9846  -11.7890  -42.2542 C.3       3 UNK         0.1400 
     58 CB         -2.3908  -10.3070  -42.2222 C.3       3 UNK        -0.1800 
     59 N          -2.4984  -12.4187  -43.4695 N.am      3 UNK        -0.5000 
     60 C          -2.7727  -13.7266  -43.5800 C.2       2 UNK         0.5000 
     61 O          -2.7308  -14.5139  -42.6350 O.2       2 UNK        -0.5000 
     62 CA         -3.1443  -14.2523  -44.9789 C.3       2 UNK         0.1400 
     63 CB         -4.6676  -14.3145  -45.1585 C.3       2 UNK        -0.1800 
     64 N          -2.5635  -13.4493  -46.0531 N.am      2 UNK        -0.5000 
     65 C          -1.2830  -13.5291  -46.4420 C.2       1 UNK         0.5000 
     66 O          -0.4860  -14.3468  -45.9861 O.2       1 UNK        -0.5000 
     67 C          -1.9433  -18.4038  -45.4986 C.2       11 UNK         0.5000 
     68 O          -2.5580  -17.5720  -46.1640 O.2       11 UNK        -0.5000 
     69 N          -2.2450  -18.6914  -44.2217 N.am      12 UNK        -0.5000 
     70 CA         -3.3654  -18.0996  -43.4816 C.3       12 UNK         0.1400 
     71 CB         -3.2561  -18.4933  -42.0019 C.3       12 UNK        -0.1800 
     72 C          -4.7515  -18.4823  -44.0456 C.2       12 UNK         0.5000 
     73 O          -5.7122  -17.7406  -43.8419 O.2       12 UNK        -0.5000 
     74 N          -4.8217  -19.6101  -44.7650 N.am      13 UNK        -0.5000 
     75 CA         -5.9865  -20.0914  -45.5075 C.3       13 UNK         0.1400 
     76 CB         -6.2271  -21.5649  -45.1324 C.3       13 UNK        -0.1800 
     77 C          -5.7822  -19.9232  -47.0288 C.2       13 UNK         0.5000 
     78 O          -6.4477  -20.6043  -47.8098 O.2       13 UNK        -0.5000 
     79 N          -4.8415  -19.0523  -47.4293 N.am      14 UNK        -0.5000 
     80 CA         -4.4267  -18.7547  -48.8044 C.3       14 UNK         0.1400 
     81 CB         -5.5400  -18.0016  -49.5600 C.3       14 UNK        -0.1800 
     82 C          -3.8999  -19.9866  -49.5703 C.2       14 UNK         0.5000 
     83 O          -4.1280  -20.1080  -50.7726 O.2       14 UNK        -0.5000 
     84 N          -3.2201  -20.8826  -48.8406 N.am      15 UNK        -0.5000 
     85 CA         -2.6823  -22.1803  -49.2613 C.3       15 UNK         0.1400 
     86 CB         -1.7641  -22.0596  -50.4938 C.3       15 UNK        -0.1800 
     87 C          -3.7513  -23.2829  -49.4080 C.2       15 UNK         0.5000 
     88 O          -3.4053  -24.3976  -49.8012 O.2       15 UNK        -0.5000 
     89 N          -5.0100  -22.9865  -49.0454 N.am      16 UNK        -0.5000 
     90 CA         -6.1613  -23.8918  -49.0070 C.3       16 UNK         0.1400 
     91 CB         -6.0310  -24.8548  -47.8058 C.3       16 UNK        -0.1800 
     92 C          -6.3914  -24.5971  -50.3605 C.2       16 UNK         0.5000 
     93 O          -6.7181  -23.9282  -51.3405 O.2       16 UNK        -0.5000 
     94 N          -6.1916  -25.9206  -50.4104 N.am      17 UNK        -0.5000 
     95 CA         -6.3050  -26.7405  -51.6188 C.3       17 UNK         0.1400 
     96 CB         -6.2427  -28.2230  -51.2208 C.3       17 UNK        -0.1800 
     97 C          -5.2401  -26.4254  -52.6899 C.2       17 UNK         0.5000 
     98 O          -5.4816  -26.6817  -53.8699 O.2       17 UNK        -0.5000 
     99 N          -4.0947  -25.8655  -52.2755 N.am      18 UNK        -0.5000 
    100 CA        -2.9911  -25.4780  -53.1544 C.3       18 UNK         0.1400 
    101 CB        -1.6565  -25.7109  -52.4275 C.3       18 UNK        -0.1800 
    102 C         -3.1132  -24.0315  -53.6739 C.2       18 UNK         0.5000 
    103 O         -2.2049  -23.5717  -54.3659 O.2       18 UNK        -0.5000 
    104 N         -4.2277  -23.3391  -53.3837 N.am      19 UNK        -0.5000 
    105 CA        -4.5212  -21.9785  -53.8549 C.3       19 UNK         0.1400 
    106 CB        -5.8680  -21.5169  -53.2818 C.3       19 UNK        -0.1800 
    107 C         -4.5282  -21.8362  -55.3914 C.2       19 UNK         0.5000 
    108 O         -4.1882  -20.7717  -55.9062 O.2       19 UNK        -0.5000 
    109 N         -4.8667  -22.9229  -56.0989 N.am      20 UNK        -0.5000 
    110 CA        -4.8196  -23.0228  -57.5591 C.3       20 UNK         0.1400 
    111 CB        -5.5586  -24.2997  -57.9880 C.3       20 UNK        -0.1800 
    112 C         -3.3886  -23.0095  -58.1393 C.2       20 UNK         0.5000 
    113 O         -3.2239  -22.6896  -59.3169 O.2       20 UNK        -0.5000 
    114 N         -2.3866  -23.3528  -57.3178 N.am      21 UNK        -0.5000 
    115 CA        -0.9680  -23.3829  -57.6808 C.3       21 UNK         0.1400 
    116 CB        -0.3414  -24.6582  -57.0904 C.3       21 UNK        -0.1800 
    117 C         -0.2114  -22.1253  -57.2043 C.2       21 UNK         0.5000 
    118 O          0.9992  -22.0385  -57.4163 O.2       21 UNK        -0.5000 
    119 N         -0.9162  -21.1853  -56.5601 N.am      22 UNK        -0.5000 
    120 CA        -0.3825  -19.9104  -56.0606 C.3       22 UNK         0.1400 
    121 C          0.1239  -18.9781  -57.1991 C.2       22 UNK         0.5000 
    122 N          1.2347  -18.2828  -56.9966 N.am      22 UNK        -0.7600 
    123 O         -0.5008  -18.8549  -58.2507 O.2       22 UNK        -0.5000 
    124 C124       -1.4343  -19.1985  -55.1734 C.3       23 UNK        -0.0398 
    125 S125       -0.6979  -18.0878  -53.9273 S.3       23 UNK        -0.2404 
    126 C126       -1.0878  -18.9971  -52.4017 C.3       23 UNK        -0.0205 
    127 H127       -3.0508   -9.2225  -47.9291 H         1 UNK         0.0600 
    128 H128       -2.0385   -8.2779  -46.8320 H         1 UNK         0.0600 
    129 H129       -3.4506   -9.1387  -46.2103 H         1 UNK         0.0600 
    130 H130       -2.1010  -11.1733  -48.4915 H         1 UNK         0.3000 
    131 H131        0.1845  -12.2082  -47.1996 H         1 UNK         0.0600 
    132 H132        0.0653  -14.0545  -48.8274 H         1 UNK         0.0800 
    133 H133       -0.1253  -12.5155  -49.5682 H         1 UNK         0.0800 
    134 H134       -3.4829  -15.7084  -49.4632 H         1 UNK         0.0800 
    135 H135       -2.5456  -15.4258  -48.0355 H         1 UNK         0.0800 
    136 H136       -2.6027  -17.0180  -51.3313 H         1 UNK         0.1150 
    137 H137        1.0764  -19.1386  -50.7319 H         1 UNK         0.1150 
    138 H138       -0.1357  -16.1104  -47.9535 H         1 UNK         0.1150 
    139 H139        2.7124  -18.0978  -49.1447 H         1 UNK         0.0800 
    140 H140        2.1918  -16.9273  -47.9649 H         1 UNK         0.0800 
    141 H141        0.4218  -17.4237  -46.2462 H         1 UNK         0.0800 
    142 H142        0.9246  -18.5908  -45.0596 H         1 UNK         0.0800 
    143 H143       -1.1007  -19.2961  -47.2371 H         1 UNK         0.0600 
    144 H144        0.1797  -20.8502  -45.2909 H         1 UNK         0.3000 
    145 H145       -2.2705  -23.0745  -44.2532 H         1 UNK         0.0600 
    146 H146       -0.8730  -24.8724  -45.2675 H         1 UNK         0.0600 
    147 H147       -1.8687  -24.1012  -46.4904 H         1 UNK         0.0600 
    148 H148       -0.1545  -23.7107  -46.3826 H         1 UNK         0.0600 
    149 H149        0.5001  -23.3117  -43.9407 H         1 UNK         0.3000 
    150 H150        1.1494  -20.7801  -41.5633 H         1 UNK         0.0600 
    151 H151        0.0736  -22.4935  -40.1560 H         1 UNK         0.0600 
    152 H152        1.8185  -22.6991  -40.1320 H         1 UNK         0.0600 
    153 H153        0.8117  -23.7861  -41.0882 H         1 UNK         0.0600 
    154 H154        2.9134  -21.1966  -42.7461 H         1 UNK         0.3000 
    155 H155        4.6579  -24.0264  -43.7279 H         1 UNK         0.0600 
    156 H156        3.5611  -22.0001  -45.7594 H         1 UNK         0.0600 
    157 H157        3.4463  -23.7500  -45.9015 H         1 UNK         0.0600 
    158 H158        5.0196  -22.9729  -45.9565 H         1 UNK         0.0600 
    159 H159        5.1644  -21.2239  -44.0807 H         1 UNK         0.3000 
    160 H160        5.7051  -20.2286  -40.8497 H         1 UNK         0.0600 
    161 H161        8.1142  -20.9876  -42.5885 H         1 UNK         0.0600 
    162 H162        7.8596  -21.5009  -40.9251 H         1 UNK         0.0600 
    163 H163        8.1097  -19.8010  -41.2825 H         1 UNK         0.0600 
    164 H164        6.7104  -19.0237  -43.1727 H         1 UNK         0.3000 
    165 H165        5.4830  -17.0516  -43.8342 H         1 UNK         0.0600 
    166 H166        5.0538  -17.5556  -46.2787 H         1 UNK         0.0600 
    167 H167        6.0852  -18.7574  -45.5257 H         1 UNK         0.0600 
    168 H168        4.3930  -19.1252  -45.8236 H         1 UNK         0.0600 
    169 H169        2.8579  -17.3513  -45.0121 H         1 UNK         0.3000 
    170 H170        1.3105  -15.8148  -44.6458 H         1 UNK         0.0600 
    171 H171        0.6197  -16.3016  -41.6994 H         1 UNK         0.0600 
    172 H172       -0.5105  -16.2010  -43.0498 H         1 UNK         0.0600 
    173 H173        0.6049  -17.5524  -42.9319 H         1 UNK         0.0600 
    174 H174        0.8718  -14.0268  -42.4524 H         1 UNK         0.3000 
    175 H175        2.1797  -11.6853  -42.5455 H         1 UNK         0.0600 
    176 H176        1.6906  -10.8687  -45.4581 H         1 UNK         0.0600 
    177 H177        1.9389   -9.7602  -44.1111 H         1 UNK         0.0600 
    178 H178        3.2381  -10.8273  -44.6178 H         1 UNK         0.0600 
    179 H179       -0.2932  -11.2946  -44.0968 H         1 UNK         0.3000 
    180 H180       -2.4214  -12.2744  -41.3786 H         1 UNK         0.0600 
    181 H181       -3.4752  -10.1972  -42.2411 H         1 UNK         0.0600 
    182 H182       -1.9845   -9.7513  -43.0677 H         1 UNK         0.0600 
    183 H183       -2.0313   -9.8260  -41.3118 H         1 UNK         0.0600 
    184 H184       -2.4961  -11.8490  -44.3051 H         1 UNK         0.3000 
    185 H185       -2.7531  -15.2664  -45.0567 H         1 UNK         0.0600 
    186 H186       -4.9313  -14.7651  -46.1157 H         1 UNK         0.0600 
    187 H187       -5.1272  -14.9229  -44.3782 H         1 UNK         0.0600 
    188 H188       -5.1208  -13.3236  -45.1139 H         1 UNK         0.0600 
    189 H189       -3.1607  -12.7662  -46.4954 H         1 UNK         0.3000 
    190 H190       -1.7321  -19.4233  -43.7397 H         1 UNK         0.3000 
    191 H191       -3.2750  -17.0152  -43.5481 H         1 UNK         0.0600 
    192 H192       -4.0369  -18.0121  -41.4117 H         1 UNK         0.0600 
    193 H193       -2.2972  -18.1879  -41.5825 H         1 UNK         0.0600 
    194 H194       -3.3563  -19.5705  -41.8641 H         1 UNK         0.0600 
    195 H195       -3.9737  -20.1467  -44.9143 H         1 UNK         0.3000 
    196 H196       -6.8760  -19.5192  -45.2376 H         1 UNK         0.0600 
    197 H197       -5.3926  -22.1980  -45.4366 H         1 UNK         0.0600 
    198 H198       -6.3599  -21.6804  -44.0567 H         1 UNK         0.0600 
    199 H199       -7.1263  -21.9535  -45.6119 H         1 UNK         0.0600 
    200 H200       -4.3263  -18.5492  -46.7161 H         1 UNK         0.3000 
    201 H201       -3.5764  -18.0817  -48.7117 H         1 UNK         0.0600 
    202 H202       -6.4112  -18.6346  -49.7311 H         1 UNK         0.0600 
    203 H203       -5.1886  -17.6584  -50.5338 H         1 UNK         0.0600 
    204 H204       -5.8665  -17.1217  -49.0058 H         1 UNK         0.0600 
    205 H205       -3.1506  -20.7203  -47.8403 H         1 UNK         0.3000 
    206 H206       -2.0487  -22.5058  -48.4367 H         1 UNK         0.0600 
    207 H207       -1.0385  -21.2574  -50.3624 H         1 UNK         0.0600 
    208 H208       -1.1988  -22.9777  -50.6488 H         1 UNK         0.0600 
    209 H209       -2.3254  -21.8666  -51.4076 H         1 UNK         0.0600 
    210 H210       -5.2130  -22.0352  -48.7610 H         1 UNK         0.3000 
    211 H211       -7.0393  -23.2673  -48.8361 H         1 UNK         0.0600 
    212 H212       -6.9005  -25.5087  -47.7272 H         1 UNK         0.0600 
    213 H213       -5.9669  -24.2980  -46.8709 H         1 UNK         0.0600 
    214 H214       -5.1420  -25.4829  -47.8726 H         1 UNK         0.0600 
    215 H215       -5.8971  -26.3937  -49.5685 H         1 UNK         0.3000 
    216 H216       -7.2828  -26.5473  -52.0650 H         1 UNK         0.0600 
    217 H217       -5.2920  -28.4726  -50.7481 H         1 UNK         0.0600 
    218 H218       -6.3544  -28.8674  -52.0939 H         1 UNK         0.0600 
    219 H219       -7.0423  -28.4794  -50.5256 H         1 UNK         0.0600 
    220 H220       -3.9850  -25.6238  -51.2947 H         1 UNK         0.3000 
    221 H221       -2.9911  -26.1216  -54.0364 H         1 UNK         0.0600 
    222 H222       -1.5532  -26.7523  -52.1224 H         1 UNK         0.0600 
    223 H223       -1.5658  -25.0932  -51.5360 H         1 UNK         0.0600 
    224 H224       -0.8093  -25.4792  -53.0742 H         1 UNK         0.0600 
    225 H225       -4.9320  -23.7725  -52.8002 H         1 UNK         0.3000 
    226 H226       -3.7418  -21.3211  -53.4653 H         1 UNK         0.0600 
    227 H227       -6.6883  -22.1523  -53.6179 H         1 UNK         0.0600 
    228 H228       -5.8591  -21.5314  -52.1923 H         1 UNK         0.0600 
    229 H229       -6.0938  -20.4945  -53.5871 H         1 UNK         0.0600 
    230 H230       -5.1344  -23.7564  -55.5958 H         1 UNK         0.3000 
    231 H231       -5.3496  -22.1636  -57.9756 H         1 UNK         0.0600 
    232 H232       -5.0838  -25.1943  -57.5827 H         1 UNK         0.0600 
    233 H233       -5.5720  -24.3984  -59.0743 H         1 UNK         0.0600 
    234 H234       -6.5956  -24.2877  -57.6519 H         1 UNK         0.0600 
    235 H235       -2.5890  -23.5544  -56.3442 H         1 UNK         0.3000 
    236 H236       -0.8598  -23.4294  -58.7662 H         1 UNK         0.0600 
    237 H237       -0.8691  -25.5500  -57.4291 H         1 UNK         0.0600 
    238 H238        0.6996  -24.7627  -57.3985 H         1 UNK         0.0600 
    239 H239       -0.3604  -24.6509  -56.0003 H         1 UNK         0.0600 
    240 H240       -1.9124  -21.3208  -56.4626 H         1 UNK         0.3000 
    241 H241        0.4717  -20.1723  -55.4327 H         1 UNK         0.0600 
    242 H242        1.5673  -17.6656  -57.7211 H         1 UNK         0.3800 
    243 H243        1.7463  -18.3499  -56.1302 H         1 UNK         0.3800 
    244 H244       -2.0268  -19.9426  -54.6418 H         1 UNK         0.0800 
    245 H245       -2.1507  -18.6378  -55.7769 H         1 UNK         0.0800 
    246 H246       -2.1427  -19.2751  -52.3992 H         1 UNK         0.0800 
    247 H247       -0.5212  -19.9291  -52.3855 H         1 UNK         0.0800 
@<TRIPOS>BOND
     1    1    2 1    
     2    1  127 1    
     3    1  128 1    
     4    1  129 1    
     5    2    3 2    
     6    2    4 am   BACKBONE|DICT|INTERRES
     7    4    5 1    
     8    4  130 1    
     9    5    6 1    
    10    5   65 1    
    11    5  131 1    
    12    6    7 1    
    13    6  132 1    
    14    6  133 1    
    15    7    8 1    
    16    8    9 1    
    17    8  134 1    
    18    8  135 1    
    19    9   10 ar   
    20    9   14 ar   
    21   10   11 ar   
    22   10  136 1    
    23   11   12 ar   
    24   11  126 1    
    25   12   13 ar   
    26   12  137 1    
    27   13   14 ar   
    28   13   15 1    
    29   14  138 1    
    30   15   16 1    
    31   15  139 1    
    32   15  140 1    
    33   16   17 1    
    34   17   18 1    
    35   17  141 1    
    36   17  142 1    
    37   18   19 1    
    38   18   67 1    
    39   18  143 1    
    40   19   20 am   BACKBONE|DICT|INTERRES
    41   19  144 1    
    42   20   21 2    
    43   20   22 1    
    44   22   23 1    
    45   22   24 1    
    46   22  145 1    
    47   23  146 1    
    48   23  147 1    
    49   23  148 1    
    50   24   25 am   BACKBONE|DICT|INTERRES
    51   24  149 1    
    52   25   26 2    
    53   25   27 1    
    54   27   28 1    
    55   27   29 1    
    56   27  150 1    
    57   28  151 1    
    58   28  152 1    
    59   28  153 1    
    60   29   30 am   BACKBONE|DICT|INTERRES
    61   29  154 1    
    62   30   31 2    
    63   30   32 1    
    64   32   33 1    
    65   32   34 1    
    66   32  155 1    
    67   33  156 1    
    68   33  157 1    
    69   33  158 1    
    70   34   35 am   BACKBONE|DICT|INTERRES
    71   34  159 1    
    72   35   36 2    
    73   35   37 1    
    74   37   38 1    
    75   37   39 1    
    76   37  160 1    
    77   38  161 1    
    78   38  162 1    
    79   38  163 1    
    80   39   40 am   BACKBONE|DICT|INTERRES
    81   39  164 1    
    82   40   41 2    
    83   40   42 1    
    84   42   43 1    
    85   42   44 1    
    86   42  165 1    
    87   43  166 1    
    88   43  167 1    
    89   43  168 1    
    90   44   45 am   BACKBONE|DICT|INTERRES
    91   44  169 1    
    92   45   46 2    
    93   45   47 1    
    94   47   48 1    
    95   47   49 1    
    96   47  170 1    
    97   48  171 1    
    98   48  172 1    
    99   48  173 1    
   100   49   50 am   BACKBONE|DICT|INTERRES
   101   49  174 1    
   102   50   51 2    
   103   50   52 1    
   104   52   53 1    
   105   52   54 1    
   106   52  175 1    
   107   53  176 1    
   108   53  177 1    
   109   53  178 1    
   110   54   55 am   BACKBONE|DICT|INTERRES
   111   54  179 1    
   112   55   56 2    
   113   55   57 1    
   114   57   58 1    
   115   57   59 1    
   116   57  180 1    
   117   58  181 1    
   118   58  182 1    
   119   58  183 1    
   120   59   60 am   BACKBONE|DICT|INTERRES
   121   59  184 1    
   122   60   61 2    
   123   60   62 1    
   124   62   63 1    
   125   62   64 1    
   126   62  185 1    
   127   63  186 1    
   128   63  187 1    
   129   63  188 1    
   130   64   65 am   BACKBONE|DICT|INTERRES
   131   64  189 1    
   132   65   66 2    
   133   67   68 2    
   134   67   69 am   BACKBONE|DICT|INTERRES
   135   69   70 1    
   136   69  190 1    
   137   70   71 1    
   138   70   72 1    
   139   70  191 1    
   140   71  192 1    
   141   71  193 1    
   142   71  194 1    
   143   72   73 2    
   144   72   74 am   BACKBONE|DICT|INTERRES
   145   74   75 1    
   146   74  195 1    
   147   75   76 1    
   148   75   77 1    
   149   75  196 1    
   150   76  197 1    
   151   76  198 1    
   152   76  199 1    
   153   77   78 2    
   154   77   79 am   BACKBONE|DICT|INTERRES
   155   79   80 1    
   156   79  200 1    
   157   80   81 1    
   158   80   82 1    
   159   80  201 1    
   160   81  202 1    
   161   81  203 1    
   162   81  204 1    
   163   82   83 2    
   164   82   84 am   BACKBONE|DICT|INTERRES
   165   84   85 1    
   166   84  205 1    
   167   85   86 1    
   168   85   87 1    
   169   85  206 1    
   170   86  207 1    
   171   86  208 1    
   172   86  209 1    
   173   87   88 2    
   174   87   89 am   BACKBONE|DICT|INTERRES
   175   89   90 1    
   176   89  210 1    
   177   90   91 1    
   178   90   92 1    
   179   90  211 1    
   180   91  212 1    
   181   91  213 1    
   182   91  214 1    
   183   92   93 2    
   184   92   94 am   BACKBONE|DICT|INTERRES
   185   94   95 1    
   186   94  215 1    
   187   95   96 1    
   188   95   97 1    
   189   95  216 1    
   190   96  217 1    
   191   96  218 1    
   192   96  219 1    
   193   97   98 2    
   194   97   99 am   BACKBONE|DICT|INTERRES
   195   99  100 1    
   196   99  220 1    
   197  100  101 1    
   198  100  102 1    
   199  100  221 1    
   200  101  222 1    
   201  101  223 1    
   202  101  224 1    
   203  102  103 2    
   204  102  104 am   BACKBONE|DICT|INTERRES
   205  104  105 1    
   206  104  225 1    
   207  105  106 1    
   208  105  107 1    
   209  105  226 1    
   210  106  227 1    
   211  106  228 1    
   212  106  229 1    
   213  107  108 2    
   214  107  109 am   BACKBONE|DICT|INTERRES
   215  109  110 1    
   216  109  230 1    
   217  110  111 1    
   218  110  112 1    
   219  110  231 1    
   220  111  232 1    
   221  111  233 1    
   222  111  234 1    
   223  112  113 2    
   224  112  114 am   BACKBONE|DICT|INTERRES
   225  114  115 1    
   226  114  235 1    
   227  115  116 1    
   228  115  117 1    
   229  115  236 1    
   230  116  237 1    
   231  116  238 1    
   232  116  239 1    
   233  117  118 2    
   234  117  119 am   BACKBONE|DICT|INTERRES
   235  119  120 1    
   236  119  240 1    
   237  120  121 1    
   238  120  124 1    
   239  120  241 1    
   240  121  122 am   BACKBONE|DICT|INTERRES
   241  121  123 2    
   242  122  242 1    
   243  122  243 1    
   244  124  125 1    
   245  124  244 1    
   246  124  245 1    
   247  125  126 1    
   248  126  246 1    
   249  126  247 1    
@<TRIPOS>SUBSTRUCTURE
     1 UNK         1 GROUP             0       ****    0 ROOT    
