@<TRIPOS>MOLECULE
3R540
247   249    1
SMALL
USER_CHARGES


@<TRIPOS>ATOM
      1 CA          4.2211  -16.5975  -53.4376 C.3       0 UNK        -0.1800 
      2 C           3.3059  -16.7599  -52.2329 C.2       0 UNK         0.5000 
      3 O           3.0414  -17.8862  -51.8141 O.2       0 UNK        -0.5000 
      4 N           2.8113  -15.6431  -51.6858 N.am      1 UNK        -0.5000 
      5 CA          1.9303  -15.5935  -50.5173 C.3       1 UNK         0.1400 
      6 C6          1.1842  -14.2388  -50.4049 C.3       23 UNK        -0.0398 
      7 S7          0.0229  -13.9744  -51.7885 S.3       23 UNK        -0.2404 
      8 C8         -1.5270  -13.5457  -50.9132 C.3       23 UNK        -0.0205 
      9 C9         -2.1617  -14.6516  -50.0651 C.ar      23 UNK        -0.0193 
     10 C10        -3.1675  -14.3035  -49.1579 C.ar      23 UNK        -0.1150 
     11 C11        -3.7984  -15.2754  -48.3746 C.ar      23 UNK        -0.0193 
     12 C12        -3.3919  -16.6078  -48.4742 C.ar      23 UNK        -0.1150 
     13 C13        -2.3956  -16.9746  -49.3793 C.ar      23 UNK        -0.0193 
     14 C14        -1.8001  -15.9985  -50.1804 C.ar      23 UNK        -0.1150 
     15 C15        -1.9616  -18.4225  -49.5139 C.3       23 UNK        -0.0205 
     16 S16        -0.4100  -18.7224  -48.6171 S.3       23 UNK        -0.2404 
     17 C17        -1.0143  -19.3313  -47.0092 C.3       23 UNK        -0.0398 
     18 CA         -0.7823  -20.8501  -46.8121 C.3       11 UNK         0.1400 
     19 N          -0.7896  -21.2064  -45.3895 N.am      11 UNK        -0.5000 
     20 C          -0.5353  -22.4248  -44.8901 C.2       10 UNK         0.5000 
     21 O          -0.1785  -23.3859  -45.5688 O.2       10 UNK        -0.5000 
     22 CA         -0.7955  -22.6184  -43.3870 C.3       10 UNK         0.1400 
     23 CB          0.4047  -22.1531  -42.5487 C.3       10 UNK        -0.1800 
     24 N          -2.0122  -21.9235  -42.9609 N.am      10 UNK        -0.5000 
     25 C          -3.2520  -22.3120  -43.2953 C.2       9 UNK         0.5000 
     26 O          -3.4918  -23.3288  -43.9441 O.2       9 UNK        -0.5000 
     27 CA         -4.4146  -21.3952  -42.8707 C.3       9 UNK         0.1400 
     28 CB         -4.8763  -21.7366  -41.4465 C.3       9 UNK        -0.1800 
     29 N          -4.0635  -19.9771  -42.9373 N.am      9 UNK        -0.5000 
     30 C          -3.8330  -19.2983  -44.0707 C.2       8 UNK         0.5000 
     31 O          -3.9673  -19.7809  -45.1965 O.2       8 UNK        -0.5000 
     32 CA         -3.2909  -17.8623  -43.9100 C.3       8 UNK         0.1400 
     33 CB         -4.4320  -16.8399  -43.8570 C.3       8 UNK        -0.1800 
     34 N          -2.4530  -17.7033  -42.7172 N.am      8 UNK        -0.5000 
     35 C          -1.2790  -18.3201  -42.5415 C.2       7 UNK         0.5000 
     36 O          -0.7660  -19.0501  -43.3934 O.2       7 UNK        -0.5000 
     37 CA         -0.6214  -18.1653  -41.1570 C.3       7 UNK         0.1400 
     38 CB         -1.1915  -19.2071  -40.1811 C.3       7 UNK        -0.1800 
     39 N           0.8284  -18.3366  -41.2313 N.am      7 UNK        -0.5000 
     40 C           1.6558  -17.4371  -41.7738 C.2       6 UNK         0.5000 
     41 O           1.2881  -16.3169  -42.1331 O.2       6 UNK        -0.5000 
     42 CA          3.1227  -17.8744  -41.9487 C.3       6 UNK         0.1400 
     43 CB          3.2226  -19.1515  -42.8044 C.3       6 UNK        -0.1800 
     44 N           3.8930  -16.8235  -42.6078 N.am      6 UNK        -0.5000 
     45 C           4.5332  -15.8235  -41.9923 C.2       5 UNK         0.5000 
     46 O           4.6295  -15.7232  -40.7682 O.2       5 UNK        -0.5000 
     47 CA          5.1673  -14.7511  -42.8929 C.3       5 UNK         0.1400 
     48 CB          6.4706  -15.2684  -43.5235 C.3       5 UNK        -0.1800 
     49 N           4.2524  -14.3282  -43.9558 N.am      5 UNK        -0.5000 
     50 C           3.9204  -13.0561  -44.2212 C.2       4 UNK         0.5000 
     51 O           4.3486  -12.0929  -43.5834 O.2       4 UNK        -0.5000 
     52 CA          2.9636  -12.7939  -45.4049 C.3       4 UNK         0.1400 
     53 CB          3.7514  -12.3116  -46.6325 C.3       4 UNK        -0.1800 
     54 N           2.1755  -13.9661  -45.7828 N.am      4 UNK        -0.5000 
     55 C           1.1488  -14.4529  -45.0707 C.2       3 UNK         0.5000 
     56 O           0.6728  -13.8691  -44.0970 O.2       3 UNK        -0.5000 
     57 CA          0.5423  -15.8049  -45.5129 C.3       3 UNK         0.1400 
     58 CB         -0.8472  -15.5763  -46.1299 C.3       3 UNK        -0.1800 
     59 N           1.3510  -16.5677  -46.4697 N.am      3 UNK        -0.5000 
     60 C           2.6171  -16.9861  -46.3165 C.2       2 UNK         0.5000 
     61 O           3.2817  -16.8044  -45.2982 O.2       2 UNK        -0.5000 
     62 CA          3.2845  -17.6357  -47.5445 C.3       2 UNK         0.1400 
     63 CB          3.1975  -19.1672  -47.4643 C.3       2 UNK        -0.1800 
     64 N           2.7138  -17.1724  -48.8135 N.am      2 UNK        -0.5000 
     65 C           2.7241  -15.8998  -49.2356 C.2       1 UNK         0.5000 
     66 O           3.2975  -14.9878  -48.6370 O.2       1 UNK        -0.5000 
     67 C          -1.7862  -21.7025  -47.6216 C.2       11 UNK         0.5000 
     68 O          -1.4308  -22.2260  -48.6806 O.2       11 UNK        -0.5000 
     69 N          -2.9981  -21.8733  -47.0705 N.am      12 UNK        -0.5000 
     70 CA         -4.0420  -22.7374  -47.6158 C.3       12 UNK         0.1400 
     71 CB         -5.3656  -22.5147  -46.8686 C.3       12 UNK        -0.1800 
     72 C          -3.6582  -24.2256  -47.6071 C.2       12 UNK         0.5000 
     73 O          -3.8143  -24.8901  -48.6308 O.2       12 UNK        -0.5000 
     74 N          -3.1441  -24.7152  -46.4695 N.am      13 UNK        -0.5000 
     75 CA         -2.7069  -26.1014  -46.2780 C.3       13 UNK         0.1400 
     76 CB         -2.3462  -26.3283  -44.8025 C.3       13 UNK        -0.1800 
     77 C          -1.5328  -26.5020  -47.1903 C.2       13 UNK         0.5000 
     78 O          -1.5141  -27.6225  -47.7010 O.2       13 UNK        -0.5000 
     79 N          -0.5941  -25.5707  -47.4034 N.am      14 UNK        -0.5000 
     80 CA          0.5236  -25.7109  -48.3374 C.3       14 UNK         0.1400 
     81 CB          1.5683  -24.6276  -48.0237 C.3       14 UNK        -0.1800 
     82 C           0.0985  -25.6175  -49.8163 C.2       14 UNK         0.5000 
     83 O           0.8601  -26.0487  -50.6829 O.2       14 UNK        -0.5000 
     84 N          -1.0840  -25.0360  -50.0741 N.am      15 UNK        -0.5000 
     85 CA         -1.6365  -24.6706  -51.3822 C.3       15 UNK         0.1400 
     86 CB         -2.0099  -25.9258  -52.1961 C.3       15 UNK        -0.1800 
     87 C          -0.7081  -23.6976  -52.1376 C.2       15 UNK         0.5000 
     88 O          -0.4236  -23.8898  -53.3215 O.2       15 UNK        -0.5000 
     89 N          -0.2112  -22.6945  -51.4050 N.am      16 UNK        -0.5000 
     90 CA          0.6948  -21.6682  -51.9070 C.3       16 UNK         0.1400 
     91 CB          1.5353  -21.1512  -50.7297 C.3       16 UNK        -0.1800 
     92 C          -0.0745  -20.5333  -52.6083 C.2       16 UNK         0.5000 
     93 O          -1.2799  -20.3773  -52.3982 O.2       16 UNK        -0.5000 
     94 N           0.6499  -19.7656  -53.4348 N.am      17 UNK        -0.5000 
     95 CA          0.2289  -18.6106  -54.2433 C.3       17 UNK         0.1400 
     96 CB         -0.3335  -17.4808  -53.3627 C.3       17 UNK        -0.1800 
     97 C          -0.7492  -18.9354  -55.3888 C.2       17 UNK         0.5000 
     98 O          -0.5240  -18.4987  -56.5183 O.2       17 UNK        -0.5000 
     99 N          -1.8120  -19.6806  -55.0832 N.am      18 UNK        -0.5000 
    100 CA        -2.8895  -20.0729  -55.9826 C.3       18 UNK         0.1400 
    101 CB        -3.8643  -18.8904  -56.1781 C.3       18 UNK        -0.1800 
    102 C         -3.5669  -21.3304  -55.4106 C.2       18 UNK         0.5000 
    103 O         -2.9397  -22.0794  -54.6574 O.2       18 UNK        -0.5000 
    104 N         -4.8436  -21.5447  -55.7505 N.am      19 UNK        -0.5000 
    105 CA        -5.6915  -22.6152  -55.2241 C.3       19 UNK         0.1400 
    106 CB        -6.8873  -22.8096  -56.1736 C.3       19 UNK        -0.1800 
    107 C         -6.1268  -22.3192  -53.7728 C.2       19 UNK         0.5000 
    108 O         -7.2964  -22.0223  -53.5244 O.2       19 UNK        -0.5000 
    109 N         -5.1536  -22.3500  -52.8520 N.am      20 UNK        -0.5000 
    110 CA        -5.2240  -22.1213  -51.4013 C.3       20 UNK         0.1400 
    111 CB        -6.1842  -23.1232  -50.7298 C.3       20 UNK        -0.1800 
    112 C         -5.5381  -20.6732  -50.9693 C.2       20 UNK         0.5000 
    113 O         -5.0384  -20.2384  -49.9299 O.2       20 UNK        -0.5000 
    114 N         -6.3437  -19.9523  -51.7611 N.am      21 UNK        -0.5000 
    115 CA        -6.8027  -18.5789  -51.5397 C.3       21 UNK         0.1400 
    116 CB        -5.6295  -17.5891  -51.7357 C.3       21 UNK        -0.1800 
    117 C         -7.5341  -18.4440  -50.1846 C.2       21 UNK         0.5000 
    118 O         -8.4047  -19.2641  -49.8846 O.2       21 UNK        -0.5000 
    119 N         -7.1674  -17.4332  -49.3920 N.am      22 UNK        -0.5000 
    120 CA        -7.6050  -17.2326  -48.0024 C.3       22 UNK         0.1400 
    121 C         -6.8317  -18.0853  -46.9522 C.2       22 UNK         0.5000 
    122 N         -5.8406  -18.8876  -47.3212 N.am      22 UNK        -0.7600 
    123 O         -7.1510  -18.0262  -45.7686 O.2       22 UNK        -0.5000 
    124 C124       -7.6745  -15.7233  -47.6110 C.3       23 UNK        -0.0398 
    125 S125       -6.4583  -14.6152  -48.4136 S.3       23 UNK        -0.2404 
    126 C126       -4.9392  -14.8852  -47.4493 C.3       23 UNK        -0.0205 
    127 H127        3.7985  -17.1128  -54.3001 H         1 UNK         0.0600 
    128 H128        5.1991  -17.0295  -53.2260 H         1 UNK         0.0600 
    129 H129        4.3614  -15.5492  -53.7025 H         1 UNK         0.0600 
    130 H130        3.0700  -14.7467  -52.0723 H         1 UNK         0.3000 
    131 H131        1.1798  -16.3777  -50.6186 H         1 UNK         0.0600 
    132 H132        0.6304  -14.1877  -49.4654 H         1 UNK         0.0800 
    133 H133        1.8903  -13.4069  -50.3831 H         1 UNK         0.0800 
    134 H134       -2.2584  -13.2309  -51.6584 H         1 UNK         0.0800 
    135 H135       -1.3347  -12.6742  -50.2854 H         1 UNK         0.0800 
    136 H136       -3.4811  -13.2720  -49.0765 H         1 UNK         0.1150 
    137 H137       -3.8547  -17.3608  -47.8568 H         1 UNK         0.1150 
    138 H138       -1.0526  -16.3042  -50.8928 H         1 UNK         0.1150 
    139 H139       -2.7418  -19.1031  -49.1712 H         1 UNK         0.0800 
    140 H140       -1.8087  -18.6499  -50.5680 H         1 UNK         0.0800 
    141 H141       -2.0616  -19.0611  -46.8710 H         1 UNK         0.0800 
    142 H142       -0.4653  -18.7821  -46.2435 H         1 UNK         0.0800 
    143 H143        0.2164  -21.0946  -47.1800 H         1 UNK         0.0600 
    144 H144       -1.0131  -20.4630  -44.7351 H         1 UNK         0.3000 
    145 H145       -0.9327  -23.6863  -43.2060 H         1 UNK         0.0600 
    146 H146        0.2309  -22.3165  -41.4852 H         1 UNK         0.0600 
    147 H147        1.3032  -22.7089  -42.8195 H         1 UNK         0.0600 
    148 H148        0.6219  -21.0966  -42.6969 H         1 UNK         0.0600 
    149 H149       -1.8896  -21.0494  -42.4742 H         1 UNK         0.3000 
    150 H150       -5.2483  -21.5727  -43.5532 H         1 UNK         0.0600 
    151 H151       -5.1633  -22.7864  -41.3711 H         1 UNK         0.0600 
    152 H152       -5.7445  -21.1425  -41.1607 H         1 UNK         0.0600 
    153 H153       -4.0897  -21.5576  -40.7122 H         1 UNK         0.0600 
    154 H154       -3.9448  -19.4964  -42.0585 H         1 UNK         0.3000 
    155 H155       -2.6795  -17.6445  -44.7869 H         1 UNK         0.0600 
    156 H156       -5.0799  -16.9991  -42.9943 H         1 UNK         0.0600 
    157 H157       -4.0482  -15.8207  -43.8099 H         1 UNK         0.0600 
    158 H158       -5.0516  -16.9088  -44.7483 H         1 UNK         0.0600 
    159 H159       -2.8215  -17.1195  -41.9799 H         1 UNK         0.3000 
    160 H160       -0.8401  -17.1667  -40.7726 H         1 UNK         0.0600 
    161 H161       -0.9904  -20.2266  -40.5117 H         1 UNK         0.0600 
    162 H162       -2.2720  -19.1018  -40.0770 H         1 UNK         0.0600 
    163 H163       -0.7608  -19.0892  -39.1865 H         1 UNK         0.0600 
    164 H164        1.1884  -19.2432  -40.9744 H         1 UNK         0.3000 
    165 H165        3.5435  -18.0775  -40.9619 H         1 UNK         0.0600 
    166 H166        4.2601  -19.3899  -43.0392 H         1 UNK         0.0600 
    167 H167        2.8094  -20.0132  -42.2803 H         1 UNK         0.0600 
    168 H168        2.6822  -19.0499  -43.7468 H         1 UNK         0.0600 
    169 H169        3.8023  -16.8040  -43.6213 H         1 UNK         0.3000 
    170 H170        5.4184  -13.9069  -42.2475 H         1 UNK         0.0600 
    171 H171        7.1683  -15.6088  -42.7573 H         1 UNK         0.0600 
    172 H172        6.2874  -16.1053  -44.1988 H         1 UNK         0.0600 
    173 H173        6.9693  -14.4834  -44.0922 H         1 UNK         0.0600 
    174 H174        3.8294  -15.0665  -44.5081 H         1 UNK         0.3000 
    175 H175        2.2788  -11.9974  -45.1065 H         1 UNK         0.0600 
    176 H176        3.0861  -12.0875  -47.4666 H         1 UNK         0.0600 
    177 H177        4.4687  -13.0614  -46.9686 H         1 UNK         0.0600 
    178 H178        4.3089  -11.4017  -46.4072 H         1 UNK         0.0600 
    179 H179        2.4985  -14.4813  -46.5923 H         1 UNK         0.3000 
    180 H180        0.4252  -16.4226  -44.6217 H         1 UNK         0.0600 
    181 H181       -0.7911  -14.9649  -47.0316 H         1 UNK         0.0600 
    182 H182       -1.5111  -15.0684  -45.4292 H         1 UNK         0.0600 
    183 H183       -1.3251  -16.5162  -46.3984 H         1 UNK         0.0600 
    184 H184        0.9033  -16.7772  -47.3502 H         1 UNK         0.3000 
    185 H185        4.3390  -17.3524  -47.5327 H         1 UNK         0.0600 
    186 H186        3.6778  -19.5360  -46.5570 H         1 UNK         0.0600 
    187 H187        2.1659  -19.5164  -47.4496 H         1 UNK         0.0600 
    188 H188        3.6983  -19.6369  -48.3111 H         1 UNK         0.0600 
    189 H189        2.2681  -17.8714  -49.3927 H         1 UNK         0.3000 
    190 H190       -3.2247  -21.3668  -46.2219 H         1 UNK         0.3000 
    191 H191       -4.1848  -22.4459  -48.6550 H         1 UNK         0.0600 
    192 H192       -5.2600  -22.6698  -45.7961 H         1 UNK         0.0600 
    193 H193       -6.1367  -23.2005  -47.2211 H         1 UNK         0.0600 
    194 H194       -5.7413  -21.5066  -47.0254 H         1 UNK         0.0600 
    195 H195       -3.0978  -24.1112  -45.6533 H         1 UNK         0.3000 
    196 H196       -3.5508  -26.7491  -46.5241 H         1 UNK         0.0600 
    197 H197       -2.0457  -27.3621  -44.6279 H         1 UNK         0.0600 
    198 H198       -3.1964  -26.1228  -44.1520 H         1 UNK         0.0600 
    199 H199       -1.5211  -25.6888  -44.4887 H         1 UNK         0.0600 
    200 H200       -0.6416  -24.6980  -46.8832 H         1 UNK         0.3000 
    201 H201        0.9841  -26.6890  -48.1842 H         1 UNK         0.0600 
    202 H202        1.9300  -24.7129  -46.9988 H         1 UNK         0.0600 
    203 H203        1.1563  -23.6253  -48.1510 H         1 UNK         0.0600 
    204 H204        2.4336  -24.7130  -48.6821 H         1 UNK         0.0600 
    205 H205       -1.6304  -24.7260  -49.2808 H         1 UNK         0.3000 
    206 H206       -2.5579  -24.1229  -51.1819 H         1 UNK         0.0600 
    207 H207       -2.5218  -25.6516  -53.1193 H         1 UNK         0.0600 
    208 H208       -1.1309  -26.5098  -52.4701 H         1 UNK         0.0600 
    209 H209       -2.6814  -26.5732  -51.6320 H         1 UNK         0.0600 
    210 H210       -0.5481  -22.5733  -50.4543 H         1 UNK         0.3000 
    211 H211        1.3730  -22.1157  -52.6368 H         1 UNK         0.0600 
    212 H212        0.9063  -20.8273  -49.9035 H         1 UNK         0.0600 
    213 H213        2.1630  -20.3092  -51.0214 H         1 UNK         0.0600 
    214 H214        2.1951  -21.9315  -50.3501 H         1 UNK         0.0600 
    215 H215        1.6307  -19.9907  -53.5257 H         1 UNK         0.3000 
    216 H216        1.1422  -18.2339  -54.7066 H         1 UNK         0.0600 
    217 H217       -0.5010  -16.5756  -53.9473 H         1 UNK         0.0600 
    218 H218        0.3619  -17.2286  -52.5666 H         1 UNK         0.0600 
    219 H219       -1.2848  -17.7519  -52.9043 H         1 UNK         0.0600 
    220 H220       -1.8733  -20.0566  -54.1377 H         1 UNK         0.3000 
    221 H221       -2.4615  -20.3494  -56.9480 H         1 UNK         0.0600 
    222 H222       -4.3744  -18.6347  -55.2483 H         1 UNK         0.0600 
    223 H223       -3.3421  -17.9981  -56.5236 H         1 UNK         0.0600 
    224 H224       -4.6240  -19.1157  -56.9269 H         1 UNK         0.0600 
    225 H225       -5.2993  -20.8742  -56.3521 H         1 UNK         0.3000 
    226 H226       -5.1215  -23.5469  -55.2136 H         1 UNK         0.0600 
    227 H227       -6.5544  -23.0836  -57.1748 H         1 UNK         0.0600 
    228 H228       -7.5405  -23.6084  -55.8201 H         1 UNK         0.0600 
    229 H229       -7.4900  -21.9043  -56.2570 H         1 UNK         0.0600 
    230 H230       -4.2144  -22.4837  -53.2170 H         1 UNK         0.3000 
    231 H231       -4.2195  -22.3286  -51.0304 H         1 UNK         0.0600 
    232 H232       -6.2321  -22.9648  -49.6537 H         1 UNK         0.0600 
    233 H233       -5.8567  -24.1501  -50.8924 H         1 UNK         0.0600 
    234 H234       -7.2034  -23.0304  -51.1043 H         1 UNK         0.0600 
    235 H235       -6.7718  -20.4462  -52.5378 H         1 UNK         0.3000 
    236 H236       -7.5458  -18.3727  -52.3109 H         1 UNK         0.0600 
    237 H237       -5.1576  -17.7333  -52.7077 H         1 UNK         0.0600 
    238 H238       -5.9707  -16.5538  -51.6992 H         1 UNK         0.0600 
    239 H239       -4.8561  -17.7127  -50.9769 H         1 UNK         0.0600 
    240 H240       -6.4444  -16.8017  -49.7065 H         1 UNK         0.3000 
    241 H241       -8.6280  -17.6069  -47.9310 H         1 UNK         0.0600 
    242 H242       -5.3313  -19.3873  -46.6021 H         1 UNK         0.3800 
    243 H243       -5.6181  -19.0517  -48.2957 H         1 UNK         0.3800 
    244 H244       -8.6541  -15.3457  -47.9061 H         1 UNK         0.0800 
    245 H245       -7.6375  -15.5724  -46.5306 H         1 UNK         0.0800 
    246 H246       -4.6845  -13.9711  -46.9113 H         1 UNK         0.0800 
    247 H247       -5.0976  -15.6534  -46.6938 H         1 UNK         0.0800 
@<TRIPOS>BOND
     1    1    2 1    
     2    1  127 1    
     3    1  128 1    
     4    1  129 1    
     5    2    3 2    
     6    2    4 am   BACKBONE|DICT|INTERRES
     7    4    5 1    
     8    4  130 1    
     9    5    6 1    
    10    5   65 1    
    11    5  131 1    
    12    6    7 1    
    13    6  132 1    
    14    6  133 1    
    15    7    8 1    
    16    8    9 1    
    17    8  134 1    
    18    8  135 1    
    19    9   10 ar   
    20    9   14 ar   
    21   10   11 ar   
    22   10  136 1    
    23   11   12 ar   
    24   11  126 1    
    25   12   13 ar   
    26   12  137 1    
    27   13   14 ar   
    28   13   15 1    
    29   14  138 1    
    30   15   16 1    
    31   15  139 1    
    32   15  140 1    
    33   16   17 1    
    34   17   18 1    
    35   17  141 1    
    36   17  142 1    
    37   18   19 1    
    38   18   67 1    
    39   18  143 1    
    40   19   20 am   BACKBONE|DICT|INTERRES
    41   19  144 1    
    42   20   21 2    
    43   20   22 1    
    44   22   23 1    
    45   22   24 1    
    46   22  145 1    
    47   23  146 1    
    48   23  147 1    
    49   23  148 1    
    50   24   25 am   BACKBONE|DICT|INTERRES
    51   24  149 1    
    52   25   26 2    
    53   25   27 1    
    54   27   28 1    
    55   27   29 1    
    56   27  150 1    
    57   28  151 1    
    58   28  152 1    
    59   28  153 1    
    60   29   30 am   BACKBONE|DICT|INTERRES
    61   29  154 1    
    62   30   31 2    
    63   30   32 1    
    64   32   33 1    
    65   32   34 1    
    66   32  155 1    
    67   33  156 1    
    68   33  157 1    
    69   33  158 1    
    70   34   35 am   BACKBONE|DICT|INTERRES
    71   34  159 1    
    72   35   36 2    
    73   35   37 1    
    74   37   38 1    
    75   37   39 1    
    76   37  160 1    
    77   38  161 1    
    78   38  162 1    
    79   38  163 1    
    80   39   40 am   BACKBONE|DICT|INTERRES
    81   39  164 1    
    82   40   41 2    
    83   40   42 1    
    84   42   43 1    
    85   42   44 1    
    86   42  165 1    
    87   43  166 1    
    88   43  167 1    
    89   43  168 1    
    90   44   45 am   BACKBONE|DICT|INTERRES
    91   44  169 1    
    92   45   46 2    
    93   45   47 1    
    94   47   48 1    
    95   47   49 1    
    96   47  170 1    
    97   48  171 1    
    98   48  172 1    
    99   48  173 1    
   100   49   50 am   BACKBONE|DICT|INTERRES
   101   49  174 1    
   102   50   51 2    
   103   50   52 1    
   104   52   53 1    
   105   52   54 1    
   106   52  175 1    
   107   53  176 1    
   108   53  177 1    
   109   53  178 1    
   110   54   55 am   BACKBONE|DICT|INTERRES
   111   54  179 1    
   112   55   56 2    
   113   55   57 1    
   114   57   58 1    
   115   57   59 1    
   116   57  180 1    
   117   58  181 1    
   118   58  182 1    
   119   58  183 1    
   120   59   60 am   BACKBONE|DICT|INTERRES
   121   59  184 1    
   122   60   61 2    
   123   60   62 1    
   124   62   63 1    
   125   62   64 1    
   126   62  185 1    
   127   63  186 1    
   128   63  187 1    
   129   63  188 1    
   130   64   65 am   BACKBONE|DICT|INTERRES
   131   64  189 1    
   132   65   66 2    
   133   67   68 2    
   134   67   69 am   BACKBONE|DICT|INTERRES
   135   69   70 1    
   136   69  190 1    
   137   70   71 1    
   138   70   72 1    
   139   70  191 1    
   140   71  192 1    
   141   71  193 1    
   142   71  194 1    
   143   72   73 2    
   144   72   74 am   BACKBONE|DICT|INTERRES
   145   74   75 1    
   146   74  195 1    
   147   75   76 1    
   148   75   77 1    
   149   75  196 1    
   150   76  197 1    
   151   76  198 1    
   152   76  199 1    
   153   77   78 2    
   154   77   79 am   BACKBONE|DICT|INTERRES
   155   79   80 1    
   156   79  200 1    
   157   80   81 1    
   158   80   82 1    
   159   80  201 1    
   160   81  202 1    
   161   81  203 1    
   162   81  204 1    
   163   82   83 2    
   164   82   84 am   BACKBONE|DICT|INTERRES
   165   84   85 1    
   166   84  205 1    
   167   85   86 1    
   168   85   87 1    
   169   85  206 1    
   170   86  207 1    
   171   86  208 1    
   172   86  209 1    
   173   87   88 2    
   174   87   89 am   BACKBONE|DICT|INTERRES
   175   89   90 1    
   176   89  210 1    
   177   90   91 1    
   178   90   92 1    
   179   90  211 1    
   180   91  212 1    
   181   91  213 1    
   182   91  214 1    
   183   92   93 2    
   184   92   94 am   BACKBONE|DICT|INTERRES
   185   94   95 1    
   186   94  215 1    
   187   95   96 1    
   188   95   97 1    
   189   95  216 1    
   190   96  217 1    
   191   96  218 1    
   192   96  219 1    
   193   97   98 2    
   194   97   99 am   BACKBONE|DICT|INTERRES
   195   99  100 1    
   196   99  220 1    
   197  100  101 1    
   198  100  102 1    
   199  100  221 1    
   200  101  222 1    
   201  101  223 1    
   202  101  224 1    
   203  102  103 2    
   204  102  104 am   BACKBONE|DICT|INTERRES
   205  104  105 1    
   206  104  225 1    
   207  105  106 1    
   208  105  107 1    
   209  105  226 1    
   210  106  227 1    
   211  106  228 1    
   212  106  229 1    
   213  107  108 2    
   214  107  109 am   BACKBONE|DICT|INTERRES
   215  109  110 1    
   216  109  230 1    
   217  110  111 1    
   218  110  112 1    
   219  110  231 1    
   220  111  232 1    
   221  111  233 1    
   222  111  234 1    
   223  112  113 2    
   224  112  114 am   BACKBONE|DICT|INTERRES
   225  114  115 1    
   226  114  235 1    
   227  115  116 1    
   228  115  117 1    
   229  115  236 1    
   230  116  237 1    
   231  116  238 1    
   232  116  239 1    
   233  117  118 2    
   234  117  119 am   BACKBONE|DICT|INTERRES
   235  119  120 1    
   236  119  240 1    
   237  120  121 1    
   238  120  124 1    
   239  120  241 1    
   240  121  122 am   BACKBONE|DICT|INTERRES
   241  121  123 2    
   242  122  242 1    
   243  122  243 1    
   244  124  125 1    
   245  124  244 1    
   246  124  245 1    
   247  125  126 1    
   248  126  246 1    
   249  126  247 1    
@<TRIPOS>SUBSTRUCTURE
     1 UNK         1 GROUP             0       ****    0 ROOT    
