@<TRIPOS>MOLECULE
3R540
247   249    1
SMALL
USER_CHARGES


@<TRIPOS>ATOM
      1 CA         -0.8985  -12.4000  -52.7561 C.3       0 UNK        -0.1800 
      2 C          -0.2744  -13.4551  -51.8545 C.2       0 UNK         0.5000 
      3 O          -0.7666  -14.5801  -51.7995 O.2       0 UNK        -0.5000 
      4 N           0.7987  -13.0924  -51.1392 N.am      1 UNK        -0.5000 
      5 CA          1.5802  -13.9167  -50.2063 C.3       1 UNK         0.1400 
      6 C6          2.1811  -15.1957  -50.8528 C.3       23 UNK        -0.0398 
      7 S7          3.6808  -15.7741  -49.9838 S.3       23 UNK        -0.2404 
      8 C8          2.9929  -17.0505  -48.8766 C.3       23 UNK        -0.0205 
      9 C9          3.2007  -18.4716  -49.3784 C.ar      23 UNK        -0.0193 
     10 C10         2.8352  -18.8365  -50.6760 C.ar      23 UNK        -0.1150 
     11 C11         3.0033  -20.1484  -51.1244 C.ar      23 UNK        -0.0193 
     12 C12         3.5465  -21.1051  -50.2603 C.ar      23 UNK        -0.1150 
     13 C13         3.9226  -20.7522  -48.9596 C.ar      23 UNK        -0.0193 
     14 C14         3.7422  -19.4363  -48.5251 C.ar      23 UNK        -0.1150 
     15 C15         4.5619  -21.7756  -48.0313 C.3       23 UNK        -0.0205 
     16 S16         3.3811  -23.0176  -47.4224 S.3       23 UNK        -0.2404 
     17 C17         2.2456  -22.0178  -46.3963 C.3       23 UNK        -0.0398 
     18 CA          0.8873  -22.7304  -46.1993 C.3       11 UNK         0.1400 
     19 N           0.0992  -22.1676  -45.1021 N.am      11 UNK        -0.5000 
     20 C          -0.9766  -22.7677  -44.5704 C.2       10 UNK         0.5000 
     21 O          -1.3401  -23.9050  -44.8696 O.2       10 UNK        -0.5000 
     22 CA         -1.8104  -21.9551  -43.5631 C.3       10 UNK         0.1400 
     23 CB         -1.2575  -22.1253  -42.1409 C.3       10 UNK        -0.1800 
     24 N          -1.8875  -20.5322  -43.9006 N.am      10 UNK        -0.5000 
     25 C          -2.4750  -20.0448  -45.0031 C.2       9 UNK         0.5000 
     26 O          -3.0551  -20.7503  -45.8272 O.2       9 UNK        -0.5000 
     27 CA         -2.3526  -18.5285  -45.2503 C.3       9 UNK         0.1400 
     28 CB         -3.4032  -17.7527  -44.4433 C.3       9 UNK        -0.1800 
     29 N          -1.0177  -18.0131  -44.9425 N.am      9 UNK        -0.5000 
     30 C           0.0996  -18.3682  -45.5930 C.2       8 UNK         0.5000 
     31 O           0.1205  -19.1291  -46.5605 O.2       8 UNK        -0.5000 
     32 CA          1.4230  -17.8344  -45.0198 C.3       8 UNK         0.1400 
     33 CB          1.6678  -16.3733  -45.4283 C.3       8 UNK        -0.1800 
     34 N           1.4557  -17.9511  -43.5624 N.am      8 UNK        -0.5000 
     35 C           1.5410  -19.1147  -42.9015 C.2       7 UNK         0.5000 
     36 O           1.6478  -20.2068  -43.4590 O.2       7 UNK        -0.5000 
     37 CA          1.4615  -19.0517  -41.3637 C.3       7 UNK         0.1400 
     38 CB          2.8589  -18.8402  -40.7630 C.3       7 UNK        -0.1800 
     39 N           0.5663  -17.9995  -40.8794 N.am      7 UNK        -0.5000 
     40 C          -0.7618  -17.9772  -41.0656 C.2       6 UNK         0.5000 
     41 O          -1.3861  -18.8760  -41.6252 O.2       6 UNK        -0.5000 
     42 CA         -1.5066  -16.7088  -40.6035 C.3       6 UNK         0.1400 
     43 CB         -1.9635  -16.8515  -39.1444 C.3       6 UNK        -0.1800 
     44 N          -0.7002  -15.4922  -40.7464 N.am      6 UNK        -0.5000 
     45 C          -0.2381  -15.0318  -41.9160 C.2       5 UNK         0.5000 
     46 O          -0.4921  -15.5576  -43.0016 O.2       5 UNK        -0.5000 
     47 CA          0.7424  -13.8557  -41.8459 C.3       5 UNK         0.1400 
     48 CB          2.1233  -14.3616  -41.3753 C.3       5 UNK        -0.1800 
     49 N           0.8534  -13.2351  -43.1637 N.am      5 UNK        -0.5000 
     50 C           1.4684  -12.0742  -43.4207 C.2       4 UNK         0.5000 
     51 O           1.9731  -11.3615  -42.5515 O.2       4 UNK        -0.5000 
     52 CA          1.5475  -11.6262  -44.8917 C.3       4 UNK         0.1400 
     53 CB          2.8033  -12.2115  -45.5558 C.3       4 UNK        -0.1800 
     54 N           0.3680  -11.9694  -45.6895 N.am      4 UNK        -0.5000 
     55 C          -0.8482  -11.4280  -45.5131 C.2       3 UNK         0.5000 
     56 O          -1.1062  -10.6244  -44.6158 O.2       3 UNK        -0.5000 
     57 CA         -1.9641  -11.8049  -46.5115 C.3       3 UNK         0.1400 
     58 CB         -2.2725  -10.6220  -47.4435 C.3       3 UNK        -0.1800 
     59 N          -1.6563  -12.9722  -47.3357 N.am      3 UNK        -0.5000 
     60 C          -1.6334  -14.2361  -46.8961 C.2       2 UNK         0.5000 
     61 O          -1.9167  -14.5588  -45.7443 O.2       2 UNK        -0.5000 
     62 CA         -1.2029  -15.3180  -47.9054 C.3       2 UNK         0.1400 
     63 CB         -2.4349  -16.0197  -48.4875 C.3       2 UNK        -0.1800 
     64 N          -0.3667  -14.8387  -49.0101 N.am      2 UNK        -0.5000 
     65 C           0.8218  -14.2319  -48.8988 C.2       1 UNK         0.5000 
     66 O           1.3155  -13.9091  -47.8193 O.2       1 UNK        -0.5000 
     67 C           0.0601  -22.7784  -47.4989 C.2       11 UNK         0.5000 
     68 O          -0.0302  -23.8431  -48.1088 O.2       11 UNK        -0.5000 
     69 N          -0.5799  -21.6570  -47.8648 N.am      12 UNK        -0.5000 
     70 CA         -1.4479  -21.5338  -49.0404 C.3       12 UNK         0.1400 
     71 CB         -1.9852  -20.0998  -49.1350 C.3       12 UNK        -0.1800 
     72 C          -2.6054  -22.5493  -49.0624 C.2       12 UNK         0.5000 
     73 O          -2.8901  -23.1270  -50.1126 O.2       12 UNK        -0.5000 
     74 N          -3.1941  -22.8088  -47.8867 N.am      13 UNK        -0.5000 
     75 CA         -4.2372  -23.8099  -47.6585 C.3       13 UNK         0.1400 
     76 CB         -4.7157  -23.7148  -46.2025 C.3       13 UNK        -0.1800 
     77 C          -3.8241  -25.2569  -47.9955 C.2       13 UNK         0.5000 
     78 O          -4.7058  -26.0795  -48.2421 O.2       13 UNK        -0.5000 
     79 N          -2.5159  -25.5422  -48.0159 N.am      14 UNK        -0.5000 
     80 CA         -1.9500  -26.8226  -48.4314 C.3       14 UNK         0.1400 
     81 CB         -0.8748  -27.2505  -47.4193 C.3       14 UNK        -0.1800 
     82 C          -1.3580  -26.7285  -49.8478 C.2       14 UNK         0.5000 
     83 O          -1.6374  -27.5913  -50.6798 O.2       14 UNK        -0.5000 
     84 N          -0.5464  -25.6914  -50.0945 N.am      15 UNK        -0.5000 
     85 CA          0.2462  -25.5092  -51.3105 C.3       15 UNK         0.1400 
     86 CB          1.3103  -24.4300  -51.0573 C.3       15 UNK        -0.1800 
     87 C          -0.5886  -25.1754  -52.5592 C.2       15 UNK         0.5000 
     88 O          -0.2882  -25.6929  -53.6360 O.2       15 UNK        -0.5000 
     89 N          -1.6191  -24.3367  -52.3965 N.am      16 UNK        -0.5000 
     90 CA         -2.5476  -23.9385  -53.4585 C.3       16 UNK         0.1400 
     91 CB         -2.5999  -22.4049  -53.5224 C.3       16 UNK        -0.1800 
     92 C          -3.9555  -24.5236  -53.2457 C.2       16 UNK         0.5000 
     93 O          -4.8270  -24.3116  -54.0894 O.2       16 UNK        -0.5000 
     94 N          -4.1548  -25.2377  -52.1276 N.am      17 UNK        -0.5000 
     95 CA         -5.4021  -25.8600  -51.6714 C.3       17 UNK         0.1400 
     96 CB         -5.8756  -26.9449  -52.6617 C.3       17 UNK        -0.1800 
     97 C          -6.5149  -24.8466  -51.3187 C.2       17 UNK         0.5000 
     98 O          -7.6868  -25.2249  -51.2704 O.2       17 UNK        -0.5000 
     99 N          -6.1430  -23.5860  -51.0621 N.am      18 UNK        -0.5000 
    100 CA        -7.0470  -22.5000  -50.7033 C.3       18 UNK         0.1400 
    101 CB        -7.7008  -21.9058  -51.9626 C.3       18 UNK        -0.1800 
    102 C         -6.2421  -21.4457  -49.9403 C.2       18 UNK         0.5000 
    103 O         -5.2214  -20.9795  -50.4467 O.2       18 UNK        -0.5000 
    104 N         -6.7080  -21.0913  -48.7367 N.am      19 UNK        -0.5000 
    105 CA        -5.9994  -20.2360  -47.7784 C.3       19 UNK         0.1400 
    106 CB        -6.7685  -20.2390  -46.4481 C.3       19 UNK        -0.1800 
    107 C         -5.7523  -18.7893  -48.2462 C.2       19 UNK         0.5000 
    108 O         -4.8799  -18.1274  -47.6905 O.2       19 UNK        -0.5000 
    109 N         -6.5227  -18.3228  -49.2362 N.am      20 UNK        -0.5000 
    110 CA        -6.4060  -16.9895  -49.8288 C.3       20 UNK         0.1400 
    111 CB        -7.8252  -16.4508  -50.0777 C.3       20 UNK        -0.1800 
    112 C         -5.5875  -16.9799  -51.1369 C.2       20 UNK         0.5000 
    113 O         -5.3767  -15.9014  -51.6944 O.2       20 UNK        -0.5000 
    114 N         -5.1763  -18.1570  -51.6289 N.am      21 UNK        -0.5000 
    115 CA        -4.4343  -18.3268  -52.8784 C.3       21 UNK         0.1400 
    116 CB        -4.9634  -19.5867  -53.5893 C.3       21 UNK        -0.1800 
    117 C         -2.9103  -18.3585  -52.6318 C.2       21 UNK         0.5000 
    118 O         -2.4384  -17.8530  -51.6130 O.2       21 UNK        -0.5000 
    119 N         -2.1619  -18.9412  -53.5797 N.am      22 UNK        -0.5000 
    120 CA        -0.6893  -19.0519  -53.5780 C.3       22 UNK         0.1400 
    121 C          0.0534  -17.7121  -53.8817 C.2       22 UNK         0.5000 
    122 N         -0.6098  -16.7042  -54.4347 N.am      22 UNK        -0.7600 
    123 O          1.2512  -17.5847  -53.6510 O.2       22 UNK        -0.5000 
    124 C124       -0.1379  -19.8056  -52.3263 C.3       23 UNK        -0.0398 
    125 S125        0.9696  -21.2036  -52.7252 S.3       23 UNK        -0.2404 
    126 C126        2.6445  -20.5101  -52.5582 C.3       23 UNK        -0.0205 
    127 H127       -0.8886  -12.7396  -53.7917 H         1 UNK         0.0600 
    128 H128       -0.3632  -11.4517  -52.7034 H         1 UNK         0.0600 
    129 H129       -1.9338  -12.2235  -52.4644 H         1 UNK         0.0600 
    130 H130        1.1262  -12.1399  -51.2251 H         1 UNK         0.3000 
    131 H131        2.4146  -13.2720  -49.9243 H         1 UNK         0.0600 
    132 H132        2.4805  -14.9805  -51.8794 H         1 UNK         0.0800 
    133 H133        1.4432  -15.9964  -50.9291 H         1 UNK         0.0800 
    134 H134        1.9252  -16.8955  -48.7241 H         1 UNK         0.0800 
    135 H135        3.4681  -16.9251  -47.9029 H         1 UNK         0.0800 
    136 H136        2.4269  -18.0948  -51.3461 H         1 UNK         0.1150 
    137 H137        3.6878  -22.1208  -50.6027 H         1 UNK         0.1150 
    138 H138        4.0294  -19.1624  -47.5196 H         1 UNK         0.1150 
    139 H139        5.3618  -22.2881  -48.5674 H         1 UNK         0.0800 
    140 H140        5.0349  -21.2859  -47.1786 H         1 UNK         0.0800 
    141 H141        2.1047  -21.0282  -46.8321 H         1 UNK         0.0800 
    142 H142        2.7285  -21.8598  -45.4311 H         1 UNK         0.0800 
    143 H143        1.1037  -23.7645  -45.9203 H         1 UNK         0.0600 
    144 H144        0.3749  -21.2552  -44.7579 H         1 UNK         0.3000 
    145 H145       -2.8271  -22.3534  -43.5805 H         1 UNK         0.0600 
    146 H146       -1.8795  -21.6080  -41.4103 H         1 UNK         0.0600 
    147 H147       -0.2433  -21.7364  -42.0556 H         1 UNK         0.0600 
    148 H148       -1.2300  -23.1779  -41.8568 H         1 UNK         0.0600 
    149 H149       -1.5004  -19.8820  -43.2219 H         1 UNK         0.3000 
    150 H150       -2.5388  -18.3489  -46.3104 H         1 UNK         0.0600 
    151 H151       -4.4097  -18.0908  -44.6924 H         1 UNK         0.0600 
    152 H152       -3.3567  -16.6858  -44.6616 H         1 UNK         0.0600 
    153 H153       -3.2670  -17.8819  -43.3696 H         1 UNK         0.0600 
    154 H154       -0.9452  -17.3535  -44.1762 H         1 UNK         0.3000 
    155 H155        2.2343  -18.4396  -45.4304 H         1 UNK         0.0600 
    156 H156        1.7079  -16.2753  -46.5097 H         1 UNK         0.0600 
    157 H157        2.6128  -16.0012  -45.0327 H         1 UNK         0.0600 
    158 H158        0.8763  -15.7079  -45.0898 H         1 UNK         0.0600 
    159 H159        1.3004  -17.1029  -43.0380 H         1 UNK         0.3000 
    160 H160        1.0792  -20.0106  -41.0090 H         1 UNK         0.0600 
    161 H161        3.2854  -17.8812  -41.0605 H         1 UNK         0.0600 
    162 H162        3.5465  -19.6213  -41.0903 H         1 UNK         0.0600 
    163 H163        2.8289  -18.8714  -39.6737 H         1 UNK         0.0600 
    164 H164        0.9956  -17.2227  -40.3998 H         1 UNK         0.3000 
    165 H165       -2.3932  -16.6000  -41.2318 H         1 UNK         0.0600 
    166 H166       -2.5592  -15.9937  -38.8319 H         1 UNK         0.0600 
    167 H167       -2.5830  -17.7401  -39.0152 H         1 UNK         0.0600 
    168 H168       -1.1166  -16.9397  -38.4627 H         1 UNK         0.0600 
    169 H169       -0.4468  -15.0154  -39.8928 H         1 UNK         0.3000 
    170 H170        0.3524  -13.1209  -41.1387 H         1 UNK         0.0600 
    171 H171        2.5540  -15.0684  -42.0858 H         1 UNK         0.0600 
    172 H172        2.8323  -13.5434  -41.2514 H         1 UNK         0.0600 
    173 H173        2.0555  -14.8652  -40.4104 H         1 UNK         0.0600 
    174 H174        0.4092  -13.7526  -43.9128 H         1 UNK         0.3000 
    175 H175        1.6436  -10.5384  -44.8970 H         1 UNK         0.0600 
    176 H176        2.7711  -13.3014  -45.5850 H         1 UNK         0.0600 
    177 H177        2.9142  -11.8519  -46.5790 H         1 UNK         0.0600 
    178 H178        3.7037  -11.9249  -45.0111 H         1 UNK         0.0600 
    179 H179        0.5135  -12.6297  -46.4463 H         1 UNK         0.3000 
    180 H180       -2.8612  -12.0234  -45.9284 H         1 UNK         0.0600 
    181 H181       -3.1064  -10.8494  -48.1079 H         1 UNK         0.0600 
    182 H182       -1.4115  -10.3614  -48.0605 H         1 UNK         0.0600 
    183 H183       -2.5479   -9.7342  -46.8727 H         1 UNK         0.0600 
    184 H184       -1.4019  -12.7978  -48.2965 H         1 UNK         0.3000 
    185 H185       -0.6235  -16.0572  -47.3518 H         1 UNK         0.0600 
    186 H186       -2.9866  -15.3734  -49.1711 H         1 UNK         0.0600 
    187 H187       -2.1576  -16.9243  -49.0289 H         1 UNK         0.0600 
    188 H188       -3.1179  -16.3141  -47.6917 H         1 UNK         0.0600 
    189 H189       -0.7089  -15.0149  -49.9523 H         1 UNK         0.3000 
    190 H190       -0.4439  -20.8124  -47.3152 H         1 UNK         0.3000 
    191 H191       -0.8298  -21.7289  -49.9182 H         1 UNK         0.0600 
    192 H192       -2.5490  -19.8172  -48.2475 H         1 UNK         0.0600 
    193 H193       -2.6569  -19.9921  -49.9868 H         1 UNK         0.0600 
    194 H194       -1.1765  -19.3796  -49.2609 H         1 UNK         0.0600 
    195 H195       -2.9248  -22.2457  -47.0846 H         1 UNK         0.3000 
    196 H196       -5.0767  -23.5598  -48.3069 H         1 UNK         0.0600 
    197 H197       -5.0353  -22.7042  -45.9531 H         1 UNK         0.0600 
    198 H198       -3.9289  -23.9960  -45.5029 H         1 UNK         0.0600 
    199 H199       -5.5635  -24.3777  -46.0257 H         1 UNK         0.0600 
    200 H200       -1.8533  -24.8012  -47.8174 H         1 UNK         0.3000 
    201 H201       -2.7204  -27.5964  -48.4433 H         1 UNK         0.0600 
    202 H202       -1.3023  -27.3760  -46.4244 H         1 UNK         0.0600 
    203 H203       -0.0704  -26.5177  -47.3443 H         1 UNK         0.0600 
    204 H204       -0.4270  -28.2033  -47.7043 H         1 UNK         0.0600 
    205 H205       -0.3674  -25.0215  -49.3470 H         1 UNK         0.3000 
    206 H206        0.7667  -26.4483  -51.5099 H         1 UNK         0.0600 
    207 H207        1.9167  -24.2559  -51.9469 H         1 UNK         0.0600 
    208 H208        0.8571  -23.4791  -50.7760 H         1 UNK         0.0600 
    209 H209        1.9863  -24.7226  -50.2536 H         1 UNK         0.0600 
    210 H210       -1.8155  -23.9538  -51.4757 H         1 UNK         0.3000 
    211 H211       -2.2044  -24.3008  -54.4293 H         1 UNK         0.0600 
    212 H212       -2.8900  -21.9676  -52.5665 H         1 UNK         0.0600 
    213 H213       -3.3126  -22.0662  -54.2747 H         1 UNK         0.0600 
    214 H214       -1.6299  -21.9976  -53.8000 H         1 UNK         0.0600 
    215 H215       -3.3672  -25.3334  -51.5031 H         1 UNK         0.3000 
    216 H216       -5.1546  -26.3709  -50.7425 H         1 UNK         0.0600 
    217 H217       -6.6941  -27.5289  -52.2393 H         1 UNK         0.0600 
    218 H218       -5.0712  -27.6418  -52.8973 H         1 UNK         0.0600 
    219 H219       -6.2335  -26.5146  -53.5972 H         1 UNK         0.0600 
    220 H220       -5.1601  -23.3389  -51.0889 H         1 UNK         0.3000 
    221 H221       -7.8298  -22.8859  -50.0467 H         1 UNK         0.0600 
    222 H222       -6.9534  -21.5944  -52.6919 H         1 UNK         0.0600 
    223 H223       -8.3529  -22.6321  -52.4478 H         1 UNK         0.0600 
    224 H224       -8.3096  -21.0347  -51.7176 H         1 UNK         0.0600 
    225 H225       -7.5704  -21.5010  -48.4075 H         1 UNK         0.3000 
    226 H226       -5.0195  -20.6828  -47.6078 H         1 UNK         0.0600 
    227 H227       -6.9165  -21.2515  -46.0734 H         1 UNK         0.0600 
    228 H228       -6.2211  -19.6886  -45.6816 H         1 UNK         0.0600 
    229 H229       -7.7494  -19.7734  -46.5509 H         1 UNK         0.0600 
    230 H230       -7.2211  -18.9356  -49.6299 H         1 UNK         0.3000 
    231 H231       -5.9065  -16.3122  -49.1328 H         1 UNK         0.0600 
    232 H232       -7.7968  -15.4366  -50.4783 H         1 UNK         0.0600 
    233 H233       -8.4007  -16.4153  -49.1524 H         1 UNK         0.0600 
    234 H234       -8.3717  -17.0702  -50.7900 H         1 UNK         0.0600 
    235 H235       -5.3038  -18.9965  -51.0749 H         1 UNK         0.3000 
    236 H236       -4.6265  -17.4773  -53.5367 H         1 UNK         0.0600 
    237 H237       -4.7482  -20.4891  -53.0183 H         1 UNK         0.0600 
    238 H238       -6.0437  -19.5308  -53.7234 H         1 UNK         0.0600 
    239 H239       -4.5312  -19.7065  -54.5828 H         1 UNK         0.0600 
    240 H240       -2.6240  -19.3215  -54.3925 H         1 UNK         0.3000 
    241 H241       -0.4777  -19.6669  -54.4530 H         1 UNK         0.0600 
    242 H242       -0.1251  -15.8412  -54.6189 H         1 UNK         0.3800 
    243 H243       -1.5952  -16.7778  -54.6247 H         1 UNK         0.3800 
    244 H244        0.3182  -19.1267  -51.6074 H         1 UNK         0.0800 
    245 H245       -0.9642  -20.2610  -51.7835 H         1 UNK         0.0800 
    246 H246        2.7500  -19.6427  -53.2097 H         1 UNK         0.0800 
    247 H247        3.3580  -21.2463  -52.9307 H         1 UNK         0.0800 
@<TRIPOS>BOND
     1    1    2 1    
     2    1  127 1    
     3    1  128 1    
     4    1  129 1    
     5    2    3 2    
     6    2    4 am   BACKBONE|DICT|INTERRES
     7    4    5 1    
     8    4  130 1    
     9    5    6 1    
    10    5   65 1    
    11    5  131 1    
    12    6    7 1    
    13    6  132 1    
    14    6  133 1    
    15    7    8 1    
    16    8    9 1    
    17    8  134 1    
    18    8  135 1    
    19    9   10 ar   
    20    9   14 ar   
    21   10   11 ar   
    22   10  136 1    
    23   11   12 ar   
    24   11  126 1    
    25   12   13 ar   
    26   12  137 1    
    27   13   14 ar   
    28   13   15 1    
    29   14  138 1    
    30   15   16 1    
    31   15  139 1    
    32   15  140 1    
    33   16   17 1    
    34   17   18 1    
    35   17  141 1    
    36   17  142 1    
    37   18   19 1    
    38   18   67 1    
    39   18  143 1    
    40   19   20 am   BACKBONE|DICT|INTERRES
    41   19  144 1    
    42   20   21 2    
    43   20   22 1    
    44   22   23 1    
    45   22   24 1    
    46   22  145 1    
    47   23  146 1    
    48   23  147 1    
    49   23  148 1    
    50   24   25 am   BACKBONE|DICT|INTERRES
    51   24  149 1    
    52   25   26 2    
    53   25   27 1    
    54   27   28 1    
    55   27   29 1    
    56   27  150 1    
    57   28  151 1    
    58   28  152 1    
    59   28  153 1    
    60   29   30 am   BACKBONE|DICT|INTERRES
    61   29  154 1    
    62   30   31 2    
    63   30   32 1    
    64   32   33 1    
    65   32   34 1    
    66   32  155 1    
    67   33  156 1    
    68   33  157 1    
    69   33  158 1    
    70   34   35 am   BACKBONE|DICT|INTERRES
    71   34  159 1    
    72   35   36 2    
    73   35   37 1    
    74   37   38 1    
    75   37   39 1    
    76   37  160 1    
    77   38  161 1    
    78   38  162 1    
    79   38  163 1    
    80   39   40 am   BACKBONE|DICT|INTERRES
    81   39  164 1    
    82   40   41 2    
    83   40   42 1    
    84   42   43 1    
    85   42   44 1    
    86   42  165 1    
    87   43  166 1    
    88   43  167 1    
    89   43  168 1    
    90   44   45 am   BACKBONE|DICT|INTERRES
    91   44  169 1    
    92   45   46 2    
    93   45   47 1    
    94   47   48 1    
    95   47   49 1    
    96   47  170 1    
    97   48  171 1    
    98   48  172 1    
    99   48  173 1    
   100   49   50 am   BACKBONE|DICT|INTERRES
   101   49  174 1    
   102   50   51 2    
   103   50   52 1    
   104   52   53 1    
   105   52   54 1    
   106   52  175 1    
   107   53  176 1    
   108   53  177 1    
   109   53  178 1    
   110   54   55 am   BACKBONE|DICT|INTERRES
   111   54  179 1    
   112   55   56 2    
   113   55   57 1    
   114   57   58 1    
   115   57   59 1    
   116   57  180 1    
   117   58  181 1    
   118   58  182 1    
   119   58  183 1    
   120   59   60 am   BACKBONE|DICT|INTERRES
   121   59  184 1    
   122   60   61 2    
   123   60   62 1    
   124   62   63 1    
   125   62   64 1    
   126   62  185 1    
   127   63  186 1    
   128   63  187 1    
   129   63  188 1    
   130   64   65 am   BACKBONE|DICT|INTERRES
   131   64  189 1    
   132   65   66 2    
   133   67   68 2    
   134   67   69 am   BACKBONE|DICT|INTERRES
   135   69   70 1    
   136   69  190 1    
   137   70   71 1    
   138   70   72 1    
   139   70  191 1    
   140   71  192 1    
   141   71  193 1    
   142   71  194 1    
   143   72   73 2    
   144   72   74 am   BACKBONE|DICT|INTERRES
   145   74   75 1    
   146   74  195 1    
   147   75   76 1    
   148   75   77 1    
   149   75  196 1    
   150   76  197 1    
   151   76  198 1    
   152   76  199 1    
   153   77   78 2    
   154   77   79 am   BACKBONE|DICT|INTERRES
   155   79   80 1    
   156   79  200 1    
   157   80   81 1    
   158   80   82 1    
   159   80  201 1    
   160   81  202 1    
   161   81  203 1    
   162   81  204 1    
   163   82   83 2    
   164   82   84 am   BACKBONE|DICT|INTERRES
   165   84   85 1    
   166   84  205 1    
   167   85   86 1    
   168   85   87 1    
   169   85  206 1    
   170   86  207 1    
   171   86  208 1    
   172   86  209 1    
   173   87   88 2    
   174   87   89 am   BACKBONE|DICT|INTERRES
   175   89   90 1    
   176   89  210 1    
   177   90   91 1    
   178   90   92 1    
   179   90  211 1    
   180   91  212 1    
   181   91  213 1    
   182   91  214 1    
   183   92   93 2    
   184   92   94 am   BACKBONE|DICT|INTERRES
   185   94   95 1    
   186   94  215 1    
   187   95   96 1    
   188   95   97 1    
   189   95  216 1    
   190   96  217 1    
   191   96  218 1    
   192   96  219 1    
   193   97   98 2    
   194   97   99 am   BACKBONE|DICT|INTERRES
   195   99  100 1    
   196   99  220 1    
   197  100  101 1    
   198  100  102 1    
   199  100  221 1    
   200  101  222 1    
   201  101  223 1    
   202  101  224 1    
   203  102  103 2    
   204  102  104 am   BACKBONE|DICT|INTERRES
   205  104  105 1    
   206  104  225 1    
   207  105  106 1    
   208  105  107 1    
   209  105  226 1    
   210  106  227 1    
   211  106  228 1    
   212  106  229 1    
   213  107  108 2    
   214  107  109 am   BACKBONE|DICT|INTERRES
   215  109  110 1    
   216  109  230 1    
   217  110  111 1    
   218  110  112 1    
   219  110  231 1    
   220  111  232 1    
   221  111  233 1    
   222  111  234 1    
   223  112  113 2    
   224  112  114 am   BACKBONE|DICT|INTERRES
   225  114  115 1    
   226  114  235 1    
   227  115  116 1    
   228  115  117 1    
   229  115  236 1    
   230  116  237 1    
   231  116  238 1    
   232  116  239 1    
   233  117  118 2    
   234  117  119 am   BACKBONE|DICT|INTERRES
   235  119  120 1    
   236  119  240 1    
   237  120  121 1    
   238  120  124 1    
   239  120  241 1    
   240  121  122 am   BACKBONE|DICT|INTERRES
   241  121  123 2    
   242  122  242 1    
   243  122  243 1    
   244  124  125 1    
   245  124  244 1    
   246  124  245 1    
   247  125  126 1    
   248  126  246 1    
   249  126  247 1    
@<TRIPOS>SUBSTRUCTURE
     1 UNK         1 GROUP             0       ****    0 ROOT    
