@<TRIPOS>MOLECULE
3R540
247   249    1
SMALL
USER_CHARGES


@<TRIPOS>ATOM
      1 CA          4.1775  -12.1708  -51.1601 C.3       0 UNK        -0.1800 
      2 C           4.0674  -12.5028  -49.6792 C.2       0 UNK         0.5000 
      3 O           4.9126  -13.2214  -49.1448 O.2       0 UNK        -0.5000 
      4 N           3.0432  -11.9676  -49.0041 N.am      1 UNK        -0.5000 
      5 CA          2.7188  -12.1970  -47.5872 C.3       1 UNK         0.1400 
      6 C6          1.2079  -11.9833  -47.3033 C.3       23 UNK        -0.0398 
      7 S7          0.1426  -12.9888  -48.3913 S.3       23 UNK        -0.2404 
      8 C8         -0.1139  -14.4663  -47.3666 C.3       23 UNK        -0.0205 
      9 C9         -0.4741  -15.6659  -48.2271 C.ar      23 UNK        -0.0193 
     10 C10        -1.7737  -15.8144  -48.7208 C.ar      23 UNK        -0.1150 
     11 C11        -2.1230  -16.9356  -49.4795 C.ar      23 UNK        -0.0193 
     12 C12        -1.1495  -17.8948  -49.7685 C.ar      23 UNK        -0.1150 
     13 C13         0.1583  -17.7499  -49.2973 C.ar      23 UNK        -0.0193 
     14 C14         0.4890  -16.6352  -48.5219 C.ar      23 UNK        -0.1150 
     15 C15         1.2156  -18.7919  -49.6316 C.3       23 UNK        -0.0205 
     16 S16         1.3850  -20.0413  -48.3190 S.3       23 UNK        -0.2404 
     17 C17        -0.1929  -20.9376  -48.4834 C.3       23 UNK        -0.0398 
     18 CA         -0.2033  -22.2685  -47.6979 C.3       11 UNK         0.1400 
     19 N          -0.1266  -22.0543  -46.2488 N.am      11 UNK        -0.5000 
     20 C          -0.0035  -23.0252  -45.3332 C.2       10 UNK         0.5000 
     21 O           0.0980  -24.2187  -45.6104 O.2       10 UNK        -0.5000 
     22 CA         -0.0693  -22.5992  -43.8576 C.3       10 UNK         0.1400 
     23 CB          1.2650  -22.0001  -43.3872 C.3       10 UNK        -0.1800 
     24 N          -1.1570  -21.6520  -43.6174 N.am      10 UNK        -0.5000 
     25 C          -2.4583  -21.9641  -43.6972 C.2       9 UNK         0.5000 
     26 O          -2.8774  -23.0953  -43.9417 O.2       9 UNK        -0.5000 
     27 CA         -3.4583  -20.8096  -43.5145 C.3       9 UNK         0.1400 
     28 CB         -3.7346  -20.5592  -42.0249 C.3       9 UNK        -0.1800 
     29 N          -2.9997  -19.5704  -44.1411 N.am      9 UNK        -0.5000 
     30 C          -2.8891  -19.3924  -45.4661 C.2       8 UNK         0.5000 
     31 O          -3.1675  -20.2532  -46.2990 O.2       8 UNK        -0.5000 
     32 CA         -2.3297  -18.0406  -45.9404 C.3       8 UNK         0.1400 
     33 CB         -3.4580  -16.9986  -45.9810 C.3       8 UNK        -0.1800 
     34 N          -1.2364  -17.5391  -45.1074 N.am      8 UNK        -0.5000 
     35 C          -0.1077  -18.2104  -44.8258 C.2       7 UNK         0.5000 
     36 O           0.1570  -19.3188  -45.2886 O.2       7 UNK        -0.5000 
     37 CA          0.8600  -17.5807  -43.8038 C.3       7 UNK         0.1400 
     38 CB          2.0442  -16.9180  -44.5221 C.3       7 UNK        -0.1800 
     39 N           0.2229  -16.6049  -42.9162 N.am      7 UNK        -0.5000 
     40 C          -0.7932  -16.8684  -42.0784 C.2       6 UNK         0.5000 
     41 O          -1.2543  -17.9974  -41.9051 O.2       6 UNK        -0.5000 
     42 CA         -1.4426  -15.6726  -41.3526 C.3       6 UNK         0.1400 
     43 CB         -0.9867  -15.6276  -39.8864 C.3       6 UNK        -0.1800 
     44 N          -1.1724  -14.3708  -41.9695 N.am      6 UNK        -0.5000 
     45 C          -1.5101  -13.9907  -43.2120 C.2       5 UNK         0.5000 
     46 O          -2.1178  -14.7088  -44.0053 O.2       5 UNK        -0.5000 
     47 CA         -1.0290  -12.5934  -43.6547 C.3       5 UNK         0.1400 
     48 CB         -2.1216  -11.5426  -43.4109 C.3       5 UNK        -0.1800 
     49 N           0.2014  -12.1845  -42.9671 N.am      5 UNK        -0.5000 
     50 C           1.3918  -12.7682  -43.1554 C.2       4 UNK         0.5000 
     51 O           1.6030  -13.6276  -44.0160 O.2       4 UNK        -0.5000 
     52 CA          2.5028  -12.3930  -42.1664 C.3       4 UNK         0.1400 
     53 CB          2.2999  -13.1720  -40.8488 C.3       4 UNK        -0.1800 
     54 N           3.7798  -12.7295  -42.7843 N.am      4 UNK        -0.5000 
     55 C           5.0046  -12.5210  -42.2894 C.2       3 UNK         0.5000 
     56 O           5.2359  -12.0043  -41.1958 O.2       3 UNK        -0.5000 
     57 CA          6.1714  -12.9328  -43.2039 C.3       3 UNK         0.1400 
     58 CB          6.2590  -14.4620  -43.3405 C.3       3 UNK        -0.1800 
     59 N           6.0471  -12.3285  -44.5305 N.am      3 UNK        -0.5000 
     60 C           6.2134  -11.0225  -44.7849 C.2       2 UNK         0.5000 
     61 O           6.5662  -10.1984  -43.9402 O.2       2 UNK        -0.5000 
     62 CA          5.9394  -10.5530  -46.2246 C.3       2 UNK         0.1400 
     63 CB          7.2339  -10.5629  -47.0520 C.3       2 UNK        -0.1800 
     64 N           4.9283  -11.3535  -46.9160 N.am      2 UNK        -0.5000 
     65 C           3.6155  -11.3510  -46.6499 C.2       1 UNK         0.5000 
     66 O           3.1159  -10.6971  -45.7329 O.2       1 UNK        -0.5000 
     67 C          -1.4326  -23.1146  -48.0901 C.2       11 UNK         0.5000 
     68 O          -1.3104  -24.0246  -48.9166 O.2       11 UNK        -0.5000 
     69 N          -2.5875  -22.8173  -47.4754 N.am      12 UNK        -0.5000 
     70 CA         -3.8343  -23.5587  -47.6457 C.3       12 UNK         0.1400 
     71 CB         -4.9836  -22.8431  -46.9225 C.3       12 UNK        -0.1800 
     72 C          -3.7161  -25.0206  -47.1828 C.2       12 UNK         0.5000 
     73 O          -4.0917  -25.9237  -47.9308 O.2       12 UNK        -0.5000 
     74 N          -3.1576  -25.2252  -45.9821 N.am      13 UNK        -0.5000 
     75 CA         -2.9094  -26.5437  -45.3986 C.3       13 UNK         0.1400 
     76 CB         -2.4628  -26.3783  -43.9381 C.3       13 UNK        -0.1800 
     77 C          -1.8816  -27.3775  -46.1865 C.2       13 UNK         0.5000 
     78 O          -2.0414  -28.5952  -46.2802 O.2       13 UNK        -0.5000 
     79 N          -0.8516  -26.7142  -46.7304 N.am      14 UNK        -0.5000 
     80 CA          0.2235  -27.3330  -47.5012 C.3       14 UNK         0.1400 
     81 CB          1.3594  -26.3211  -47.7241 C.3       14 UNK        -0.1800 
     82 C          -0.2527  -27.9247  -48.8380 C.2       14 UNK         0.5000 
     83 O          -0.0227  -29.1103  -49.0832 O.2       14 UNK        -0.5000 
     84 N          -0.8836  -27.0978  -49.6841 N.am      15 UNK        -0.5000 
     85 CA         -1.2421  -27.4759  -51.0552 C.3       15 UNK         0.1400 
     86 CB          0.0250  -27.5184  -51.9403 C.3       15 UNK        -0.1800 
     87 C          -2.3286  -26.5651  -51.6524 C.2       15 UNK         0.5000 
     88 O          -2.2976  -26.2970  -52.8555 O.2       15 UNK        -0.5000 
     89 N          -3.2556  -26.0653  -50.8182 N.am      16 UNK        -0.5000 
     90 CA         -4.3415  -25.1437  -51.1931 C.3       16 UNK         0.1400 
     91 CB         -5.3814  -25.8571  -52.0821 C.3       16 UNK        -0.1800 
     92 C          -3.8239  -23.8357  -51.8331 C.2       16 UNK         0.5000 
     93 O          -4.4749  -23.2826  -52.7211 O.2       16 UNK        -0.5000 
     94 N          -2.6187  -23.4019  -51.4319 N.am      17 UNK        -0.5000 
     95 CA         -1.8237  -22.3032  -51.9987 C.3       17 UNK         0.1400 
     96 CB         -2.5240  -20.9546  -51.7311 C.3       17 UNK        -0.1800 
     97 C          -1.4652  -22.4596  -53.4962 C.2       17 UNK         0.5000 
     98 O          -0.9587  -21.5084  -54.0918 O.2       17 UNK        -0.5000 
     99 N          -1.7742  -23.6251  -54.0894 N.am      18 UNK        -0.5000 
    100 CA        -1.8356  -23.9089  -55.5273 C.3       18 UNK         0.1400 
    101 CB        -0.4195  -23.9320  -56.1381 C.3       18 UNK        -0.1800 
    102 C         -2.8061  -22.9745  -56.2925 C.2       18 UNK         0.5000 
    103 O         -2.6358  -22.7736  -57.4966 O.2       18 UNK        -0.5000 
    104 N         -3.7924  -22.4012  -55.5852 N.am      19 UNK        -0.5000 
    105 CA        -4.6445  -21.3144  -56.0705 C.3       19 UNK         0.1400 
    106 CB        -3.8492  -19.9904  -56.0797 C.3       19 UNK        -0.1800 
    107 C         -5.9439  -21.2073  -55.2516 C.2       19 UNK         0.5000 
    108 O         -6.4289  -20.0984  -55.0225 O.2       19 UNK        -0.5000 
    109 N         -6.4751  -22.3554  -54.8029 N.am      20 UNK        -0.5000 
    110 CA        -7.7145  -22.5128  -54.0266 C.3       20 UNK         0.1400 
    111 CB        -8.9402  -22.2611  -54.9288 C.3       20 UNK        -0.1800 
    112 C         -7.7407  -21.6658  -52.7339 C.2       20 UNK         0.5000 
    113 O         -8.7338  -20.9945  -52.4462 O.2       20 UNK        -0.5000 
    114 N         -6.6145  -21.6766  -52.0064 N.am      21 UNK        -0.5000 
    115 CA        -6.3353  -20.9242  -50.7762 C.3       21 UNK         0.1400 
    116 CB        -7.1927  -21.4592  -49.6111 C.3       21 UNK        -0.1800 
    117 C         -6.4468  -19.3931  -50.9561 C.2       21 UNK         0.5000 
    118 O         -6.8104  -18.6877  -50.0142 O.2       21 UNK        -0.5000 
    119 N         -6.1442  -18.9185  -52.1724 N.am      22 UNK        -0.5000 
    120 CA        -6.3255  -17.5383  -52.6535 C.3       22 UNK         0.1400 
    121 C         -7.8159  -17.1348  -52.8876 C.2       22 UNK         0.5000 
    122 N         -8.7781  -18.0506  -52.8634 N.am      22 UNK        -0.7600 
    123 O         -8.1110  -15.9666  -53.1266 O.2       22 UNK        -0.5000 
    124 C124       -5.5514  -16.4654  -51.8321 C.3       23 UNK        -0.0398 
    125 S125       -3.7502  -16.7582  -51.7193 S.3       23 UNK        -0.2404 
    126 C126       -3.5576  -17.1299  -49.9478 C.3       23 UNK        -0.0205 
    127 H127        5.1211  -11.6638  -51.3618 H         1 UNK         0.0600 
    128 H128        4.1467  -13.0854  -51.7522 H         1 UNK         0.0600 
    129 H129        3.3652  -11.5235  -51.4918 H         1 UNK         0.0600 
    130 H130        2.3943  -11.3714  -49.4976 H         1 UNK         0.3000 
    131 H131        2.9420  -13.2407  -47.3550 H         1 UNK         0.0600 
    132 H132        0.9734  -12.2152  -46.2640 H         1 UNK         0.0800 
    133 H133        0.9382  -10.9357  -47.4472 H         1 UNK         0.0800 
    134 H134       -0.9060  -14.2774  -46.6409 H         1 UNK         0.0800 
    135 H135        0.7888  -14.6746  -46.7915 H         1 UNK         0.0800 
    136 H136       -2.5180  -15.0641  -48.4940 H         1 UNK         0.1150 
    137 H137       -1.4135  -18.7584  -50.3564 H         1 UNK         0.1150 
    138 H138        1.4968  -16.5250  -48.1469 H         1 UNK         0.1150 
    139 H139        0.9853  -19.2812  -50.5793 H         1 UNK         0.0800 
    140 H140        2.1792  -18.3001  -49.7726 H         1 UNK         0.0800 
    141 H141       -0.3584  -21.1173  -49.5452 H         1 UNK         0.0800 
    142 H142       -1.0028  -20.2886  -48.1464 H         1 UNK         0.0800 
    143 H143        0.6793  -22.8421  -47.9886 H         1 UNK         0.0600 
    144 H144       -0.1519  -21.0873  -45.9333 H         1 UNK         0.3000 
    145 H145       -0.2640  -23.4933  -43.2613 H         1 UNK         0.0600 
    146 H146        1.2254  -21.7288  -42.3322 H         1 UNK         0.0600 
    147 H147        2.0753  -22.7202  -43.5074 H         1 UNK         0.0600 
    148 H148        1.5364  -21.1089  -43.9527 H         1 UNK         0.0600 
    149 H149       -0.8990  -20.6874  -43.4678 H         1 UNK         0.3000 
    150 H150       -4.3969  -21.1024  -43.9895 H         1 UNK         0.0600 
    151 H151       -4.1118  -21.4614  -41.5417 H         1 UNK         0.0600 
    152 H152       -4.4840  -19.7795  -41.8882 H         1 UNK         0.0600 
    153 H153       -2.8328  -20.2545  -41.4925 H         1 UNK         0.0600 
    154 H154       -2.6923  -18.8327  -43.5204 H         1 UNK         0.3000 
    155 H155       -1.9352  -18.1795  -46.9469 H         1 UNK         0.0600 
    156 H156       -3.9214  -16.8693  -45.0020 H         1 UNK         0.0600 
    157 H157       -4.2398  -17.2977  -46.6802 H         1 UNK         0.0600 
    158 H158       -3.0916  -16.0232  -46.2972 H         1 UNK         0.0600 
    159 H159       -1.3831  -16.6331  -44.6780 H         1 UNK         0.3000 
    160 H160        1.2465  -18.3903  -43.1814 H         1 UNK         0.0600 
    161 H161        2.7667  -16.5172  -43.8107 H         1 UNK         0.0600 
    162 H162        1.7166  -16.1005  -45.1633 H         1 UNK         0.0600 
    163 H163        2.5701  -17.6367  -45.1522 H         1 UNK         0.0600 
    164 H164        0.5275  -15.6467  -43.0168 H         1 UNK         0.3000 
    165 H165       -2.5227  -15.8305  -41.3739 H         1 UNK         0.0600 
    166 H166       -1.5029  -14.8412  -39.3355 H         1 UNK         0.0600 
    167 H167       -1.2014  -16.5700  -39.3806 H         1 UNK         0.0600 
    168 H168        0.0861  -15.4483  -39.8041 H         1 UNK         0.0600 
    169 H169       -0.6766  -13.7055  -41.3964 H         1 UNK         0.3000 
    170 H170       -0.8306  -12.6361  -44.7270 H         1 UNK         0.0600 
    171 H171       -3.0429  -11.8112  -43.9297 H         1 UNK         0.0600 
    172 H172       -2.3582  -11.4439  -42.3508 H         1 UNK         0.0600 
    173 H173       -1.8159  -10.5636  -43.7803 H         1 UNK         0.0600 
    174 H174        0.1055  -11.4770  -42.2524 H         1 UNK         0.3000 
    175 H175        2.4712  -11.3178  -41.9811 H         1 UNK         0.0600 
    176 H176        2.3680  -14.2494  -41.0061 H         1 UNK         0.0600 
    177 H177        3.0385  -12.8982  -40.0963 H         1 UNK         0.0600 
    178 H178        1.3219  -12.9650  -40.4135 H         1 UNK         0.0600 
    179 H179        3.6775  -13.1550  -43.6969 H         1 UNK         0.3000 
    180 H180        7.0991  -12.5803  -42.7477 H         1 UNK         0.0600 
    181 H181        5.3777  -14.8803  -43.8285 H         1 UNK         0.0600 
    182 H182        6.3476  -14.9354  -42.3618 H         1 UNK         0.0600 
    183 H183        7.1334  -14.7546  -43.9220 H         1 UNK         0.0600 
    184 H184        5.7657  -12.9321  -45.2886 H         1 UNK         0.3000 
    185 H185        5.5773   -9.5241  -46.1712 H         1 UNK         0.0600 
    186 H186        8.0057   -9.9547  -46.5784 H         1 UNK         0.0600 
    187 H187        7.6324  -11.5721  -47.1635 H         1 UNK         0.0600 
    188 H188        7.0672  -10.1560  -48.0495 H         1 UNK         0.0600 
    189 H189        5.2451  -11.9345  -47.6861 H         1 UNK         0.3000 
    190 H190       -2.6265  -22.0122  -46.8562 H         1 UNK         0.3000 
    191 H191       -4.0628  -23.5505  -48.7094 H         1 UNK         0.0600 
    192 H192       -4.8104  -22.7800  -45.8485 H         1 UNK         0.0600 
    193 H193       -5.9275  -23.3683  -47.0731 H         1 UNK         0.0600 
    194 H194       -5.1129  -21.8289  -47.2988 H         1 UNK         0.0600 
    195 H195       -2.9010  -24.4235  -45.4133 H         1 UNK         0.3000 
    196 H196       -3.8531  -27.0929  -45.4046 H         1 UNK         0.0600 
    197 H197       -1.5418  -25.7989  -43.8632 H         1 UNK         0.0600 
    198 H198       -2.2821  -27.3471  -43.4709 H         1 UNK         0.0600 
    199 H199       -3.2258  -25.8701  -43.3481 H         1 UNK         0.0600 
    200 H200       -0.7539  -25.7226  -46.5340 H         1 UNK         0.3000 
    201 H201        0.6267  -28.1540  -46.9047 H         1 UNK         0.0600 
    202 H202        2.1589  -26.7553  -48.3258 H         1 UNK         0.0600 
    203 H203        1.8007  -26.0118  -46.7767 H         1 UNK         0.0600 
    204 H204        1.0105  -25.4252  -48.2380 H         1 UNK         0.0600 
    205 H205       -1.0400  -26.1324  -49.4134 H         1 UNK         0.3000 
    206 H206       -1.6788  -28.4764  -51.0359 H         1 UNK         0.0600 
    207 H207        0.7656  -28.2190  -51.5554 H         1 UNK         0.0600 
    208 H208       -0.2102  -27.8398  -52.9558 H         1 UNK         0.0600 
    209 H209        0.4963  -26.5371  -52.0058 H         1 UNK         0.0600 
    210 H210       -3.2328  -26.3263  -49.8381 H         1 UNK         0.3000 
    211 H211       -4.8582  -24.8632  -50.2778 H         1 UNK         0.0600 
    212 H212       -4.9774  -26.1058  -53.0639 H         1 UNK         0.0600 
    213 H213       -6.2578  -25.2276  -52.2405 H         1 UNK         0.0600 
    214 H214       -5.7279  -26.7805  -51.6183 H         1 UNK         0.0600 
    215 H215       -2.1610  -23.9119  -50.6821 H         1 UNK         0.3000 
    216 H216       -0.8729  -22.3085  -51.4660 H         1 UNK         0.0600 
    217 H217       -3.4661  -20.8701  -52.2726 H         1 UNK         0.0600 
    218 H218       -1.9008  -20.1214  -52.0554 H         1 UNK         0.0600 
    219 H219       -2.7313  -20.8185  -50.6697 H         1 UNK         0.0600 
    220 H220       -2.1344  -24.3711  -53.5029 H         1 UNK         0.3000 
    221 H221       -2.2510  -24.9136  -55.6172 H         1 UNK         0.0600 
    222 H222        0.0338  -22.9405  -56.1483 H         1 UNK         0.0600 
    223 H223        0.2390  -24.5969  -55.5791 H         1 UNK         0.0600 
    224 H224       -0.4424  -24.2911  -57.1676 H         1 UNK         0.0600 
    225 H225       -3.8908  -22.6405  -54.6033 H         1 UNK         0.3000 
    226 H226       -4.9512  -21.5397  -57.0938 H         1 UNK         0.0600 
    227 H227       -2.9612  -20.0603  -56.7078 H         1 UNK         0.0600 
    228 H228       -4.4501  -19.1686  -56.4709 H         1 UNK         0.0600 
    229 H229       -3.5250  -19.7152  -55.0752 H         1 UNK         0.0600 
    230 H230       -5.9806  -23.2122  -55.0079 H         1 UNK         0.3000 
    231 H231       -7.7483  -23.5549  -53.7059 H         1 UNK         0.0600 
    232 H232       -8.9161  -22.8981  -55.8129 H         1 UNK         0.0600 
    233 H233       -8.9888  -21.2244  -55.2639 H         1 UNK         0.0600 
    234 H234       -9.8685  -22.4784  -54.3990 H         1 UNK         0.0600 
    235 H235       -5.8429  -22.2443  -52.3555 H         1 UNK         0.3000 
    236 H236       -5.2921  -21.1203  -50.5268 H         1 UNK         0.0600 
    237 H237       -6.9227  -20.9785  -48.6705 H         1 UNK         0.0600 
    238 H238       -8.2552  -21.2776  -49.7742 H         1 UNK         0.0600 
    239 H239       -7.0513  -22.5318  -49.4788 H         1 UNK         0.0600 
    240 H240       -5.9237  -19.5856  -52.9001 H         1 UNK         0.3000 
    241 H241       -5.8919  -17.5389  -53.6540 H         1 UNK         0.0600 
    242 H242       -8.5772  -19.0296  -52.6872 H         1 UNK         0.3800 
    243 H243       -9.7298  -17.7653  -53.0291 H         1 UNK         0.3800 
    244 H244       -5.6694  -15.4861  -52.2984 H         1 UNK         0.0800 
    245 H245       -5.9823  -16.3623  -50.8362 H         1 UNK         0.0800 
    246 H246       -4.2228  -16.4944  -49.3615 H         1 UNK         0.0800 
    247 H247       -3.8707  -18.1574  -49.7580 H         1 UNK         0.0800 
@<TRIPOS>BOND
     1    1    2 1    
     2    1  127 1    
     3    1  128 1    
     4    1  129 1    
     5    2    3 2    
     6    2    4 am   BACKBONE|DICT|INTERRES
     7    4    5 1    
     8    4  130 1    
     9    5    6 1    
    10    5   65 1    
    11    5  131 1    
    12    6    7 1    
    13    6  132 1    
    14    6  133 1    
    15    7    8 1    
    16    8    9 1    
    17    8  134 1    
    18    8  135 1    
    19    9   10 ar   
    20    9   14 ar   
    21   10   11 ar   
    22   10  136 1    
    23   11   12 ar   
    24   11  126 1    
    25   12   13 ar   
    26   12  137 1    
    27   13   14 ar   
    28   13   15 1    
    29   14  138 1    
    30   15   16 1    
    31   15  139 1    
    32   15  140 1    
    33   16   17 1    
    34   17   18 1    
    35   17  141 1    
    36   17  142 1    
    37   18   19 1    
    38   18   67 1    
    39   18  143 1    
    40   19   20 am   BACKBONE|DICT|INTERRES
    41   19  144 1    
    42   20   21 2    
    43   20   22 1    
    44   22   23 1    
    45   22   24 1    
    46   22  145 1    
    47   23  146 1    
    48   23  147 1    
    49   23  148 1    
    50   24   25 am   BACKBONE|DICT|INTERRES
    51   24  149 1    
    52   25   26 2    
    53   25   27 1    
    54   27   28 1    
    55   27   29 1    
    56   27  150 1    
    57   28  151 1    
    58   28  152 1    
    59   28  153 1    
    60   29   30 am   BACKBONE|DICT|INTERRES
    61   29  154 1    
    62   30   31 2    
    63   30   32 1    
    64   32   33 1    
    65   32   34 1    
    66   32  155 1    
    67   33  156 1    
    68   33  157 1    
    69   33  158 1    
    70   34   35 am   BACKBONE|DICT|INTERRES
    71   34  159 1    
    72   35   36 2    
    73   35   37 1    
    74   37   38 1    
    75   37   39 1    
    76   37  160 1    
    77   38  161 1    
    78   38  162 1    
    79   38  163 1    
    80   39   40 am   BACKBONE|DICT|INTERRES
    81   39  164 1    
    82   40   41 2    
    83   40   42 1    
    84   42   43 1    
    85   42   44 1    
    86   42  165 1    
    87   43  166 1    
    88   43  167 1    
    89   43  168 1    
    90   44   45 am   BACKBONE|DICT|INTERRES
    91   44  169 1    
    92   45   46 2    
    93   45   47 1    
    94   47   48 1    
    95   47   49 1    
    96   47  170 1    
    97   48  171 1    
    98   48  172 1    
    99   48  173 1    
   100   49   50 am   BACKBONE|DICT|INTERRES
   101   49  174 1    
   102   50   51 2    
   103   50   52 1    
   104   52   53 1    
   105   52   54 1    
   106   52  175 1    
   107   53  176 1    
   108   53  177 1    
   109   53  178 1    
   110   54   55 am   BACKBONE|DICT|INTERRES
   111   54  179 1    
   112   55   56 2    
   113   55   57 1    
   114   57   58 1    
   115   57   59 1    
   116   57  180 1    
   117   58  181 1    
   118   58  182 1    
   119   58  183 1    
   120   59   60 am   BACKBONE|DICT|INTERRES
   121   59  184 1    
   122   60   61 2    
   123   60   62 1    
   124   62   63 1    
   125   62   64 1    
   126   62  185 1    
   127   63  186 1    
   128   63  187 1    
   129   63  188 1    
   130   64   65 am   BACKBONE|DICT|INTERRES
   131   64  189 1    
   132   65   66 2    
   133   67   68 2    
   134   67   69 am   BACKBONE|DICT|INTERRES
   135   69   70 1    
   136   69  190 1    
   137   70   71 1    
   138   70   72 1    
   139   70  191 1    
   140   71  192 1    
   141   71  193 1    
   142   71  194 1    
   143   72   73 2    
   144   72   74 am   BACKBONE|DICT|INTERRES
   145   74   75 1    
   146   74  195 1    
   147   75   76 1    
   148   75   77 1    
   149   75  196 1    
   150   76  197 1    
   151   76  198 1    
   152   76  199 1    
   153   77   78 2    
   154   77   79 am   BACKBONE|DICT|INTERRES
   155   79   80 1    
   156   79  200 1    
   157   80   81 1    
   158   80   82 1    
   159   80  201 1    
   160   81  202 1    
   161   81  203 1    
   162   81  204 1    
   163   82   83 2    
   164   82   84 am   BACKBONE|DICT|INTERRES
   165   84   85 1    
   166   84  205 1    
   167   85   86 1    
   168   85   87 1    
   169   85  206 1    
   170   86  207 1    
   171   86  208 1    
   172   86  209 1    
   173   87   88 2    
   174   87   89 am   BACKBONE|DICT|INTERRES
   175   89   90 1    
   176   89  210 1    
   177   90   91 1    
   178   90   92 1    
   179   90  211 1    
   180   91  212 1    
   181   91  213 1    
   182   91  214 1    
   183   92   93 2    
   184   92   94 am   BACKBONE|DICT|INTERRES
   185   94   95 1    
   186   94  215 1    
   187   95   96 1    
   188   95   97 1    
   189   95  216 1    
   190   96  217 1    
   191   96  218 1    
   192   96  219 1    
   193   97   98 2    
   194   97   99 am   BACKBONE|DICT|INTERRES
   195   99  100 1    
   196   99  220 1    
   197  100  101 1    
   198  100  102 1    
   199  100  221 1    
   200  101  222 1    
   201  101  223 1    
   202  101  224 1    
   203  102  103 2    
   204  102  104 am   BACKBONE|DICT|INTERRES
   205  104  105 1    
   206  104  225 1    
   207  105  106 1    
   208  105  107 1    
   209  105  226 1    
   210  106  227 1    
   211  106  228 1    
   212  106  229 1    
   213  107  108 2    
   214  107  109 am   BACKBONE|DICT|INTERRES
   215  109  110 1    
   216  109  230 1    
   217  110  111 1    
   218  110  112 1    
   219  110  231 1    
   220  111  232 1    
   221  111  233 1    
   222  111  234 1    
   223  112  113 2    
   224  112  114 am   BACKBONE|DICT|INTERRES
   225  114  115 1    
   226  114  235 1    
   227  115  116 1    
   228  115  117 1    
   229  115  236 1    
   230  116  237 1    
   231  116  238 1    
   232  116  239 1    
   233  117  118 2    
   234  117  119 am   BACKBONE|DICT|INTERRES
   235  119  120 1    
   236  119  240 1    
   237  120  121 1    
   238  120  124 1    
   239  120  241 1    
   240  121  122 am   BACKBONE|DICT|INTERRES
   241  121  123 2    
   242  122  242 1    
   243  122  243 1    
   244  124  125 1    
   245  124  244 1    
   246  124  245 1    
   247  125  126 1    
   248  126  246 1    
   249  126  247 1    
@<TRIPOS>SUBSTRUCTURE
     1 UNK         1 GROUP             0       ****    0 ROOT    
