@<TRIPOS>MOLECULE
3R540
247   249    1
SMALL
USER_CHARGES


@<TRIPOS>ATOM
      1 CA         -6.2745  -14.2848  -51.6024 C.3       0 UNK        -0.1800 
      2 C          -4.8996  -13.7384  -51.2406 C.2       0 UNK         0.5000 
      3 O          -4.7413  -12.5249  -51.1018 O.2       0 UNK        -0.5000 
      4 N          -3.9077  -14.6264  -51.1030 N.am      1 UNK        -0.5000 
      5 CA         -2.5308  -14.3048  -50.7135 C.3       1 UNK         0.1400 
      6 C6         -1.5320  -15.3896  -51.2072 C.3       23 UNK        -0.0398 
      7 S7          0.1159  -14.6932  -51.5812 S.3       23 UNK        -0.2404 
      8 C8          1.1997  -15.5977  -50.4281 C.3       23 UNK        -0.0205 
      9 C9          1.6101  -16.9451  -50.9954 C.ar      23 UNK        -0.0193 
     10 C10         2.5268  -16.9987  -52.0481 C.ar      23 UNK        -0.1150 
     11 C11         2.8878  -18.2229  -52.6178 C.ar      23 UNK        -0.0193 
     12 C12         2.3659  -19.4037  -52.0823 C.ar      23 UNK        -0.1150 
     13 C13         1.4736  -19.3670  -51.0065 C.ar      23 UNK        -0.0193 
     14 C14         1.0837  -18.1320  -50.4781 C.ar      23 UNK        -0.1150 
     15 C15         0.9279  -20.6647  -50.4308 C.3       23 UNK        -0.0205 
     16 S16         1.5367  -20.9667  -48.7380 S.3       23 UNK        -0.2404 
     17 C17         0.1358  -20.3873  -47.7203 C.3       23 UNK        -0.0398 
     18 CA         -0.4773  -21.5367  -46.8911 C.3       11 UNK         0.1400 
     19 N           0.4691  -22.0382  -45.8952 N.am      11 UNK        -0.5000 
     20 C           0.3979  -23.2492  -45.3312 C.2       10 UNK         0.5000 
     21 O          -0.6236  -23.9363  -45.3258 O.2       10 UNK        -0.5000 
     22 CA          1.6913  -23.7927  -44.6953 C.3       10 UNK         0.1400 
     23 CB          2.9730  -23.2450  -45.3537 C.3       10 UNK        -0.1800 
     24 N           1.6984  -23.4525  -43.2827 N.am      10 UNK        -0.5000 
     25 C           1.1935  -24.2168  -42.3080 C.2       9 UNK         0.5000 
     26 O           0.8797  -25.3987  -42.4513 O.2       9 UNK        -0.5000 
     27 CA          0.9862  -23.5380  -40.9393 C.3       9 UNK         0.1400 
     28 CB          2.0729  -23.9800  -39.9476 C.3       9 UNK        -0.1800 
     29 N           0.9695  -22.0729  -40.9944 N.am      9 UNK        -0.5000 
     30 C           0.0978  -21.3081  -41.6637 C.2       8 UNK         0.5000 
     31 O          -0.8060  -21.7587  -42.3675 O.2       8 UNK        -0.5000 
     32 CA          0.3066  -19.7858  -41.5756 C.3       8 UNK         0.1400 
     33 CB          0.1089  -19.2749  -40.1337 C.3       8 UNK        -0.1800 
     34 N           1.5867  -19.3467  -42.1458 N.am      8 UNK        -0.5000 
     35 C           2.8297  -19.5918  -41.7051 C.2       7 UNK         0.5000 
     36 O           3.0712  -20.2317  -40.6803 O.2       7 UNK        -0.5000 
     37 CA          4.0199  -19.0399  -42.5181 C.3       7 UNK         0.1400 
     38 CB          4.8721  -20.1837  -43.1019 C.3       7 UNK        -0.1800 
     39 N           3.6914  -18.0484  -43.5510 N.am      7 UNK        -0.5000 
     40 C           3.0232  -18.2040  -44.7030 C.2       6 UNK         0.5000 
     41 O           2.5035  -19.2633  -45.0605 O.2       6 UNK        -0.5000 
     42 CA          2.8823  -16.9228  -45.5506 C.3       6 UNK         0.1400 
     43 CB          2.0512  -17.1248  -46.8307 C.3       6 UNK        -0.1800 
     44 N           2.2722  -15.8693  -44.7365 N.am      6 UNK        -0.5000 
     45 C           2.9333  -14.9028  -44.0826 C.2       5 UNK         0.5000 
     46 O           4.1488  -14.7350  -44.1812 O.2       5 UNK        -0.5000 
     47 CA          2.1301  -14.0056  -43.1161 C.3       5 UNK         0.1400 
     48 CB          2.0413  -12.5557  -43.6137 C.3       5 UNK        -0.1800 
     49 N           0.7791  -14.5074  -42.8630 N.am      5 UNK        -0.5000 
     50 C           0.4792  -15.4294  -41.9381 C.2       4 UNK         0.5000 
     51 O           1.2996  -15.8973  -41.1493 O.2       4 UNK        -0.5000 
     52 CA         -0.9738  -15.9439  -41.9179 C.3       4 UNK         0.1400 
     53 CB         -1.8289  -15.1162  -40.9481 C.3       4 UNK        -0.1800 
     54 N          -1.6090  -15.9489  -43.2366 N.am      4 UNK        -0.5000 
     55 C          -1.1828  -16.6526  -44.2937 C.2       3 UNK         0.5000 
     56 O          -0.2127  -17.4081  -44.2574 O.2       3 UNK        -0.5000 
     57 CA         -1.9596  -16.4882  -45.6125 C.3       3 UNK         0.1400 
     58 CB         -3.4629  -16.2149  -45.3975 C.3       3 UNK        -0.1800 
     59 N          -1.3900  -15.4815  -46.5191 N.am      3 UNK        -0.5000 
     60 C          -1.0991  -14.1980  -46.2517 C.2       2 UNK         0.5000 
     61 O          -1.1148  -13.7093  -45.1211 O.2       2 UNK        -0.5000 
     62 CA         -0.7338  -13.2848  -47.4435 C.3       2 UNK         0.1400 
     63 CB          0.7830  -13.0450  -47.4970 C.3       2 UNK        -0.1800 
     64 N          -1.1579  -13.7397  -48.7714 N.am      2 UNK        -0.5000 
     65 C          -2.3995  -14.0068  -49.1972 C.2       1 UNK         0.5000 
     66 O          -3.3861  -14.0232  -48.4584 O.2       1 UNK        -0.5000 
     67 C          -1.8719  -21.1574  -46.3563 C.2       11 UNK         0.5000 
     68 O          -2.8079  -21.1515  -47.1587 O.2       11 UNK        -0.5000 
     69 N          -2.0196  -20.8609  -45.0565 N.am      12 UNK        -0.5000 
     70 CA         -3.3370  -20.6180  -44.4569 C.3       12 UNK         0.1400 
     71 CB         -3.2326  -19.7106  -43.2204 C.3       12 UNK        -0.1800 
     72 C          -4.0203  -21.9463  -44.1013 C.2       12 UNK         0.5000 
     73 O          -5.1877  -22.1374  -44.4397 O.2       12 UNK        -0.5000 
     74 N          -3.2689  -22.8492  -43.4562 N.am      13 UNK        -0.5000 
     75 CA         -3.7302  -24.1679  -43.0192 C.3       13 UNK         0.1400 
     76 CB         -2.6552  -24.8110  -42.1339 C.3       13 UNK        -0.1800 
     77 C          -4.1010  -25.0977  -44.1886 C.2       13 UNK         0.5000 
     78 O          -5.1148  -25.7928  -44.1135 O.2       13 UNK        -0.5000 
     79 N          -3.2960  -25.0693  -45.2596 N.am      14 UNK        -0.5000 
     80 CA         -3.5481  -25.8036  -46.5021 C.3       14 UNK         0.1400 
     81 CB         -2.2206  -25.9601  -47.2620 C.3       14 UNK        -0.1800 
     82 C          -4.5960  -25.1238  -47.4067 C.2       14 UNK         0.5000 
     83 O          -5.0413  -25.7419  -48.3736 O.2       14 UNK        -0.5000 
     84 N          -4.9305  -23.8577  -47.1085 N.am      15 UNK        -0.5000 
     85 CA         -5.7880  -22.9426  -47.8743 C.3       15 UNK         0.1400 
     86 CB         -7.2351  -23.4675  -47.9595 C.3       15 UNK        -0.1800 
     87 C          -5.2139  -22.5655  -49.2574 C.2       15 UNK         0.5000 
     88 O          -5.9364  -22.0326  -50.1005 O.2       15 UNK        -0.5000 
     89 N          -3.9112  -22.8052  -49.4570 N.am      16 UNK        -0.5000 
     90 CA         -3.1653  -22.5069  -50.6768 C.3       16 UNK         0.1400 
     91 CB         -1.7736  -23.1465  -50.5771 C.3       16 UNK        -0.1800 
     92 C          -3.0665  -20.9985  -50.9672 C.2       16 UNK         0.5000 
     93 O          -3.0099  -20.6123  -52.1349 O.2       16 UNK        -0.5000 
     94 N          -3.0839  -20.1690  -49.9121 N.am      17 UNK        -0.5000 
     95 CA         -3.1641  -18.7135  -50.0282 C.3       17 UNK         0.1400 
     96 CB         -2.8897  -18.0494  -48.6714 C.3       17 UNK        -0.1800 
     97 C          -4.5199  -18.2455  -50.5772 C.2       17 UNK         0.5000 
     98 O          -4.5455  -17.3694  -51.4399 O.2       17 UNK        -0.5000 
     99 N          -5.6106  -18.8486  -50.0854 N.am      18 UNK        -0.5000 
    100 CA        -6.9819  -18.5635  -50.5142 C.3       18 UNK         0.1400 
    101 CB        -7.9705  -19.1718  -49.5076 C.3       18 UNK        -0.1800 
    102 C         -7.2629  -19.0729  -51.9389 C.2       18 UNK         0.5000 
    103 O         -7.9573  -18.4011  -52.7018 O.2       18 UNK        -0.5000 
    104 N         -6.6791  -20.2295  -52.2817 N.am      19 UNK        -0.5000 
    105 CA        -6.6896  -20.8128  -53.6247 C.3       19 UNK         0.1400 
    106 CB        -6.2362  -22.2775  -53.5281 C.3       19 UNK        -0.1800 
    107 C         -5.8073  -20.0486  -54.6350 C.2       19 UNK         0.5000 
    108 O         -5.9553  -20.2654  -55.8382 O.2       19 UNK        -0.5000 
    109 N         -4.9096  -19.1873  -54.1307 N.am      20 UNK        -0.5000 
    110 CA        -3.9184  -18.3916  -54.8578 C.3       20 UNK         0.1400 
    111 CB        -4.6020  -17.3288  -55.7418 C.3       20 UNK        -0.1800 
    112 C         -2.9151  -19.2773  -55.6232 C.2       20 UNK         0.5000 
    113 O         -2.6620  -19.0594  -56.8106 O.2       20 UNK        -0.5000 
    114 N         -2.3485  -20.2626  -54.9103 N.am      21 UNK        -0.5000 
    115 CA        -1.4052  -21.2683  -55.4162 C.3       21 UNK         0.1400 
    116 CB        -1.0720  -22.2451  -54.2795 C.3       21 UNK        -0.1800 
    117 C         -0.1068  -20.6970  -56.0242 C.2       21 UNK         0.5000 
    118 O          0.5503  -21.3864  -56.8052 O.2       21 UNK        -0.5000 
    119 N          0.2255  -19.4493  -55.6724 N.am      22 UNK        -0.5000 
    120 CA         1.3015  -18.6508  -56.2767 C.3       22 UNK         0.1400 
    121 C          1.0574  -18.2533  -57.7652 C.2       22 UNK         0.5000 
    122 N         -0.1644  -18.3230  -58.2838 N.am      22 UNK        -0.7600 
    123 O          1.9950  -17.8792  -58.4641 O.2       22 UNK        -0.5000 
    124 C124        1.6117  -17.4042  -55.4030 C.3       23 UNK        -0.0398 
    125 S125        3.3982  -17.1104  -55.1607 S.3       23 UNK        -0.2404 
    126 C126        3.8236  -18.2825  -53.8213 C.3       23 UNK        -0.0205 
    127 H127       -6.9581  -14.1650  -50.7620 H         1 UNK         0.0600 
    128 H128       -6.2371  -15.3423  -51.8638 H         1 UNK         0.0600 
    129 H129       -6.6823  -13.7428  -52.4556 H         1 UNK         0.0600 
    130 H130       -4.1196  -15.6139  -51.2287 H         1 UNK         0.3000 
    131 H131       -2.2817  -13.3720  -51.2246 H         1 UNK         0.0600 
    132 H132       -1.4485  -16.2128  -50.4983 H         1 UNK         0.0800 
    133 H133       -1.8919  -15.8368  -52.1354 H         1 UNK         0.0800 
    134 H134        2.0958  -15.0020  -50.2472 H         1 UNK         0.0800 
    135 H135        0.7140  -15.7176  -49.4597 H         1 UNK         0.0800 
    136 H136        2.9299  -16.0798  -52.4504 H         1 UNK         0.1150 
    137 H137        2.6521  -20.3554  -52.5077 H         1 UNK         0.1150 
    138 H138        0.3844  -18.0972  -49.6562 H         1 UNK         0.1150 
    139 H139        1.2260  -21.5102  -51.0526 H         1 UNK         0.0800 
    140 H140       -0.1600  -20.6429  -50.4633 H         1 UNK         0.0800 
    141 H141       -0.6107  -19.9490  -48.3785 H         1 UNK         0.0800 
    142 H142        0.4785  -19.5866  -47.0651 H         1 UNK         0.0800 
    143 H143       -0.6618  -22.3658  -47.5759 H         1 UNK         0.0600 
    144 H144        1.3318  -21.5159  -45.8168 H         1 UNK         0.3000 
    145 H145        1.6888  -24.8771  -44.8241 H         1 UNK         0.0600 
    146 H146        2.9822  -23.4552  -46.4242 H         1 UNK         0.0600 
    147 H147        3.8598  -23.7127  -44.9258 H         1 UNK         0.0600 
    148 H148        3.0778  -22.1674  -45.2288 H         1 UNK         0.0600 
    149 H149        1.9071  -22.4928  -43.0531 H         1 UNK         0.3000 
    150 H150        0.0170  -23.8658  -40.5590 H         1 UNK         0.0600 
    151 H151        3.0629  -23.6500  -40.2652 H         1 UNK         0.0600 
    152 H152        2.1015  -25.0665  -39.8548 H         1 UNK         0.0600 
    153 H153        1.8872  -23.5749  -38.9527 H         1 UNK         0.0600 
    154 H154        1.7312  -21.5912  -40.5242 H         1 UNK         0.3000 
    155 H155       -0.4603  -19.3222  -42.1961 H         1 UNK         0.0600 
    156 H156        0.7697  -19.7711  -39.4227 H         1 UNK         0.0600 
    157 H157       -0.9145  -19.4503  -39.8000 H         1 UNK         0.0600 
    158 H158        0.2987  -18.2056  -40.0574 H         1 UNK         0.0600 
    159 H159        1.5080  -18.8525  -43.0266 H         1 UNK         0.3000 
    160 H160        4.6431  -18.5082  -41.7976 H         1 UNK         0.0600 
    161 H161        4.3104  -20.7872  -43.8130 H         1 UNK         0.0600 
    162 H162        5.2217  -20.8530  -42.3149 H         1 UNK         0.0600 
    163 H163        5.7540  -19.7975  -43.6127 H         1 UNK         0.0600 
    164 H164        4.0327  -17.1168  -43.3559 H         1 UNK         0.3000 
    165 H165        3.8888  -16.6323  -45.8580 H         1 UNK         0.0600 
    166 H166        2.4490  -17.9414  -47.4348 H         1 UNK         0.0600 
    167 H167        1.0100  -17.3527  -46.6085 H         1 UNK         0.0600 
    168 H168        2.0719  -16.2300  -47.4502 H         1 UNK         0.0600 
    169 H169        1.2927  -16.0119  -44.5224 H         1 UNK         0.3000 
    170 H170        2.6889  -13.9896  -42.1779 H         1 UNK         0.0600 
    171 H171        1.7110  -11.8931  -42.8136 H         1 UNK         0.0600 
    172 H172        1.3321  -12.4535  -44.4313 H         1 UNK         0.0600 
    173 H173        3.0088  -12.1886  -43.9589 H         1 UNK         0.0600 
    174 H174        0.0470  -14.1843  -43.4887 H         1 UNK         0.3000 
    175 H175       -0.9582  -16.9738  -41.5623 H         1 UNK         0.0600 
    176 H176       -1.3948  -15.1164  -39.9473 H         1 UNK         0.0600 
    177 H177       -1.9112  -14.0775  -41.2708 H         1 UNK         0.0600 
    178 H178       -2.8365  -15.5236  -40.8639 H         1 UNK         0.0600 
    179 H179       -2.3848  -15.3157  -43.3667 H         1 UNK         0.3000 
    180 H180       -1.8736  -17.4507  -46.1165 H         1 UNK         0.0600 
    181 H181       -3.6466  -15.2255  -44.9775 H         1 UNK         0.0600 
    182 H182       -3.9079  -16.9511  -44.7267 H         1 UNK         0.0600 
    183 H183       -4.0059  -16.2712  -46.3410 H         1 UNK         0.0600 
    184 H184       -1.3094  -15.7654  -47.4824 H         1 UNK         0.3000 
    185 H185       -1.2241  -12.3254  -47.2677 H         1 UNK         0.0600 
    186 H186        1.1346  -12.5445  -46.5982 H         1 UNK         0.0600 
    187 H187        1.3380  -13.9778  -47.5932 H         1 UNK         0.0600 
    188 H188        1.0552  -12.4052  -48.3367 H         1 UNK         0.0600 
    189 H189       -0.4289  -13.7488  -49.4722 H         1 UNK         0.3000 
    190 H190       -1.2306  -20.9483  -44.4294 H         1 UNK         0.3000 
    191 H191       -3.9663  -20.0955  -45.1813 H         1 UNK         0.0600 
    192 H192       -2.6200  -18.8363  -43.4180 H         1 UNK         0.0600 
    193 H193       -4.2202  -19.3533  -42.9268 H         1 UNK         0.0600 
    194 H194       -2.8147  -20.2240  -42.3562 H         1 UNK         0.0600 
    195 H195       -2.3198  -22.5914  -43.1985 H         1 UNK         0.3000 
    196 H196       -4.6268  -24.0215  -42.4134 H         1 UNK         0.0600 
    197 H197       -2.9886  -25.7756  -41.7494 H         1 UNK         0.0600 
    198 H198       -2.4186  -24.1803  -41.2769 H         1 UNK         0.0600 
    199 H199       -1.7352  -24.9798  -42.6928 H         1 UNK         0.0600 
    200 H200       -2.4405  -24.5191  -45.2212 H         1 UNK         0.3000 
    201 H201       -3.9197  -26.8003  -46.2553 H         1 UNK         0.0600 
    202 H202       -2.3521  -26.5613  -48.1625 H         1 UNK         0.0600 
    203 H203       -1.4702  -26.4573  -46.6470 H         1 UNK         0.0600 
    204 H204       -1.8154  -24.9951  -47.5689 H         1 UNK         0.0600 
    205 H205       -4.5301  -23.4593  -46.2698 H         1 UNK         0.3000 
    206 H206       -5.8108  -22.0137  -47.3028 H         1 UNK         0.0600 
    207 H207       -7.6206  -23.7202  -46.9717 H         1 UNK         0.0600 
    208 H208       -7.9000  -22.7137  -48.3827 H         1 UNK         0.0600 
    209 H209       -7.3099  -24.3551  -48.5879 H         1 UNK         0.0600 
    210 H210       -3.3894  -23.1955  -48.6876 H         1 UNK         0.3000 
    211 H211       -3.6917  -22.9705  -51.5123 H         1 UNK         0.0600 
    212 H212       -1.8457  -24.2262  -50.4447 H         1 UNK         0.0600 
    213 H213       -1.1919  -22.9718  -51.4812 H         1 UNK         0.0600 
    214 H214       -1.2037  -22.7457  -49.7411 H         1 UNK         0.0600 
    215 H215       -3.1257  -20.5658  -48.9773 H         1 UNK         0.3000 
    216 H216       -2.3957  -18.3872  -50.7321 H         1 UNK         0.0600 
    217 H217       -3.4774  -18.5031  -47.8724 H         1 UNK         0.0600 
    218 H218       -3.1407  -16.9883  -48.6935 H         1 UNK         0.0600 
    219 H219       -1.8383  -18.1179  -48.4035 H         1 UNK         0.0600 
    220 H220       -5.4935  -19.5901  -49.4113 H         1 UNK         0.3000 
    221 H221       -7.1207  -17.4801  -50.5142 H         1 UNK         0.0600 
    222 H222       -7.8822  -20.2573  -49.4571 H         1 UNK         0.0600 
    223 H223       -7.8076  -18.7747  -48.5056 H         1 UNK         0.0600 
    224 H224       -8.9995  -18.9403  -49.7853 H         1 UNK         0.0600 
    225 H225       -6.1998  -20.7602  -51.5598 H         1 UNK         0.3000 
    226 H226       -7.7152  -20.7934  -53.9987 H         1 UNK         0.0600 
    227 H227       -6.8489  -22.8376  -52.8212 H         1 UNK         0.0600 
    228 H228       -6.3157  -22.7760  -54.4949 H         1 UNK         0.0600 
    229 H229       -5.1976  -22.3521  -53.2067 H         1 UNK         0.0600 
    230 H230       -4.8641  -19.1092  -53.1241 H         1 UNK         0.3000 
    231 H231       -3.3405  -17.8613  -54.0993 H         1 UNK         0.0600 
    232 H232       -5.1724  -17.7795  -56.5544 H         1 UNK         0.0600 
    233 H233       -3.8641  -16.6633  -56.1911 H         1 UNK         0.0600 
    234 H234       -5.2827  -16.7107  -55.1561 H         1 UNK         0.0600 
    235 H235       -2.6200  -20.3633  -53.9339 H         1 UNK         0.3000 
    236 H236       -1.9144  -21.8220  -56.2072 H         1 UNK         0.0600 
    237 H237       -0.5785  -21.7343  -53.4516 H         1 UNK         0.0600 
    238 H238       -1.9727  -22.7232  -53.8942 H         1 UNK         0.0600 
    239 H239       -0.4053  -23.0372  -54.6226 H         1 UNK         0.0600 
    240 H240       -0.3800  -18.9706  -55.0238 H         1 UNK         0.3000 
    241 H241        2.1807  -19.2977  -56.2832 H         1 UNK         0.0600 
    242 H242       -0.3055  -18.0669  -59.2481 H         1 UNK         0.3800 
    243 H243       -0.9590  -18.6240  -57.7276 H         1 UNK         0.3800 
    244 H244        1.1369  -17.4839  -54.4259 H         1 UNK         0.0800 
    245 H245        1.1779  -16.4984  -55.8311 H         1 UNK         0.0800 
    246 H246        3.8372  -19.2888  -54.2426 H         1 UNK         0.0800 
    247 H247        4.8404  -18.0772  -53.4845 H         1 UNK         0.0800 
@<TRIPOS>BOND
     1    1    2 1    
     2    1  127 1    
     3    1  128 1    
     4    1  129 1    
     5    2    3 2    
     6    2    4 am   BACKBONE|DICT|INTERRES
     7    4    5 1    
     8    4  130 1    
     9    5    6 1    
    10    5   65 1    
    11    5  131 1    
    12    6    7 1    
    13    6  132 1    
    14    6  133 1    
    15    7    8 1    
    16    8    9 1    
    17    8  134 1    
    18    8  135 1    
    19    9   10 ar   
    20    9   14 ar   
    21   10   11 ar   
    22   10  136 1    
    23   11   12 ar   
    24   11  126 1    
    25   12   13 ar   
    26   12  137 1    
    27   13   14 ar   
    28   13   15 1    
    29   14  138 1    
    30   15   16 1    
    31   15  139 1    
    32   15  140 1    
    33   16   17 1    
    34   17   18 1    
    35   17  141 1    
    36   17  142 1    
    37   18   19 1    
    38   18   67 1    
    39   18  143 1    
    40   19   20 am   BACKBONE|DICT|INTERRES
    41   19  144 1    
    42   20   21 2    
    43   20   22 1    
    44   22   23 1    
    45   22   24 1    
    46   22  145 1    
    47   23  146 1    
    48   23  147 1    
    49   23  148 1    
    50   24   25 am   BACKBONE|DICT|INTERRES
    51   24  149 1    
    52   25   26 2    
    53   25   27 1    
    54   27   28 1    
    55   27   29 1    
    56   27  150 1    
    57   28  151 1    
    58   28  152 1    
    59   28  153 1    
    60   29   30 am   BACKBONE|DICT|INTERRES
    61   29  154 1    
    62   30   31 2    
    63   30   32 1    
    64   32   33 1    
    65   32   34 1    
    66   32  155 1    
    67   33  156 1    
    68   33  157 1    
    69   33  158 1    
    70   34   35 am   BACKBONE|DICT|INTERRES
    71   34  159 1    
    72   35   36 2    
    73   35   37 1    
    74   37   38 1    
    75   37   39 1    
    76   37  160 1    
    77   38  161 1    
    78   38  162 1    
    79   38  163 1    
    80   39   40 am   BACKBONE|DICT|INTERRES
    81   39  164 1    
    82   40   41 2    
    83   40   42 1    
    84   42   43 1    
    85   42   44 1    
    86   42  165 1    
    87   43  166 1    
    88   43  167 1    
    89   43  168 1    
    90   44   45 am   BACKBONE|DICT|INTERRES
    91   44  169 1    
    92   45   46 2    
    93   45   47 1    
    94   47   48 1    
    95   47   49 1    
    96   47  170 1    
    97   48  171 1    
    98   48  172 1    
    99   48  173 1    
   100   49   50 am   BACKBONE|DICT|INTERRES
   101   49  174 1    
   102   50   51 2    
   103   50   52 1    
   104   52   53 1    
   105   52   54 1    
   106   52  175 1    
   107   53  176 1    
   108   53  177 1    
   109   53  178 1    
   110   54   55 am   BACKBONE|DICT|INTERRES
   111   54  179 1    
   112   55   56 2    
   113   55   57 1    
   114   57   58 1    
   115   57   59 1    
   116   57  180 1    
   117   58  181 1    
   118   58  182 1    
   119   58  183 1    
   120   59   60 am   BACKBONE|DICT|INTERRES
   121   59  184 1    
   122   60   61 2    
   123   60   62 1    
   124   62   63 1    
   125   62   64 1    
   126   62  185 1    
   127   63  186 1    
   128   63  187 1    
   129   63  188 1    
   130   64   65 am   BACKBONE|DICT|INTERRES
   131   64  189 1    
   132   65   66 2    
   133   67   68 2    
   134   67   69 am   BACKBONE|DICT|INTERRES
   135   69   70 1    
   136   69  190 1    
   137   70   71 1    
   138   70   72 1    
   139   70  191 1    
   140   71  192 1    
   141   71  193 1    
   142   71  194 1    
   143   72   73 2    
   144   72   74 am   BACKBONE|DICT|INTERRES
   145   74   75 1    
   146   74  195 1    
   147   75   76 1    
   148   75   77 1    
   149   75  196 1    
   150   76  197 1    
   151   76  198 1    
   152   76  199 1    
   153   77   78 2    
   154   77   79 am   BACKBONE|DICT|INTERRES
   155   79   80 1    
   156   79  200 1    
   157   80   81 1    
   158   80   82 1    
   159   80  201 1    
   160   81  202 1    
   161   81  203 1    
   162   81  204 1    
   163   82   83 2    
   164   82   84 am   BACKBONE|DICT|INTERRES
   165   84   85 1    
   166   84  205 1    
   167   85   86 1    
   168   85   87 1    
   169   85  206 1    
   170   86  207 1    
   171   86  208 1    
   172   86  209 1    
   173   87   88 2    
   174   87   89 am   BACKBONE|DICT|INTERRES
   175   89   90 1    
   176   89  210 1    
   177   90   91 1    
   178   90   92 1    
   179   90  211 1    
   180   91  212 1    
   181   91  213 1    
   182   91  214 1    
   183   92   93 2    
   184   92   94 am   BACKBONE|DICT|INTERRES
   185   94   95 1    
   186   94  215 1    
   187   95   96 1    
   188   95   97 1    
   189   95  216 1    
   190   96  217 1    
   191   96  218 1    
   192   96  219 1    
   193   97   98 2    
   194   97   99 am   BACKBONE|DICT|INTERRES
   195   99  100 1    
   196   99  220 1    
   197  100  101 1    
   198  100  102 1    
   199  100  221 1    
   200  101  222 1    
   201  101  223 1    
   202  101  224 1    
   203  102  103 2    
   204  102  104 am   BACKBONE|DICT|INTERRES
   205  104  105 1    
   206  104  225 1    
   207  105  106 1    
   208  105  107 1    
   209  105  226 1    
   210  106  227 1    
   211  106  228 1    
   212  106  229 1    
   213  107  108 2    
   214  107  109 am   BACKBONE|DICT|INTERRES
   215  109  110 1    
   216  109  230 1    
   217  110  111 1    
   218  110  112 1    
   219  110  231 1    
   220  111  232 1    
   221  111  233 1    
   222  111  234 1    
   223  112  113 2    
   224  112  114 am   BACKBONE|DICT|INTERRES
   225  114  115 1    
   226  114  235 1    
   227  115  116 1    
   228  115  117 1    
   229  115  236 1    
   230  116  237 1    
   231  116  238 1    
   232  116  239 1    
   233  117  118 2    
   234  117  119 am   BACKBONE|DICT|INTERRES
   235  119  120 1    
   236  119  240 1    
   237  120  121 1    
   238  120  124 1    
   239  120  241 1    
   240  121  122 am   BACKBONE|DICT|INTERRES
   241  121  123 2    
   242  122  242 1    
   243  122  243 1    
   244  124  125 1    
   245  124  244 1    
   246  124  245 1    
   247  125  126 1    
   248  126  246 1    
   249  126  247 1    
@<TRIPOS>SUBSTRUCTURE
     1 UNK         1 GROUP             0       ****    0 ROOT    
