@<TRIPOS>MOLECULE
3R540
247   249    1
SMALL
USER_CHARGES


@<TRIPOS>ATOM
      1 CA          6.0501  -11.7099  -49.2978 C.3       0 UNK        -0.1800 
      2 C           4.7791  -12.5475  -49.3112 C.2       0 UNK         0.5000 
      3 O           4.3107  -12.9264  -50.3843 O.2       0 UNK        -0.5000 
      4 N           4.2289  -12.8357  -48.1237 N.am      1 UNK        -0.5000 
      5 CA          2.9924  -13.5946  -47.8990 C.3       1 UNK         0.1400 
      6 C6          3.1046  -15.0829  -48.3332 C.3       23 UNK        -0.0398 
      7 S7          1.9712  -16.1609  -47.3914 S.3       23 UNK        -0.2404 
      8 C8          0.9433  -16.8547  -48.7194 C.3       23 UNK        -0.0205 
      9 C9         -0.3532  -17.4349  -48.1771 C.ar      23 UNK        -0.0193 
     10 C10        -1.5398  -16.7028  -48.2760 C.ar      23 UNK        -0.1150 
     11 C11        -2.7492  -17.2428  -47.8270 C.ar      23 UNK        -0.0193 
     12 C12        -2.7596  -18.5195  -47.2606 C.ar      23 UNK        -0.1150 
     13 C13        -1.5780  -19.2532  -47.1362 C.ar      23 UNK        -0.0193 
     14 C14        -0.3762  -18.7086  -47.6001 C.ar      23 UNK        -0.1150 
     15 C15        -1.6172  -20.6397  -46.5183 C.3       23 UNK        -0.0205 
     16 S16        -1.6966  -20.5562  -44.7006 S.3       23 UNK        -0.2404 
     17 C17        -1.9629  -22.2764  -44.1182 C.3       23 UNK        -0.0398 
     18 CA         -1.7165  -23.4223  -45.1306 C.3       11 UNK         0.1400 
     19 N          -0.3295  -23.4678  -45.6093 N.am      11 UNK        -0.5000 
     20 C           0.1004  -24.2205  -46.6345 C.2       10 UNK         0.5000 
     21 O          -0.6474  -24.9462  -47.2908 O.2       10 UNK        -0.5000 
     22 CA          1.5979  -24.1771  -46.9938 C.3       10 UNK         0.1400 
     23 CB          1.8118  -23.2540  -48.2027 C.3       10 UNK        -0.1800 
     24 N           2.4652  -23.7307  -45.9037 N.am      10 UNK        -0.5000 
     25 C           2.5926  -24.3131  -44.7022 C.2       9 UNK         0.5000 
     26 O           2.0386  -25.3676  -44.3915 O.2       9 UNK        -0.5000 
     27 CA          3.4230  -23.5454  -43.6509 C.3       9 UNK         0.1400 
     28 CB          4.8591  -24.0875  -43.6011 C.3       9 UNK        -0.1800 
     29 N           3.4634  -22.0919  -43.8707 N.am      9 UNK        -0.5000 
     30 C           2.3879  -21.2928  -43.9171 C.2       8 UNK         0.5000 
     31 O           1.2358  -21.7008  -43.7555 O.2       8 UNK        -0.5000 
     32 CA          2.6371  -19.8188  -44.2659 C.3       8 UNK         0.1400 
     33 CB          3.1996  -19.6770  -45.6947 C.3       8 UNK        -0.1800 
     34 N           1.3826  -19.0785  -44.1599 N.am      8 UNK        -0.5000 
     35 C           1.2821  -17.7587  -43.9849 C.2       7 UNK         0.5000 
     36 O           2.2550  -17.0134  -43.8438 O.2       7 UNK        -0.5000 
     37 CA         -0.1355  -17.1707  -43.9409 C.3       7 UNK         0.1400 
     38 CB         -0.6797  -17.1385  -42.5019 C.3       7 UNK        -0.1800 
     39 N          -0.0830  -15.8281  -44.5028 N.am      7 UNK        -0.5000 
     40 C          -1.1090  -15.1220  -44.9823 C.2       6 UNK         0.5000 
     41 O          -2.2870  -15.4627  -44.8631 O.2       6 UNK        -0.5000 
     42 CA         -0.7461  -13.8118  -45.7158 C.3       6 UNK         0.1400 
     43 CB         -1.9410  -13.2093  -46.4743 C.3       6 UNK        -0.1800 
     44 N          -0.1890  -12.7933  -44.8218 N.am      6 UNK        -0.5000 
     45 C           1.0418  -12.8133  -44.2886 C.2       5 UNK         0.5000 
     46 O           1.8513  -13.7136  -44.5069 O.2       5 UNK        -0.5000 
     47 CA          1.4666  -11.6422  -43.3803 C.3       5 UNK         0.1400 
     48 CB          2.8256  -11.0663  -43.8165 C.3       5 UNK        -0.1800 
     49 N           0.4849  -10.5584  -43.3555 N.am      5 UNK        -0.5000 
     50 C          -0.4793  -10.4155  -42.4358 C.2       4 UNK         0.5000 
     51 O          -0.6461  -11.1968  -41.4988 O.2       4 UNK        -0.5000 
     52 CA         -1.4229   -9.2024  -42.5794 C.3       4 UNK         0.1400 
     53 CB         -1.0443   -8.1062  -41.5714 C.3       4 UNK        -0.1800 
     54 N          -1.4411   -8.6198  -43.9235 N.am      4 UNK        -0.5000 
     55 C          -1.9361   -9.2223  -45.0120 C.2       3 UNK         0.5000 
     56 O          -2.4539  -10.3396  -44.9866 O.2       3 UNK        -0.5000 
     57 CA         -1.8111   -8.4808  -46.3609 C.3       3 UNK         0.1400 
     58 CB         -1.1338   -7.0942  -46.2661 C.3       3 UNK        -0.1800 
     59 N          -1.1396   -9.3064  -47.3704 N.am      3 UNK        -0.5000 
     60 C           0.0812   -9.8518  -47.2781 C.2       2 UNK         0.5000 
     61 O           0.8335   -9.7086  -46.3098 O.2       2 UNK        -0.5000 
     62 CA          0.5359  -10.6889  -48.4816 C.3       2 UNK         0.1400 
     63 CB          1.0388   -9.7881  -49.6217 C.3       2 UNK        -0.1800 
     64 N           1.6135  -11.5827  -48.0712 N.am      2 UNK        -0.5000 
     65 C           1.7627  -12.8503  -48.4718 C.2       1 UNK         0.5000 
     66 O           0.9992  -13.4054  -49.2634 O.2       1 UNK        -0.5000 
     67 C          -2.1806  -24.7783  -44.5544 C.2       11 UNK         0.5000 
     68 O          -3.3667  -25.0943  -44.6505 O.2       11 UNK        -0.5000 
     69 N          -1.2405  -25.5895  -44.0442 N.am      12 UNK        -0.5000 
     70 CA         -1.4794  -26.9703  -43.6118 C.3       12 UNK         0.1400 
     71 CB         -0.2628  -27.4632  -42.8142 C.3       12 UNK        -0.1800 
     72 C          -1.7835  -27.9309  -44.7820 C.2       12 UNK         0.5000 
     73 O          -2.3760  -28.9866  -44.5586 O.2       12 UNK        -0.5000 
     74 N          -1.3971  -27.5391  -46.0034 N.am      13 UNK        -0.5000 
     75 CA         -1.6585  -28.2393  -47.2594 C.3       13 UNK         0.1400 
     76 CB         -0.3340  -28.3596  -48.0358 C.3       13 UNK        -0.1800 
     77 C          -2.7435  -27.5140  -48.0826 C.2       13 UNK         0.5000 
     78 O          -2.7498  -27.6269  -49.3088 O.2       13 UNK        -0.5000 
     79 N          -3.6274  -26.7612  -47.4068 N.am      14 UNK        -0.5000 
     80 CA         -4.7340  -25.9770  -47.9694 C.3       14 UNK         0.1400 
     81 CB         -5.8073  -26.9048  -48.5771 C.3       14 UNK        -0.1800 
     82 C          -4.2476  -24.8939  -48.9538 C.2       14 UNK         0.5000 
     83 O          -4.7660  -24.7833  -50.0654 O.2       14 UNK        -0.5000 
     84 N          -3.2205  -24.1448  -48.5287 N.am      15 UNK        -0.5000 
     85 CA         -2.4939  -23.1242  -49.2927 C.3       15 UNK         0.1400 
     86 CB         -3.4100  -21.9364  -49.6551 C.3       15 UNK        -0.1800 
     87 C          -1.7747  -23.7354  -50.5095 C.2       15 UNK         0.5000 
     88 O          -1.8428  -23.1827  -51.6073 O.2       15 UNK        -0.5000 
     89 N          -1.1338  -24.8925  -50.2800 N.am      16 UNK        -0.5000 
     90 CA         -0.4857  -25.7637  -51.2671 C.3       16 UNK         0.1400 
     91 CB          0.8197  -25.1245  -51.7823 C.3       16 UNK        -0.1800 
     92 C          -1.4516  -26.1812  -52.3968 C.2       16 UNK         0.5000 
     93 O          -1.1435  -26.0068  -53.5767 O.2       16 UNK        -0.5000 
     94 N          -2.6208  -26.6977  -51.9914 N.am      17 UNK        -0.5000 
     95 CA         -3.7711  -27.0630  -52.8230 C.3       17 UNK         0.1400 
     96 CB         -3.4424  -28.2856  -53.7050 C.3       17 UNK        -0.1800 
     97 C          -4.3218  -25.8611  -53.6205 C.2       17 UNK         0.5000 
     98 O          -4.5036  -25.9506  -54.8365 O.2       17 UNK        -0.5000 
     99 N          -4.5700  -24.7567  -52.9018 N.am      18 UNK        -0.5000 
    100 CA        -5.0786  -23.4703  -53.3847 C.3       18 UNK         0.1400 
    101 CB        -6.5506  -23.6010  -53.8276 C.3       18 UNK        -0.1800 
    102 C         -4.1778  -22.8147  -54.4528 C.2       18 UNK         0.5000 
    103 O         -4.6781  -22.3043  -55.4576 O.2       18 UNK        -0.5000 
    104 N         -2.8590  -22.8246  -54.2115 N.am      19 UNK        -0.5000 
    105 CA        -1.8702  -22.1006  -55.0128 C.3       19 UNK         0.1400 
    106 CB        -0.4573  -22.5963  -54.6729 C.3       19 UNK        -0.1800 
    107 C         -1.9825  -20.5814  -54.7926 C.2       19 UNK         0.5000 
    108 O         -1.8597  -19.8159  -55.7497 O.2       19 UNK        -0.5000 
    109 N         -2.2679  -20.1840  -53.5453 N.am      20 UNK        -0.5000 
    110 CA        -2.7556  -18.8541  -53.1994 C.3       20 UNK         0.1400 
    111 CB        -2.2027  -18.4377  -51.8263 C.3       20 UNK        -0.1800 
    112 C         -4.2898  -18.9197  -53.1804 C.2       20 UNK         0.5000 
    113 O         -4.8499  -19.8123  -52.5373 O.2       20 UNK        -0.5000 
    114 N         -4.9443  -17.9788  -53.8736 N.am      21 UNK        -0.5000 
    115 CA        -6.4036  -17.9167  -54.0327 C.3       21 UNK         0.1400 
    116 CB        -6.7497  -16.8064  -55.0367 C.3       21 UNK        -0.1800 
    117 C         -7.1739  -17.7106  -52.7127 C.2       21 UNK         0.5000 
    118 O         -8.3384  -18.0999  -52.6180 O.2       21 UNK        -0.5000 
    119 N         -6.5002  -17.1217  -51.7195 N.am      22 UNK        -0.5000 
    120 CA        -6.9575  -16.9916  -50.3304 C.3       22 UNK         0.1400 
    121 C         -6.9100  -18.3118  -49.5006 C.2       22 UNK         0.5000 
    122 N         -6.3298  -19.4019  -49.9920 N.am      22 UNK        -0.7600 
    123 O         -7.4256  -18.3495  -48.3869 O.2       22 UNK        -0.5000 
    124 C124       -6.2278  -15.8243  -49.6147 C.3       23 UNK        -0.0398 
    125 S125       -4.4063  -15.9780  -49.6587 S.3       23 UNK        -0.2404 
    126 C126       -4.0464  -16.4549  -47.9392 C.3       23 UNK        -0.0205 
    127 H127        6.8661  -12.2586  -49.7683 H         1 UNK         0.0600 
    128 H128        6.3554  -11.4503  -48.2839 H         1 UNK         0.0600 
    129 H129        5.8951  -10.7849  -49.8532 H         1 UNK         0.0600 
    130 H130        4.6779  -12.4909  -47.2866 H         1 UNK         0.3000 
    131 H131        2.8689  -13.5834  -46.8176 H         1 UNK         0.0600 
    132 H132        4.1129  -15.4480  -48.1345 H         1 UNK         0.0800 
    133 H133        2.9579  -15.1988  -49.4083 H         1 UNK         0.0800 
    134 H134        1.5059  -17.6276  -49.2448 H         1 UNK         0.0800 
    135 H135        0.7206  -16.0819  -49.4565 H         1 UNK         0.0800 
    136 H136       -1.5266  -15.7167  -48.7186 H         1 UNK         0.1150 
    137 H137       -3.6884  -18.9446  -46.9069 H         1 UNK         0.1150 
    138 H138        0.5409  -19.2736  -47.5174 H         1 UNK         0.1150 
    139 H139       -2.4936  -21.1663  -46.8933 H         1 UNK         0.0800 
    140 H140       -0.7388  -21.2014  -46.8328 H         1 UNK         0.0800 
    141 H141       -2.9934  -22.3179  -43.7605 H         1 UNK         0.0800 
    142 H142       -1.3410  -22.4229  -43.2335 H         1 UNK         0.0800 
    143 H143       -2.3561  -23.2438  -45.9943 H         1 UNK         0.0600 
    144 H144        0.3333  -22.8972  -45.0930 H         1 UNK         0.3000 
    145 H145        1.8958  -25.1906  -47.2693 H         1 UNK         0.0600 
    146 H146        1.5796  -22.2155  -47.9627 H         1 UNK         0.0600 
    147 H147        2.8430  -23.2956  -48.5537 H         1 UNK         0.0600 
    148 H148        1.1747  -23.5443  -49.0382 H         1 UNK         0.0600 
    149 H149        2.9671  -22.8695  -46.0582 H         1 UNK         0.3000 
    150 H150        2.9559  -23.7200  -42.6795 H         1 UNK         0.0600 
    151 H151        4.8648  -25.1623  -43.4144 H         1 UNK         0.0600 
    152 H152        5.4312  -23.6177  -42.8008 H         1 UNK         0.0600 
    153 H153        5.3875  -23.9144  -44.5395 H         1 UNK         0.0600 
    154 H154        4.3779  -21.6885  -44.0157 H         1 UNK         0.3000 
    155 H155        3.3545  -19.4216  -43.5450 H         1 UNK         0.0600 
    156 H156        4.1619  -20.1792  -45.7968 H         1 UNK         0.0600 
    157 H157        3.3590  -18.6311  -45.9572 H         1 UNK         0.0600 
    158 H158        2.5242  -20.1057  -46.4355 H         1 UNK         0.0600 
    159 H159        0.5507  -19.6580  -44.1976 H         1 UNK         0.3000 
    160 H160       -0.7890  -17.7779  -44.5689 H         1 UNK         0.0600 
    161 H161       -1.6994  -16.7550  -42.4697 H         1 UNK         0.0600 
    162 H162       -0.0643  -16.5117  -41.8555 H         1 UNK         0.0600 
    163 H163       -0.6983  -18.1405  -42.0715 H         1 UNK         0.0600 
    164 H164        0.8579  -15.4518  -44.6032 H         1 UNK         0.3000 
    165 H165        0.0103  -14.0645  -46.4595 H         1 UNK         0.0600 
    166 H166       -2.7625  -12.9596  -45.8020 H         1 UNK         0.0600 
    167 H167       -1.6579  -12.3023  -47.0053 H         1 UNK         0.0600 
    168 H168       -2.3221  -13.9078  -47.2181 H         1 UNK         0.0600 
    169 H169       -0.8013  -12.0226  -44.5887 H         1 UNK         0.3000 
    170 H170        1.5901  -12.0508  -42.3754 H         1 UNK         0.0600 
    171 H171        2.7997  -10.6964  -44.8412 H         1 UNK         0.0600 
    172 H172        3.1297  -10.2425  -43.1707 H         1 UNK         0.0600 
    173 H173        3.6091  -11.8231  -43.7622 H         1 UNK         0.0600 
    174 H174        0.5280   -9.9069  -44.1308 H         1 UNK         0.3000 
    175 H175       -2.4326   -9.5468  -42.3461 H         1 UNK         0.0600 
    176 H176       -0.0466   -7.7098  -41.7645 H         1 UNK         0.0600 
    177 H177       -1.7495   -7.2757  -41.6073 H         1 UNK         0.0600 
    178 H178       -1.0520   -8.4926  -40.5513 H         1 UNK         0.0600 
    179 H179       -1.0146   -7.7105  -44.0277 H         1 UNK         0.3000 
    180 H180       -2.8313   -8.3259  -46.7147 H         1 UNK         0.0600 
    181 H181       -0.1059   -7.1595  -45.9074 H         1 UNK         0.0600 
    182 H182       -1.6822   -6.4301  -45.5969 H         1 UNK         0.0600 
    183 H183       -1.1086   -6.6089  -47.2418 H         1 UNK         0.0600 
    184 H184       -1.6891   -9.5021  -48.1953 H         1 UNK         0.3000 
    185 H185       -0.3213  -11.2681  -48.8314 H         1 UNK         0.0600 
    186 H186        1.3528  -10.3810  -50.4812 H         1 UNK         0.0600 
    187 H187        0.2561   -9.1100  -49.9637 H         1 UNK         0.0600 
    188 H188        1.8879   -9.1799  -49.3074 H         1 UNK         0.0600 
    189 H189        2.2419  -11.1938  -47.3810 H         1 UNK         0.3000 
    190 H190       -0.2776  -25.2767  -44.0327 H         1 UNK         0.3000 
    191 H191       -2.3470  -26.9742  -42.9487 H         1 UNK         0.0600 
    192 H192        0.6337  -27.5054  -43.4338 H         1 UNK         0.0600 
    193 H193       -0.0547  -26.8112  -41.9658 H         1 UNK         0.0600 
    194 H194       -0.4349  -28.4654  -42.4194 H         1 UNK         0.0600 
    195 H195       -0.9525  -26.6348  -46.1038 H         1 UNK         0.3000 
    196 H196       -2.0294  -29.2471  -47.0645 H         1 UNK         0.0600 
    197 H197        0.4206  -28.8786  -47.4448 H         1 UNK         0.0600 
    198 H198        0.0673  -27.3819  -48.3035 H         1 UNK         0.0600 
    199 H199       -0.4659  -28.9266  -48.9581 H         1 UNK         0.0600 
    200 H200       -3.5234  -26.7029  -46.4024 H         1 UNK         0.3000 
    201 H201       -5.1924  -25.4464  -47.1336 H         1 UNK         0.0600 
    202 H202       -6.6816  -26.3344  -48.8927 H         1 UNK         0.0600 
    203 H203       -6.1471  -27.6427  -47.8506 H         1 UNK         0.0600 
    204 H204       -5.4361  -27.4409  -49.4511 H         1 UNK         0.0600 
    205 H205       -2.7967  -24.4038  -47.6489 H         1 UNK         0.3000 
    206 H206       -1.7082  -22.7438  -48.6406 H         1 UNK         0.0600 
    207 H207       -4.1667  -22.2092  -50.3899 H         1 UNK         0.0600 
    208 H208       -2.8270  -21.1196  -50.0779 H         1 UNK         0.0600 
    209 H209       -3.9253  -21.5462  -48.7781 H         1 UNK         0.0600 
    210 H210       -1.1413  -25.2398  -49.3281 H         1 UNK         0.3000 
    211 H211       -0.2167  -26.6821  -50.7437 H         1 UNK         0.0600 
    212 H212        1.5156  -24.9379  -50.9653 H         1 UNK         0.0600 
    213 H213        1.3250  -25.7824  -52.4901 H         1 UNK         0.0600 
    214 H214        0.6358  -24.1780  -52.2892 H         1 UNK         0.0600 
    215 H215       -2.7483  -26.8442  -50.9917 H         1 UNK         0.3000 
    216 H216       -4.5619  -27.3599  -52.1324 H         1 UNK         0.0600 
    217 H217       -4.3283  -28.6283  -54.2407 H         1 UNK         0.0600 
    218 H218       -2.6788  -28.0578  -54.4492 H         1 UNK         0.0600 
    219 H219       -3.0849  -29.1204  -53.1022 H         1 UNK         0.0600 
    220 H220       -4.4229  -24.8020  -51.8953 H         1 UNK         0.3000 
    221 H221       -5.0589  -22.7974  -52.5268 H         1 UNK         0.0600 
    222 H222       -6.6537  -24.2294  -54.7126 H         1 UNK         0.0600 
    223 H223       -7.1624  -24.0323  -53.0354 H         1 UNK         0.0600 
    224 H224       -6.9735  -22.6245  -54.0668 H         1 UNK         0.0600 
    225 H225       -2.5225  -23.2257  -53.3386 H         1 UNK         0.3000 
    226 H226       -2.0608  -22.3087  -56.0676 H         1 UNK         0.0600 
    227 H227       -0.3679  -23.6717  -54.8261 H         1 UNK         0.0600 
    228 H228        0.2870  -22.1136  -55.3072 H         1 UNK         0.0600 
    229 H229       -0.1938  -22.3803  -53.6374 H         1 UNK         0.0600 
    230 H230       -2.3945  -20.8981  -52.8407 H         1 UNK         0.3000 
    231 H231       -2.4236  -18.1222  -53.9388 H         1 UNK         0.0600 
    232 H232       -2.4689  -17.4050  -51.6002 H         1 UNK         0.0600 
    233 H233       -1.1150  -18.5042  -51.7989 H         1 UNK         0.0600 
    234 H234       -2.5959  -19.0546  -51.0189 H         1 UNK         0.0600 
    235 H235       -4.4125  -17.2790  -54.3710 H         1 UNK         0.3000 
    236 H236       -6.7307  -18.8708  -54.4515 H         1 UNK         0.0600 
    237 H237       -6.2844  -16.9902  -56.0053 H         1 UNK         0.0600 
    238 H238       -7.8266  -16.7498  -55.2014 H         1 UNK         0.0600 
    239 H239       -6.4197  -15.8285  -54.6840 H         1 UNK         0.0600 
    240 H240       -5.5444  -16.8442  -51.8873 H         1 UNK         0.3000 
    241 H241       -8.0144  -16.7212  -50.3686 H         1 UNK         0.0600 
    242 H242       -6.3234  -20.2414  -49.4375 H         1 UNK         0.3800 
    243 H243       -5.8909  -19.4065  -50.9068 H         1 UNK         0.3800 
    244 H244       -6.4873  -14.8863  -50.1070 H         1 UNK         0.0800 
    245 H245       -6.5762  -15.7142  -48.5863 H         1 UNK         0.0800 
    246 H246       -4.8747  -17.0476  -47.5484 H         1 UNK         0.0800 
    247 H247       -3.9882  -15.5629  -47.3154 H         1 UNK         0.0800 
@<TRIPOS>BOND
     1    1    2 1    
     2    1  127 1    
     3    1  128 1    
     4    1  129 1    
     5    2    3 2    
     6    2    4 am   BACKBONE|DICT|INTERRES
     7    4    5 1    
     8    4  130 1    
     9    5    6 1    
    10    5   65 1    
    11    5  131 1    
    12    6    7 1    
    13    6  132 1    
    14    6  133 1    
    15    7    8 1    
    16    8    9 1    
    17    8  134 1    
    18    8  135 1    
    19    9   10 ar   
    20    9   14 ar   
    21   10   11 ar   
    22   10  136 1    
    23   11   12 ar   
    24   11  126 1    
    25   12   13 ar   
    26   12  137 1    
    27   13   14 ar   
    28   13   15 1    
    29   14  138 1    
    30   15   16 1    
    31   15  139 1    
    32   15  140 1    
    33   16   17 1    
    34   17   18 1    
    35   17  141 1    
    36   17  142 1    
    37   18   19 1    
    38   18   67 1    
    39   18  143 1    
    40   19   20 am   BACKBONE|DICT|INTERRES
    41   19  144 1    
    42   20   21 2    
    43   20   22 1    
    44   22   23 1    
    45   22   24 1    
    46   22  145 1    
    47   23  146 1    
    48   23  147 1    
    49   23  148 1    
    50   24   25 am   BACKBONE|DICT|INTERRES
    51   24  149 1    
    52   25   26 2    
    53   25   27 1    
    54   27   28 1    
    55   27   29 1    
    56   27  150 1    
    57   28  151 1    
    58   28  152 1    
    59   28  153 1    
    60   29   30 am   BACKBONE|DICT|INTERRES
    61   29  154 1    
    62   30   31 2    
    63   30   32 1    
    64   32   33 1    
    65   32   34 1    
    66   32  155 1    
    67   33  156 1    
    68   33  157 1    
    69   33  158 1    
    70   34   35 am   BACKBONE|DICT|INTERRES
    71   34  159 1    
    72   35   36 2    
    73   35   37 1    
    74   37   38 1    
    75   37   39 1    
    76   37  160 1    
    77   38  161 1    
    78   38  162 1    
    79   38  163 1    
    80   39   40 am   BACKBONE|DICT|INTERRES
    81   39  164 1    
    82   40   41 2    
    83   40   42 1    
    84   42   43 1    
    85   42   44 1    
    86   42  165 1    
    87   43  166 1    
    88   43  167 1    
    89   43  168 1    
    90   44   45 am   BACKBONE|DICT|INTERRES
    91   44  169 1    
    92   45   46 2    
    93   45   47 1    
    94   47   48 1    
    95   47   49 1    
    96   47  170 1    
    97   48  171 1    
    98   48  172 1    
    99   48  173 1    
   100   49   50 am   BACKBONE|DICT|INTERRES
   101   49  174 1    
   102   50   51 2    
   103   50   52 1    
   104   52   53 1    
   105   52   54 1    
   106   52  175 1    
   107   53  176 1    
   108   53  177 1    
   109   53  178 1    
   110   54   55 am   BACKBONE|DICT|INTERRES
   111   54  179 1    
   112   55   56 2    
   113   55   57 1    
   114   57   58 1    
   115   57   59 1    
   116   57  180 1    
   117   58  181 1    
   118   58  182 1    
   119   58  183 1    
   120   59   60 am   BACKBONE|DICT|INTERRES
   121   59  184 1    
   122   60   61 2    
   123   60   62 1    
   124   62   63 1    
   125   62   64 1    
   126   62  185 1    
   127   63  186 1    
   128   63  187 1    
   129   63  188 1    
   130   64   65 am   BACKBONE|DICT|INTERRES
   131   64  189 1    
   132   65   66 2    
   133   67   68 2    
   134   67   69 am   BACKBONE|DICT|INTERRES
   135   69   70 1    
   136   69  190 1    
   137   70   71 1    
   138   70   72 1    
   139   70  191 1    
   140   71  192 1    
   141   71  193 1    
   142   71  194 1    
   143   72   73 2    
   144   72   74 am   BACKBONE|DICT|INTERRES
   145   74   75 1    
   146   74  195 1    
   147   75   76 1    
   148   75   77 1    
   149   75  196 1    
   150   76  197 1    
   151   76  198 1    
   152   76  199 1    
   153   77   78 2    
   154   77   79 am   BACKBONE|DICT|INTERRES
   155   79   80 1    
   156   79  200 1    
   157   80   81 1    
   158   80   82 1    
   159   80  201 1    
   160   81  202 1    
   161   81  203 1    
   162   81  204 1    
   163   82   83 2    
   164   82   84 am   BACKBONE|DICT|INTERRES
   165   84   85 1    
   166   84  205 1    
   167   85   86 1    
   168   85   87 1    
   169   85  206 1    
   170   86  207 1    
   171   86  208 1    
   172   86  209 1    
   173   87   88 2    
   174   87   89 am   BACKBONE|DICT|INTERRES
   175   89   90 1    
   176   89  210 1    
   177   90   91 1    
   178   90   92 1    
   179   90  211 1    
   180   91  212 1    
   181   91  213 1    
   182   91  214 1    
   183   92   93 2    
   184   92   94 am   BACKBONE|DICT|INTERRES
   185   94   95 1    
   186   94  215 1    
   187   95   96 1    
   188   95   97 1    
   189   95  216 1    
   190   96  217 1    
   191   96  218 1    
   192   96  219 1    
   193   97   98 2    
   194   97   99 am   BACKBONE|DICT|INTERRES
   195   99  100 1    
   196   99  220 1    
   197  100  101 1    
   198  100  102 1    
   199  100  221 1    
   200  101  222 1    
   201  101  223 1    
   202  101  224 1    
   203  102  103 2    
   204  102  104 am   BACKBONE|DICT|INTERRES
   205  104  105 1    
   206  104  225 1    
   207  105  106 1    
   208  105  107 1    
   209  105  226 1    
   210  106  227 1    
   211  106  228 1    
   212  106  229 1    
   213  107  108 2    
   214  107  109 am   BACKBONE|DICT|INTERRES
   215  109  110 1    
   216  109  230 1    
   217  110  111 1    
   218  110  112 1    
   219  110  231 1    
   220  111  232 1    
   221  111  233 1    
   222  111  234 1    
   223  112  113 2    
   224  112  114 am   BACKBONE|DICT|INTERRES
   225  114  115 1    
   226  114  235 1    
   227  115  116 1    
   228  115  117 1    
   229  115  236 1    
   230  116  237 1    
   231  116  238 1    
   232  116  239 1    
   233  117  118 2    
   234  117  119 am   BACKBONE|DICT|INTERRES
   235  119  120 1    
   236  119  240 1    
   237  120  121 1    
   238  120  124 1    
   239  120  241 1    
   240  121  122 am   BACKBONE|DICT|INTERRES
   241  121  123 2    
   242  122  242 1    
   243  122  243 1    
   244  124  125 1    
   245  124  244 1    
   246  124  245 1    
   247  125  126 1    
   248  126  246 1    
   249  126  247 1    
@<TRIPOS>SUBSTRUCTURE
     1 UNK         1 GROUP             0       ****    0 ROOT    
