@<TRIPOS>MOLECULE
3R540
247   249    1
SMALL
USER_CHARGES


@<TRIPOS>ATOM
      1 CA          9.5932  -14.4029  -47.5839 C.3       0 UNK        -0.1800 
      2 C           8.2289  -14.5334  -46.9218 C.2       0 UNK         0.5000 
      3 O           8.0616  -15.3564  -46.0219 O.2       0 UNK        -0.5000 
      4 N           7.2559  -13.7261  -47.3643 N.am      1 UNK        -0.5000 
      5 CA          5.8809  -13.7052  -46.8486 C.3       1 UNK         0.1400 
      6 C6          4.9209  -12.9614  -47.8088 C.3       23 UNK        -0.0398 
      7 S7          4.5917  -13.9189  -49.3260 S.3       23 UNK        -0.2404 
      8 C8          2.9071  -14.5240  -48.9860 C.3       23 UNK        -0.0205 
      9 C9          2.4228  -15.4653  -50.0757 C.ar      23 UNK        -0.0193 
     10 C10         1.6998  -14.9673  -51.1615 C.ar      23 UNK        -0.1150 
     11 C11         1.2672  -15.8212  -52.1796 C.ar      23 UNK        -0.0193 
     12 C12         1.5567  -17.1883  -52.0981 C.ar      23 UNK        -0.1150 
     13 C13         2.2697  -17.7037  -51.0109 C.ar      23 UNK        -0.0193 
     14 C14         2.7031  -16.8328  -50.0044 C.ar      23 UNK        -0.1150 
     15 C15         2.6321  -19.1849  -50.9686 C.3       23 UNK        -0.0205 
     16 S16         2.2531  -19.9835  -49.3740 S.3       23 UNK        -0.2404 
     17 C17         0.4717  -20.3522  -49.5211 C.3       23 UNK        -0.0398 
     18 CA          0.0858  -21.5626  -48.6355 C.3       11 UNK         0.1400 
     19 N           0.1768  -21.2681  -47.2015 N.am      11 UNK        -0.5000 
     20 C           0.1015  -22.1857  -46.2279 C.2       10 UNK         0.5000 
     21 O          -0.0022  -23.3932  -46.4386 O.2       10 UNK        -0.5000 
     22 CA          0.0857  -21.6729  -44.7759 C.3       10 UNK         0.1400 
     23 CB          1.5068  -21.3730  -44.2766 C.3       10 UNK        -0.1800 
     24 N          -0.7668  -20.4954  -44.6056 N.am      10 UNK        -0.5000 
     25 C          -2.0965  -20.4983  -44.7786 C.2       9 UNK         0.5000 
     26 O          -2.7458  -21.5100  -45.0417 O.2       9 UNK        -0.5000 
     27 CA         -2.8204  -19.1419  -44.6915 C.3       9 UNK         0.1400 
     28 CB         -3.0909  -18.7567  -43.2299 C.3       9 UNK        -0.1800 
     29 N          -2.0900  -18.0673  -45.3656 N.am      9 UNK        -0.5000 
     30 C          -1.8334  -18.0422  -46.6826 C.2       8 UNK         0.5000 
     31 O          -2.2412  -18.8932  -47.4711 O.2       8 UNK        -0.5000 
     32 CA         -0.9197  -16.9151  -47.1966 C.3       8 UNK         0.1400 
     33 CB         -1.7153  -15.6199  -47.4066 C.3       8 UNK        -0.1800 
     34 N           0.2106  -16.6599  -46.3030 N.am      8 UNK        -0.5000 
     35 C           1.1613  -17.5581  -46.0122 C.2       7 UNK         0.5000 
     36 O           1.2057  -18.6824  -46.5048 O.2       7 UNK        -0.5000 
     37 CA          2.1953  -17.1677  -44.9439 C.3       7 UNK         0.1400 
     38 CB          3.2875  -16.2575  -45.5171 C.3       7 UNK        -0.1800 
     39 N           1.5771  -16.5245  -43.7869 N.am      7 UNK        -0.5000 
     40 C           0.7935  -17.1577  -42.9043 C.2       6 UNK         0.5000 
     41 O           0.5233  -18.3569  -42.9657 O.2       6 UNK        -0.5000 
     42 CA          0.1888  -16.2960  -41.7819 C.3       6 UNK         0.1400 
     43 CB          1.1918  -16.1229  -40.6313 C.3       6 UNK        -0.1800 
     44 N          -0.2370  -14.9777  -42.2533 N.am      6 UNK        -0.5000 
     45 C          -1.2532  -14.7693  -43.1018 C.2       5 UNK         0.5000 
     46 O          -1.9451  -15.6680  -43.5800 O.2       5 UNK        -0.5000 
     47 CA         -1.4996  -13.3095  -43.5216 C.3       5 UNK         0.1400 
     48 CB         -2.2307  -12.5358  -42.4142 C.3       5 UNK        -0.1800 
     49 N          -0.2668  -12.6033  -43.8773 N.am      5 UNK        -0.5000 
     50 C           0.5454  -12.9477  -44.8832 C.2       4 UNK         0.5000 
     51 O           0.3734  -13.9380  -45.5908 O.2       4 UNK        -0.5000 
     52 CA          1.7762  -12.0694  -45.1353 C.3       4 UNK         0.1400 
     53 CB          1.4088  -10.7372  -45.8139 C.3       4 UNK        -0.1800 
     54 N           2.6279  -11.8786  -43.9605 N.am      4 UNK        -0.5000 
     55 C           2.4029  -11.1590  -42.8529 C.2       3 UNK         0.5000 
     56 O           1.3471  -10.5665  -42.6250 O.2       3 UNK        -0.5000 
     57 CA          3.5403  -11.1046  -41.8100 C.3       3 UNK         0.1400 
     58 CB          3.1704  -11.9480  -40.5793 C.3       3 UNK        -0.1800 
     59 N           4.8375  -11.5642  -42.3180 N.am      3 UNK        -0.5000 
     60 C           5.5976  -10.9289  -43.2223 C.2       2 UNK         0.5000 
     61 O           5.3148   -9.8306  -43.7026 O.2       2 UNK        -0.5000 
     62 CA          6.8780  -11.6530  -43.6964 C.3       2 UNK         0.1400 
     63 CB          7.4008  -12.7062  -42.6939 C.3       2 UNK        -0.1800 
     64 N           6.7260  -12.2591  -45.0260 N.am      2 UNK        -0.5000 
     65 C           5.7836  -13.1330  -45.4165 C.2       1 UNK         0.5000 
     66 O           4.8599  -13.5068  -44.6935 O.2       1 UNK        -0.5000 
     67 C          -1.2941  -22.1401  -49.0122 C.2       11 UNK         0.5000 
     68 O          -1.3488  -23.1386  -49.7299 O.2       11 UNK        -0.5000 
     69 N          -2.3791  -21.5585  -48.4811 N.am      12 UNK        -0.5000 
     70 CA         -3.7457  -22.0589  -48.6404 C.3       12 UNK         0.1400 
     71 CB         -4.7394  -21.0526  -48.0430 C.3       12 UNK        -0.1800 
     72 C          -3.9518  -23.4592  -48.0328 C.2       12 UNK         0.5000 
     73 O          -4.6114  -24.2947  -48.6527 O.2       12 UNK        -0.5000 
     74 N          -3.3590  -23.7034  -46.8558 N.am      13 UNK        -0.5000 
     75 CA         -3.3490  -25.0045  -46.1874 C.3       13 UNK         0.1400 
     76 CB         -2.8130  -24.8545  -44.7561 C.3       13 UNK        -0.1800 
     77 C          -2.5494  -26.0618  -46.9698 C.2       13 UNK         0.5000 
     78 O          -3.0264  -27.1865  -47.1180 O.2       13 UNK        -0.5000 
     79 N          -1.3792  -25.6776  -47.5006 N.am      14 UNK        -0.5000 
     80 CA         -0.5356  -26.5139  -48.3610 C.3       14 UNK         0.1400 
     81 CB          0.8097  -25.8131  -48.6026 C.3       14 UNK        -0.1800 
     82 C          -1.2120  -26.8745  -49.6982 C.2       14 UNK         0.5000 
     83 O          -1.0436  -27.9932  -50.1843 O.2       14 UNK        -0.5000 
     84 N          -2.0037  -25.9391  -50.2400 N.am      15 UNK        -0.5000 
     85 CA         -2.8655  -26.1283  -51.4090 C.3       15 UNK         0.1400 
     86 CB         -3.2503  -24.7474  -51.9640 C.3       15 UNK        -0.1800 
     87 C          -4.1268  -26.9743  -51.1228 C.2       15 UNK         0.5000 
     88 O          -4.8359  -27.3208  -52.0678 O.2       15 UNK        -0.5000 
     89 N          -4.3804  -27.2921  -49.8434 N.am      16 UNK        -0.5000 
     90 CA         -5.5143  -28.0527  -49.3103 C.3       16 UNK         0.1400 
     91 CB         -5.5168  -29.5007  -49.8449 C.3       16 UNK        -0.1800 
     92 C          -6.8636  -27.3283  -49.4909 C.2       16 UNK         0.5000 
     93 O          -7.8837  -27.9780  -49.7307 O.2       16 UNK        -0.5000 
     94 N          -6.8411  -25.9942  -49.3468 N.am      17 UNK        -0.5000 
     95 CA         -7.9684  -25.0708  -49.4901 C.3       17 UNK         0.1400 
     96 CB         -8.9738  -25.2551  -48.3314 C.3       17 UNK        -0.1800 
     97 C          -8.5952  -25.1346  -50.9005 C.2       17 UNK         0.5000 
     98 O          -7.8496  -25.1751  -51.8818 O.2       17 UNK        -0.5000 
     99 N          -9.9344  -25.1055  -50.9861 N.am      18 UNK        -0.5000 
    100 CA       -10.7435  -25.0492  -52.2088 C.3       18 UNK         0.1400 
    101 CB       -10.6162  -26.3587  -53.0202 C.3       18 UNK        -0.1800 
    102 C        -10.4274  -23.7722  -53.0132 C.2       18 UNK         0.5000 
    103 O        -10.8489  -22.6893  -52.6039 O.2       18 UNK        -0.5000 
    104 N         -9.6658  -23.9071  -54.1073 N.am      19 UNK        -0.5000 
    105 CA        -9.1235  -22.7915  -54.8871 C.3       19 UNK         0.1400 
    106 CB        -8.5803  -23.3314  -56.2191 C.3       19 UNK        -0.1800 
    107 C         -8.0284  -22.0041  -54.1359 C.2       19 UNK         0.5000 
    108 O         -7.8441  -20.8185  -54.4156 O.2       19 UNK        -0.5000 
    109 N         -7.3468  -22.6723  -53.1914 N.am      20 UNK        -0.5000 
    110 CA        -6.2858  -22.1693  -52.3166 C.3       20 UNK         0.1400 
    111 CB        -6.8615  -21.1242  -51.3349 C.3       20 UNK        -0.1800 
    112 C         -5.0403  -21.6725  -53.0848 C.2       20 UNK         0.5000 
    113 O         -4.8337  -22.0399  -54.2440 O.2       20 UNK        -0.5000 
    114 N         -4.2141  -20.8681  -52.4100 N.am      21 UNK        -0.5000 
    115 CA        -3.0222  -20.2326  -52.9534 C.3       21 UNK         0.1400 
    116 CB        -1.8152  -21.1832  -52.8635 C.3       21 UNK        -0.1800 
    117 C         -2.8152  -18.9254  -52.1815 C.2       21 UNK         0.5000 
    118 O         -2.1435  -18.9212  -51.1504 O.2       21 UNK        -0.5000 
    119 N         -3.4509  -17.8574  -52.6781 N.am      22 UNK        -0.5000 
    120 CA        -3.3744  -16.4739  -52.1674 C.3       22 UNK         0.1400 
    121 C         -4.1437  -16.2144  -50.8367 C.2       22 UNK         0.5000 
    122 N         -4.9728  -17.1335  -50.3584 N.am      22 UNK        -0.7600 
    123 O         -4.0245  -15.1429  -50.2494 O.2       22 UNK        -0.5000 
    124 C124       -1.9268  -15.9056  -52.1297 C.3       23 UNK        -0.0398 
    125 S125       -1.0553  -16.0929  -53.7243 S.3       23 UNK        -0.2404 
    126 C126        0.5200  -15.2478  -53.3785 C.3       23 UNK        -0.0205 
    127 H127        9.8832  -15.3516  -48.0355 H         1 UNK         0.0600 
    128 H128       10.3454  -14.1326  -46.8428 H         1 UNK         0.0600 
    129 H129        9.5948  -13.6409  -48.3637 H         1 UNK         0.0600 
    130 H130        7.4504  -13.0888  -48.1237 H         1 UNK         0.3000 
    131 H131        5.5437  -14.7416  -46.7767 H         1 UNK         0.0600 
    132 H132        3.9674  -12.7460  -47.3315 H         1 UNK         0.0800 
    133 H133        5.3328  -11.9905  -48.0889 H         1 UNK         0.0800 
    134 H134        2.8885  -15.0406  -48.0288 H         1 UNK         0.0800 
    135 H135        2.2257  -13.6768  -48.8907 H         1 UNK         0.0800 
    136 H136        1.4897  -13.9085  -51.2202 H         1 UNK         0.1150 
    137 H137        1.2337  -17.8480  -52.8911 H         1 UNK         0.1150 
    138 H138        3.2718  -17.2187  -49.1699 H         1 UNK         0.1150 
    139 H139        2.1435  -19.7336  -51.7751 H         1 UNK         0.0800 
    140 H140        3.7041  -19.2737  -51.1482 H         1 UNK         0.0800 
    141 H141        0.2476  -20.5563  -50.5693 H         1 UNK         0.0800 
    142 H142       -0.1044  -19.4662  -49.2498 H         1 UNK         0.0800 
    143 H143        0.8071  -22.3572  -48.8389 H         1 UNK         0.0600 
    144 H144        0.3377  -20.2959  -46.9480 H         1 UNK         0.3000 
    145 H145       -0.3245  -22.4686  -44.1508 H         1 UNK         0.0600 
    146 H146        1.5002  -21.0662  -43.2306 H         1 UNK         0.0600 
    147 H147        2.1399  -22.2578  -44.3528 H         1 UNK         0.0600 
    148 H148        1.9824  -20.5808  -44.8538 H         1 UNK         0.0600 
    149 H149       -0.3053  -19.6302  -44.3458 H         1 UNK         0.3000 
    150 H150       -3.7839  -19.2504  -45.1933 H         1 UNK         0.0600 
    151 H151       -3.6470  -19.5418  -42.7160 H         1 UNK         0.0600 
    152 H152       -3.6839  -17.8443  -43.1669 H         1 UNK         0.0600 
    153 H153       -2.1663  -18.5932  -42.6767 H         1 UNK         0.0600 
    154 H154       -1.7612  -17.3038  -44.7837 H         1 UNK         0.3000 
    155 H155       -0.5178  -17.2267  -48.1632 H         1 UNK         0.0600 
    156 H156       -2.0876  -15.2184  -46.4634 H         1 UNK         0.0600 
    157 H157       -1.1011  -14.8533  -47.8792 H         1 UNK         0.0600 
    158 H158       -2.5757  -15.7930  -48.0531 H         1 UNK         0.0600 
    159 H159        0.2534  -15.7332  -45.8842 H         1 UNK         0.3000 
    160 H160        2.6761  -18.0878  -44.6045 H         1 UNK         0.0600 
    161 H161        2.9013  -15.2659  -45.7517 H         1 UNK         0.0600 
    162 H162        3.7145  -16.6799  -46.4276 H         1 UNK         0.0600 
    163 H163        4.1034  -16.1355  -44.8048 H         1 UNK         0.0600 
    164 H164        1.7204  -15.5317  -43.6844 H         1 UNK         0.3000 
    165 H165       -0.6885  -16.8193  -41.3957 H         1 UNK         0.0600 
    166 H166        0.7474  -15.5758  -39.7997 H         1 UNK         0.0600 
    167 H167        1.5141  -17.0914  -40.2465 H         1 UNK         0.0600 
    168 H168        2.0843  -15.5828  -40.9499 H         1 UNK         0.0600 
    169 H169        0.2818  -14.1799  -41.9182 H         1 UNK         0.3000 
    170 H170       -2.1401  -13.3253  -44.4059 H         1 UNK         0.0600 
    171 H171       -1.6203  -12.4429  -41.5150 H         1 UNK         0.0600 
    172 H172       -2.4936  -11.5309  -42.7448 H         1 UNK         0.0600 
    173 H173       -3.1575  -13.0378  -42.1332 H         1 UNK         0.0600 
    174 H174       -0.0146  -11.7867  -43.3284 H         1 UNK         0.3000 
    175 H175        2.3902  -12.6271  -45.8386 H         1 UNK         0.0600 
    176 H176        2.3021  -10.1618  -46.0573 H         1 UNK         0.0600 
    177 H177        0.7710  -10.1163  -45.1846 H         1 UNK         0.0600 
    178 H178        0.8711  -10.9133  -46.7463 H         1 UNK         0.0600 
    179 H179        3.5140  -12.3757  -44.0135 H         1 UNK         0.3000 
    180 H180        3.6455  -10.0639  -41.4973 H         1 UNK         0.0600 
    181 H181        3.0627  -13.0036  -40.8322 H         1 UNK         0.0600 
    182 H182        2.2260  -11.6165  -40.1453 H         1 UNK         0.0600 
    183 H183        3.9293  -11.8644  -39.8011 H         1 UNK         0.0600 
    184 H184        5.1404  -12.4762  -42.0082 H         1 UNK         0.3000 
    185 H185        7.6452  -10.8830  -43.7906 H         1 UNK         0.0600 
    186 H186        7.5336  -12.2741  -41.7012 H         1 UNK         0.0600 
    187 H187        6.7297  -13.5607  -42.6002 H         1 UNK         0.0600 
    188 H188        8.3717  -13.0893  -43.0085 H         1 UNK         0.0600 
    189 H189        7.4276  -11.9982  -45.7042 H         1 UNK         0.3000 
    190 H190       -2.2666  -20.6989  -47.9475 H         1 UNK         0.3000 
    191 H191       -3.9434  -22.1368  -49.7106 H         1 UNK         0.0600 
    192 H192       -4.6609  -20.0823  -48.5339 H         1 UNK         0.0600 
    193 H193       -5.7672  -21.3987  -48.1594 H         1 UNK         0.0600 
    194 H194       -4.5656  -20.9003  -46.9779 H         1 UNK         0.0600 
    195 H195       -2.8912  -22.9402  -46.3754 H         1 UNK         0.3000 
    196 H196       -4.3822  -25.3525  -46.1235 H         1 UNK         0.0600 
    197 H197       -2.8270  -25.8109  -44.2321 H         1 UNK         0.0600 
    198 H198       -3.4218  -24.1583  -44.1790 H         1 UNK         0.0600 
    199 H199       -1.7865  -24.4890  -44.7439 H         1 UNK         0.0600 
    200 H200       -1.0257  -24.7489  -47.2837 H         1 UNK         0.3000 
    201 H201       -0.3408  -27.4467  -47.8280 H         1 UNK         0.0600 
    202 H202        1.3257  -25.6156  -47.6629 H         1 UNK         0.0600 
    203 H203        0.6814  -24.8624  -49.1198 H         1 UNK         0.0600 
    204 H204        1.4688  -26.4324  -49.2122 H         1 UNK         0.0600 
    205 H205       -2.0139  -25.0153  -49.8182 H         1 UNK         0.3000 
    206 H206       -2.2927  -26.6536  -52.1758 H         1 UNK         0.0600 
    207 H207       -2.3649  -24.1755  -52.2409 H         1 UNK         0.0600 
    208 H208       -3.8710  -24.8372  -52.8564 H         1 UNK         0.0600 
    209 H209       -3.8081  -24.1638  -51.2329 H         1 UNK         0.0600 
    210 H210       -3.7324  -26.9564  -49.1417 H         1 UNK         0.3000 
    211 H211       -5.3543  -28.1095  -48.2330 H         1 UNK         0.0600 
    212 H212       -5.7510  -29.5418  -50.9089 H         1 UNK         0.0600 
    213 H213       -6.2595  -30.1067  -49.3250 H         1 UNK         0.0600 
    214 H214       -4.5481  -29.9774  -49.6947 H         1 UNK         0.0600 
    215 H215       -5.9447  -25.5467  -49.1699 H         1 UNK         0.3000 
    216 H216       -7.5444  -24.0697  -49.3992 H         1 UNK         0.0600 
    217 H217       -9.7263  -24.4658  -48.3286 H         1 UNK         0.0600 
    218 H218       -8.4668  -25.2104  -47.3673 H         1 UNK         0.0600 
    219 H219       -9.4921  -26.2130  -48.3867 H         1 UNK         0.0600 
    220 H220      -10.4565  -25.0511  -50.1231 H         1 UNK         0.3000 
    221 H221      -11.7838  -24.9622  -51.8915 H         1 UNK         0.0600 
    222 H222       -9.5924  -26.5624  -53.3347 H         1 UNK         0.0600 
    223 H223      -10.9502  -27.2118  -52.4297 H         1 UNK         0.0600 
    224 H224      -11.2379  -26.3256  -53.9158 H         1 UNK         0.0600 
    225 H225       -9.3434  -24.8318  -54.3535 H         1 UNK         0.3000 
    226 H226       -9.9384  -22.0982  -55.1059 H         1 UNK         0.0600 
    227 H227       -9.3617  -23.8324  -56.7908 H         1 UNK         0.0600 
    228 H228       -8.1931  -22.5217  -56.8391 H         1 UNK         0.0600 
    229 H229       -7.7676  -24.0420  -56.0632 H         1 UNK         0.0600 
    230 H230       -7.5844  -23.6483  -53.0377 H         1 UNK         0.3000 
    231 H231       -5.9559  -23.0270  -51.7291 H         1 UNK         0.0600 
    232 H232       -7.1284  -20.1963  -51.8420 H         1 UNK         0.0600 
    233 H233       -6.1527  -20.8761  -50.5468 H         1 UNK         0.0600 
    234 H234       -7.7585  -21.5027  -50.8440 H         1 UNK         0.0600 
    235 H235       -4.4434  -20.6060  -51.4627 H         1 UNK         0.3000 
    236 H236       -3.1813  -19.9821  -54.0048 H         1 UNK         0.0600 
    237 H237       -0.8971  -20.6807  -53.1700 H         1 UNK         0.0600 
    238 H238       -1.6691  -21.5497  -51.8494 H         1 UNK         0.0600 
    239 H239       -1.9468  -22.0477  -53.5139 H         1 UNK         0.0600 
    240 H240       -4.0134  -17.9753  -53.5085 H         1 UNK         0.3000 
    241 H241       -3.9194  -15.8807  -52.9024 H         1 UNK         0.0600 
    242 H242       -5.1035  -18.0030  -50.8450 H         1 UNK         0.3800 
    243 H243       -5.4779  -16.9484  -49.5069 H         1 UNK         0.3800 
    244 H244       -1.9396  -14.8438  -51.8784 H         1 UNK         0.0800 
    245 H245       -1.3475  -16.3966  -51.3463 H         1 UNK         0.0800 
    246 H246        1.1598  -15.3244  -54.2584 H         1 UNK         0.0800 
    247 H247        0.3183  -14.1847  -53.2377 H         1 UNK         0.0800 
@<TRIPOS>BOND
     1    1    2 1    
     2    1  127 1    
     3    1  128 1    
     4    1  129 1    
     5    2    3 2    
     6    2    4 am   BACKBONE|DICT|INTERRES
     7    4    5 1    
     8    4  130 1    
     9    5    6 1    
    10    5   65 1    
    11    5  131 1    
    12    6    7 1    
    13    6  132 1    
    14    6  133 1    
    15    7    8 1    
    16    8    9 1    
    17    8  134 1    
    18    8  135 1    
    19    9   10 ar   
    20    9   14 ar   
    21   10   11 ar   
    22   10  136 1    
    23   11   12 ar   
    24   11  126 1    
    25   12   13 ar   
    26   12  137 1    
    27   13   14 ar   
    28   13   15 1    
    29   14  138 1    
    30   15   16 1    
    31   15  139 1    
    32   15  140 1    
    33   16   17 1    
    34   17   18 1    
    35   17  141 1    
    36   17  142 1    
    37   18   19 1    
    38   18   67 1    
    39   18  143 1    
    40   19   20 am   BACKBONE|DICT|INTERRES
    41   19  144 1    
    42   20   21 2    
    43   20   22 1    
    44   22   23 1    
    45   22   24 1    
    46   22  145 1    
    47   23  146 1    
    48   23  147 1    
    49   23  148 1    
    50   24   25 am   BACKBONE|DICT|INTERRES
    51   24  149 1    
    52   25   26 2    
    53   25   27 1    
    54   27   28 1    
    55   27   29 1    
    56   27  150 1    
    57   28  151 1    
    58   28  152 1    
    59   28  153 1    
    60   29   30 am   BACKBONE|DICT|INTERRES
    61   29  154 1    
    62   30   31 2    
    63   30   32 1    
    64   32   33 1    
    65   32   34 1    
    66   32  155 1    
    67   33  156 1    
    68   33  157 1    
    69   33  158 1    
    70   34   35 am   BACKBONE|DICT|INTERRES
    71   34  159 1    
    72   35   36 2    
    73   35   37 1    
    74   37   38 1    
    75   37   39 1    
    76   37  160 1    
    77   38  161 1    
    78   38  162 1    
    79   38  163 1    
    80   39   40 am   BACKBONE|DICT|INTERRES
    81   39  164 1    
    82   40   41 2    
    83   40   42 1    
    84   42   43 1    
    85   42   44 1    
    86   42  165 1    
    87   43  166 1    
    88   43  167 1    
    89   43  168 1    
    90   44   45 am   BACKBONE|DICT|INTERRES
    91   44  169 1    
    92   45   46 2    
    93   45   47 1    
    94   47   48 1    
    95   47   49 1    
    96   47  170 1    
    97   48  171 1    
    98   48  172 1    
    99   48  173 1    
   100   49   50 am   BACKBONE|DICT|INTERRES
   101   49  174 1    
   102   50   51 2    
   103   50   52 1    
   104   52   53 1    
   105   52   54 1    
   106   52  175 1    
   107   53  176 1    
   108   53  177 1    
   109   53  178 1    
   110   54   55 am   BACKBONE|DICT|INTERRES
   111   54  179 1    
   112   55   56 2    
   113   55   57 1    
   114   57   58 1    
   115   57   59 1    
   116   57  180 1    
   117   58  181 1    
   118   58  182 1    
   119   58  183 1    
   120   59   60 am   BACKBONE|DICT|INTERRES
   121   59  184 1    
   122   60   61 2    
   123   60   62 1    
   124   62   63 1    
   125   62   64 1    
   126   62  185 1    
   127   63  186 1    
   128   63  187 1    
   129   63  188 1    
   130   64   65 am   BACKBONE|DICT|INTERRES
   131   64  189 1    
   132   65   66 2    
   133   67   68 2    
   134   67   69 am   BACKBONE|DICT|INTERRES
   135   69   70 1    
   136   69  190 1    
   137   70   71 1    
   138   70   72 1    
   139   70  191 1    
   140   71  192 1    
   141   71  193 1    
   142   71  194 1    
   143   72   73 2    
   144   72   74 am   BACKBONE|DICT|INTERRES
   145   74   75 1    
   146   74  195 1    
   147   75   76 1    
   148   75   77 1    
   149   75  196 1    
   150   76  197 1    
   151   76  198 1    
   152   76  199 1    
   153   77   78 2    
   154   77   79 am   BACKBONE|DICT|INTERRES
   155   79   80 1    
   156   79  200 1    
   157   80   81 1    
   158   80   82 1    
   159   80  201 1    
   160   81  202 1    
   161   81  203 1    
   162   81  204 1    
   163   82   83 2    
   164   82   84 am   BACKBONE|DICT|INTERRES
   165   84   85 1    
   166   84  205 1    
   167   85   86 1    
   168   85   87 1    
   169   85  206 1    
   170   86  207 1    
   171   86  208 1    
   172   86  209 1    
   173   87   88 2    
   174   87   89 am   BACKBONE|DICT|INTERRES
   175   89   90 1    
   176   89  210 1    
   177   90   91 1    
   178   90   92 1    
   179   90  211 1    
   180   91  212 1    
   181   91  213 1    
   182   91  214 1    
   183   92   93 2    
   184   92   94 am   BACKBONE|DICT|INTERRES
   185   94   95 1    
   186   94  215 1    
   187   95   96 1    
   188   95   97 1    
   189   95  216 1    
   190   96  217 1    
   191   96  218 1    
   192   96  219 1    
   193   97   98 2    
   194   97   99 am   BACKBONE|DICT|INTERRES
   195   99  100 1    
   196   99  220 1    
   197  100  101 1    
   198  100  102 1    
   199  100  221 1    
   200  101  222 1    
   201  101  223 1    
   202  101  224 1    
   203  102  103 2    
   204  102  104 am   BACKBONE|DICT|INTERRES
   205  104  105 1    
   206  104  225 1    
   207  105  106 1    
   208  105  107 1    
   209  105  226 1    
   210  106  227 1    
   211  106  228 1    
   212  106  229 1    
   213  107  108 2    
   214  107  109 am   BACKBONE|DICT|INTERRES
   215  109  110 1    
   216  109  230 1    
   217  110  111 1    
   218  110  112 1    
   219  110  231 1    
   220  111  232 1    
   221  111  233 1    
   222  111  234 1    
   223  112  113 2    
   224  112  114 am   BACKBONE|DICT|INTERRES
   225  114  115 1    
   226  114  235 1    
   227  115  116 1    
   228  115  117 1    
   229  115  236 1    
   230  116  237 1    
   231  116  238 1    
   232  116  239 1    
   233  117  118 2    
   234  117  119 am   BACKBONE|DICT|INTERRES
   235  119  120 1    
   236  119  240 1    
   237  120  121 1    
   238  120  124 1    
   239  120  241 1    
   240  121  122 am   BACKBONE|DICT|INTERRES
   241  121  123 2    
   242  122  242 1    
   243  122  243 1    
   244  124  125 1    
   245  124  244 1    
   246  124  245 1    
   247  125  126 1    
   248  126  246 1    
   249  126  247 1    
@<TRIPOS>SUBSTRUCTURE
     1 UNK         1 GROUP             0       ****    0 ROOT    
