@<TRIPOS>MOLECULE
3R540
247   249    1
SMALL
USER_CHARGES


@<TRIPOS>ATOM
      1 CA          2.1095  -11.3923  -47.9876 C.3       0 UNK        -0.1800 
      2 C           1.7915  -12.8060  -47.5247 C.2       0 UNK         0.5000 
      3 O           1.9709  -13.1182  -46.3499 O.2       0 UNK        -0.5000 
      4 N           1.3220  -13.6643  -48.4381 N.am      1 UNK        -0.5000 
      5 CA          0.9518  -15.0631  -48.1915 C.3       1 UNK         0.1400 
      6 C6         -0.2922  -15.2243  -47.2670 C.3       23 UNK        -0.0398 
      7 S7         -1.7619  -14.2767  -47.8018 S.3       23 UNK        -0.2404 
      8 C8         -2.2349  -15.0696  -49.3742 C.3       23 UNK        -0.0205 
      9 C9         -2.3875  -16.5767  -49.2475 C.ar      23 UNK        -0.0193 
     10 C10        -3.4340  -17.1227  -48.5002 C.ar      23 UNK        -0.1150 
     11 C11        -3.5603  -18.5076  -48.3588 C.ar      23 UNK        -0.0193 
     12 C12        -2.6260  -19.3480  -48.9723 C.ar      23 UNK        -0.1150 
     13 C13        -1.5720  -18.8109  -49.7194 C.ar      23 UNK        -0.0193 
     14 C14        -1.4680  -17.4265  -49.8653 C.ar      23 UNK        -0.1150 
     15 C15        -0.5342  -19.7188  -50.3620 C.3       23 UNK        -0.0205 
     16 S16         1.1369  -19.4820  -49.6725 S.3       23 UNK        -0.2404 
     17 C17         0.8847  -19.7064  -47.8800 C.3       23 UNK        -0.0398 
     18 CA          1.0225  -21.1798  -47.4314 C.3       11 UNK         0.1400 
     19 N           1.5138  -21.2804  -46.0583 N.am      11 UNK        -0.5000 
     20 C           2.2668  -22.2817  -45.5856 C.2       10 UNK         0.5000 
     21 O           2.7011  -23.1989  -46.2819 O.2       10 UNK        -0.5000 
     22 CA          2.5719  -22.2697  -44.0747 C.3       10 UNK         0.1400 
     23 CB          3.9515  -21.6518  -43.8054 C.3       10 UNK        -0.1800 
     24 N           1.5567  -21.5654  -43.2844 N.am      10 UNK        -0.5000 
     25 C           0.3162  -22.0319  -43.0865 C.2       9 UNK         0.5000 
     26 O          -0.0963  -23.0909  -43.5602 O.2       9 UNK        -0.5000 
     27 CA         -0.6337  -21.1624  -42.2432 C.3       9 UNK         0.1400 
     28 CB         -0.3698  -21.3843  -40.7462 C.3       9 UNK        -0.1800 
     29 N          -0.6140  -19.7217  -42.5191 N.am      9 UNK        -0.5000 
     30 C          -0.6813  -19.1041  -43.7045 C.2       8 UNK         0.5000 
     31 O          -0.5644  -19.6911  -44.7800 O.2       8 UNK        -0.5000 
     32 CA         -0.9166  -17.5743  -43.7264 C.3       8 UNK         0.1400 
     33 CB         -2.3648  -17.2669  -44.1441 C.3       8 UNK        -0.1800 
     34 N          -0.5564  -16.8018  -42.5233 N.am      8 UNK        -0.5000 
     35 C          -0.9799  -16.9345  -41.2556 C.2       7 UNK         0.5000 
     36 O          -1.7483  -17.8138  -40.8681 O.2       7 UNK        -0.5000 
     37 CA         -0.4556  -15.9010  -40.2479 C.3       7 UNK         0.1400 
     38 CB          1.0810  -15.7990  -40.2579 C.3       7 UNK        -0.1800 
     39 N          -1.0446  -14.5983  -40.5371 N.am      7 UNK        -0.5000 
     40 C          -2.2092  -14.1621  -40.0342 C.2       6 UNK         0.5000 
     41 O          -2.8668  -14.7782  -39.1948 O.2       6 UNK        -0.5000 
     42 CA         -2.7338  -12.8063  -40.5492 C.3       6 UNK         0.1400 
     43 CB         -2.3647  -11.6811  -39.5701 C.3       6 UNK        -0.1800 
     44 N          -2.2186  -12.4661  -41.8749 N.am      6 UNK        -0.5000 
     45 C          -2.5792  -13.0694  -43.0165 C.2       5 UNK         0.5000 
     46 O          -3.4792  -13.9050  -43.0930 O.2       5 UNK        -0.5000 
     47 CA         -1.7737  -12.6970  -44.2762 C.3       5 UNK         0.1400 
     48 CB         -2.5320  -11.6659  -45.1247 C.3       5 UNK        -0.1800 
     49 N          -0.4377  -12.1765  -43.9684 N.am      5 UNK        -0.5000 
     50 C           0.5649  -12.9131  -43.4754 C.2       4 UNK         0.5000 
     51 O           0.4786  -14.1232  -43.2370 O.2       4 UNK        -0.5000 
     52 CA          1.8633  -12.1676  -43.1447 C.3       4 UNK         0.1400 
     53 CB          1.8815  -11.7356  -41.6696 C.3       4 UNK        -0.1800 
     54 N           2.9659  -13.0801  -43.4004 N.am      4 UNK        -0.5000 
     55 C           4.1277  -12.7601  -43.9824 C.2       3 UNK         0.5000 
     56 O           4.4991  -11.6072  -44.2055 O.2       3 UNK        -0.5000 
     57 CA          4.9948  -13.9452  -44.4296 C.3       3 UNK         0.1400 
     58 CB          5.7906  -14.4792  -43.2184 C.3       3 UNK        -0.1800 
     59 N           4.1196  -14.9637  -45.0194 N.am      3 UNK        -0.5000 
     60 C           4.4489  -16.1962  -45.4231 C.2       2 UNK         0.5000 
     61 O           5.5967  -16.6407  -45.4320 O.2       2 UNK        -0.5000 
     62 CA          3.2878  -17.1044  -45.8702 C.3       2 UNK         0.1400 
     63 CB          2.7525  -17.8869  -44.6606 C.3       2 UNK        -0.1800 
     64 N           2.1771  -16.3732  -46.4834 N.am      2 UNK        -0.5000 
     65 C           2.1888  -15.8715  -47.7271 C.2       1 UNK         0.5000 
     66 O           3.1351  -16.0106  -48.5039 O.2       1 UNK        -0.5000 
     67 C          -0.3103  -21.9381  -47.5658 C.2       11 UNK         0.5000 
     68 O          -0.5120  -22.6463  -48.5513 O.2       11 UNK        -0.5000 
     69 N          -1.1842  -21.8185  -46.5549 N.am      12 UNK        -0.5000 
     70 CA         -2.4882  -22.4841  -46.4627 C.3       12 UNK         0.1400 
     71 CB         -3.2326  -21.9605  -45.2267 C.3       12 UNK        -0.1800 
     72 C          -2.4146  -24.0249  -46.4433 C.2       12 UNK         0.5000 
     73 O          -3.4039  -24.6807  -46.7672 O.2       12 UNK        -0.5000 
     74 N          -1.2414  -24.5755  -46.1047 N.am      13 UNK        -0.5000 
     75 CA         -0.9042  -25.9913  -46.2494 C.3       13 UNK         0.1400 
     76 CB          0.4505  -26.2477  -45.5720 C.3       13 UNK        -0.1800 
     77 C          -0.8728  -26.4616  -47.7207 C.2       13 UNK         0.5000 
     78 O          -1.1465  -27.6338  -47.9809 O.2       13 UNK        -0.5000 
     79 N          -0.5531  -25.5479  -48.6484 N.am      14 UNK        -0.5000 
     80 CA         -0.5938  -25.7667  -50.0926 C.3       14 UNK         0.1400 
     81 CB          0.6259  -25.0978  -50.7476 C.3       14 UNK        -0.1800 
     82 C          -1.9043  -25.2181  -50.6786 C.2       14 UNK         0.5000 
     83 O          -2.5975  -25.9473  -51.3887 O.2       14 UNK        -0.5000 
     84 N          -2.2234  -23.9538  -50.3562 N.am      15 UNK        -0.5000 
     85 CA         -3.4301  -23.2086  -50.7303 C.3       15 UNK         0.1400 
     86 CB         -4.6354  -23.7130  -49.9103 C.3       15 UNK        -0.1800 
     87 C          -3.6800  -23.2067  -52.2520 C.2       15 UNK         0.5000 
     88 O          -3.0209  -22.4577  -52.9747 O.2       15 UNK        -0.5000 
     89 N          -4.5914  -24.0699  -52.7192 N.am      16 UNK        -0.5000 
     90 CA         -4.9019  -24.2853  -54.1321 C.3       16 UNK         0.1400 
     91 CB         -6.1039  -25.2340  -54.2446 C.3       16 UNK        -0.1800 
     92 C          -3.7088  -24.8257  -54.9446 C.2       16 UNK         0.5000 
     93 O          -3.5953  -24.5032  -56.1266 O.2       16 UNK        -0.5000 
     94 N          -2.8087  -25.5838  -54.2991 N.am      17 UNK        -0.5000 
     95 CA         -1.5631  -26.0724  -54.9007 C.3       17 UNK         0.1400 
     96 CB         -0.9854  -27.2081  -54.0427 C.3       17 UNK        -0.1800 
     97 C          -0.5188  -24.9563  -55.1099 C.2       17 UNK         0.5000 
     98 O           0.3555  -25.1019  -55.9641 O.2       17 UNK        -0.5000 
     99 N          -0.6470  -23.8538  -54.3577 N.am      18 UNK        -0.5000 
    100 CA         0.1192  -22.6185  -54.5357 C.3       18 UNK         0.1400 
    101 CB         0.3936  -22.0037  -53.1522 C.3       18 UNK        -0.1800 
    102 C         -0.6066  -21.6149  -55.4593 C.2       18 UNK         0.5000 
    103 O         -0.0881  -20.5198  -55.6790 O.2       18 UNK        -0.5000 
    104 N         -1.7873  -21.9972  -55.9742 N.am      19 UNK        -0.5000 
    105 CA        -2.6945  -21.2259  -56.8306 C.3       19 UNK         0.1400 
    106 CB        -2.0399  -20.9239  -58.1950 C.3       19 UNK        -0.1800 
    107 C         -3.2741  -19.9687  -56.1469 C.2       19 UNK         0.5000 
    108 O         -3.6203  -19.0037  -56.8317 O.2       19 UNK        -0.5000 
    109 N         -3.3784  -19.9969  -54.8120 N.am      20 UNK        -0.5000 
    110 CA        -3.9480  -18.9175  -54.0105 C.3       20 UNK         0.1400 
    111 CB        -3.3555  -18.9910  -52.5978 C.3       20 UNK        -0.1800 
    112 C         -5.4806  -19.0031  -53.9495 C.2       20 UNK         0.5000 
    113 O         -6.0581  -20.0660  -54.1960 O.2       20 UNK        -0.5000 
    114 N         -6.1071  -17.8899  -53.5425 N.am      21 UNK        -0.5000 
    115 CA        -7.5523  -17.7531  -53.3204 C.3       21 UNK         0.1400 
    116 CB        -7.8636  -16.2923  -52.9603 C.3       21 UNK        -0.1800 
    117 C         -8.1179  -18.7057  -52.2455 C.2       21 UNK         0.5000 
    118 O         -9.3133  -19.0014  -52.2659 O.2       21 UNK        -0.5000 
    119 N         -7.2444  -19.1894  -51.3532 N.am      22 UNK        -0.5000 
    120 CA        -7.5142  -20.2786  -50.4045 C.3       22 UNK         0.1400 
    121 C         -7.7546  -21.6668  -51.0712 C.2       22 UNK         0.5000 
    122 N         -7.3909  -21.8863  -52.3303 N.am      22 UNK        -0.7600 
    123 O         -8.2872  -22.5663  -50.4279 O.2       22 UNK        -0.5000 
    124 C124       -6.4015  -20.3785  -49.3288 C.3       23 UNK        -0.0398 
    125 S125       -6.3139  -18.8856  -48.2860 S.3       23 UNK        -0.2404 
    126 C126       -4.6817  -19.0798  -47.5040 C.3       23 UNK        -0.0205 
    127 H127        1.4926  -10.6754  -47.4458 H         1 UNK         0.0600 
    128 H128        1.9261  -11.2634  -49.0545 H         1 UNK         0.0600 
    129 H129        3.1561  -11.1610  -47.7899 H         1 UNK         0.0600 
    130 H130        1.2210  -13.3544  -49.3938 H         1 UNK         0.3000 
    131 H131        0.6901  -15.4755  -49.1657 H         1 UNK         0.0600 
    132 H132       -0.5739  -16.2752  -47.1811 H         1 UNK         0.0800 
    133 H133       -0.0643  -14.8887  -46.2544 H         1 UNK         0.0800 
    134 H134       -3.1800  -14.6428  -49.7123 H         1 UNK         0.0800 
    135 H135       -1.4985  -14.8157  -50.1378 H         1 UNK         0.0800 
    136 H136       -4.1441  -16.4671  -48.0157 H         1 UNK         0.1150 
    137 H137       -2.7089  -20.4178  -48.8559 H         1 UNK         0.1150 
    138 H138       -0.6551  -17.0151  -50.4464 H         1 UNK         0.1150 
    139 H139       -0.8249  -20.7654  -50.2816 H         1 UNK         0.0800 
    140 H140       -0.4831  -19.5064  -51.4292 H         1 UNK         0.0800 
    141 H141       -0.0504  -19.2542  -47.5462 H         1 UNK         0.0800 
    142 H142        1.6673  -19.1137  -47.4077 H         1 UNK         0.0800 
    143 H143        1.7455  -21.6700  -48.0876 H         1 UNK         0.0600 
    144 H144        1.1254  -20.6163  -45.3992 H         1 UNK         0.3000 
    145 H145        2.5988  -23.3089  -43.7394 H         1 UNK         0.0600 
    146 H146        4.7346  -22.2167  -44.3129 H         1 UNK         0.0600 
    147 H147        4.1877  -21.6556  -42.7412 H         1 UNK         0.0600 
    148 H148        4.0109  -20.6248  -44.1619 H         1 UNK         0.0600 
    149 H149        1.8198  -20.6859  -42.8648 H         1 UNK         0.3000 
    150 H150       -1.6488  -21.5023  -42.4501 H         1 UNK         0.0600 
    151 H151       -0.4013  -22.4452  -40.4941 H         1 UNK         0.0600 
    152 H152       -1.1219  -20.8844  -40.1354 H         1 UNK         0.0600 
    153 H153        0.6085  -21.0038  -40.4499 H         1 UNK         0.0600 
    154 H154       -0.8080  -19.1283  -41.7174 H         1 UNK         0.3000 
    155 H155       -0.2703  -17.1925  -44.5169 H         1 UNK         0.0600 
    156 H156       -2.6260  -17.7811  -45.0704 H         1 UNK         0.0600 
    157 H157       -2.5037  -16.2004  -44.3199 H         1 UNK         0.0600 
    158 H158       -3.0800  -17.5778  -43.3820 H         1 UNK         0.0600 
    159 H159        0.0344  -15.9979  -42.7131 H         1 UNK         0.3000 
    160 H160       -0.7529  -16.2275  -39.2488 H         1 UNK         0.0600 
    161 H161        1.4734  -15.4353  -41.2067 H         1 UNK         0.0600 
    162 H162        1.5355  -16.7720  -40.0677 H         1 UNK         0.0600 
    163 H163        1.4298  -15.1218  -39.4781 H         1 UNK         0.0600 
    164 H164       -0.6034  -14.0621  -41.2710 H         1 UNK         0.3000 
    165 H165       -3.8225  -12.8702  -40.6061 H         1 UNK         0.0600 
    166 H166       -2.7819  -10.7263  -39.8905 H         1 UNK         0.0600 
    167 H167       -2.7566  -11.8871  -38.5731 H         1 UNK         0.0600 
    168 H168       -1.2840  -11.5635  -39.4801 H         1 UNK         0.0600 
    169 H169       -1.4891  -11.7702  -41.9129 H         1 UNK         0.3000 
    170 H170       -1.6577  -13.6085  -44.8647 H         1 UNK         0.0600 
    171 H171       -2.6716  -10.7260  -44.5895 H         1 UNK         0.0600 
    172 H172       -1.9989  -11.4517  -46.0514 H         1 UNK         0.0600 
    173 H173       -3.5194  -12.0389  -45.4001 H         1 UNK         0.0600 
    174 H174       -0.2871  -11.1935  -44.1440 H         1 UNK         0.3000 
    175 H175        1.9414  -11.2904  -43.7908 H         1 UNK         0.0600 
    176 H176        1.7857  -12.5898  -40.9978 H         1 UNK         0.0600 
    177 H177        2.8106  -11.2212  -41.4238 H         1 UNK         0.0600 
    178 H178        1.0625  -11.0495  -41.4509 H         1 UNK         0.0600 
    179 H179        2.7313  -14.0542  -43.2674 H         1 UNK         0.3000 
    180 H180        5.6880  -13.5963  -45.1970 H         1 UNK         0.0600 
    181 H181        6.5532  -15.1969  -43.5182 H         1 UNK         0.0600 
    182 H182        5.1395  -14.9642  -42.4902 H         1 UNK         0.0600 
    183 H183        6.3103  -13.6692  -42.7047 H         1 UNK         0.0600 
    184 H184        3.1714  -14.6466  -45.1874 H         1 UNK         0.3000 
    185 H185        3.6854  -17.8188  -46.5944 H         1 UNK         0.0600 
    186 H186        2.0448  -18.6536  -44.9696 H         1 UNK         0.0600 
    187 H187        3.5629  -18.3852  -44.1289 H         1 UNK         0.0600 
    188 H188        2.2550  -17.2331  -43.9434 H         1 UNK         0.0600 
    189 H189        1.3863  -16.1788  -45.8899 H         1 UNK         0.3000 
    190 H190       -0.9559  -21.1776  -45.7992 H         1 UNK         0.3000 
    191 H191       -3.0591  -22.2026  -47.3482 H         1 UNK         0.0600 
    192 H192       -2.7566  -22.2965  -44.3067 H         1 UNK         0.0600 
    193 H193       -4.2619  -22.3208  -45.2114 H         1 UNK         0.0600 
    194 H194       -3.2669  -20.8709  -45.2103 H         1 UNK         0.0600 
    195 H195       -0.5108  -23.9645  -45.7661 H         1 UNK         0.3000 
    196 H196       -1.6663  -26.5748  -45.7290 H         1 UNK         0.0600 
    197 H197        0.4235  -25.9700  -44.5180 H         1 UNK         0.0600 
    198 H198        1.2510  -25.6792  -46.0473 H         1 UNK         0.0600 
    199 H199        0.7203  -27.3032  -45.6243 H         1 UNK         0.0600 
    200 H200       -0.3883  -24.5921  -48.3521 H         1 UNK         0.3000 
    201 H201       -0.5481  -26.8348  -50.3155 H         1 UNK         0.0600 
    202 H202        1.5534  -25.5506  -50.3974 H         1 UNK         0.0600 
    203 H203        0.6749  -24.0316  -50.5259 H         1 UNK         0.0600 
    204 H204        0.6014  -25.2058  -51.8323 H         1 UNK         0.0600 
    205 H205       -1.5638  -23.4410  -49.7744 H         1 UNK         0.3000 
    206 H206       -3.2547  -22.1682  -50.4551 H         1 UNK         0.0600 
    207 H207       -4.5138  -23.4761  -48.8551 H         1 UNK         0.0600 
    208 H208       -5.5608  -23.2406  -50.2324 H         1 UNK         0.0600 
    209 H209       -4.7704  -24.7920  -49.9908 H         1 UNK         0.0600 
    210 H210       -5.0509  -24.6791  -52.0582 H         1 UNK         0.3000 
    211 H211       -5.1829  -23.3206  -54.5608 H         1 UNK         0.0600 
    212 H212       -6.3803  -25.3918  -55.2880 H         1 UNK         0.0600 
    213 H213       -6.9783  -24.8282  -53.7362 H         1 UNK         0.0600 
    214 H214       -5.8864  -26.2110  -53.8109 H         1 UNK         0.0600 
    215 H215       -2.9464  -25.7841  -53.3118 H         1 UNK         0.3000 
    216 H216       -1.8008  -26.4848  -55.8836 H         1 UNK         0.0600 
    217 H217       -0.6827  -26.8589  -53.0568 H         1 UNK         0.0600 
    218 H218       -1.7121  -28.0091  -53.9063 H         1 UNK         0.0600 
    219 H219       -0.1057  -27.6446  -54.5173 H         1 UNK         0.0600 
    220 H220       -1.4201  -23.7957  -53.7074 H         1 UNK         0.3000 
    221 H221        1.0821  -22.8419  -54.9993 H         1 UNK         0.0600 
    222 H222       -0.5289  -21.7733  -52.6208 H         1 UNK         0.0600 
    223 H223        0.9782  -22.6810  -52.5312 H         1 UNK         0.0600 
    224 H224        0.9625  -21.0770  -53.2366 H         1 UNK         0.0600 
    225 H225       -2.1205  -22.9230  -55.7400 H         1 UNK         0.3000 
    226 H226       -3.5498  -21.8757  -57.0194 H         1 UNK         0.0600 
    227 H227       -1.6495  -21.8321  -58.6541 H         1 UNK         0.0600 
    228 H228       -2.7632  -20.4967  -58.8904 H         1 UNK         0.0600 
    229 H229       -1.2181  -20.2135  -58.1028 H         1 UNK         0.0600 
    230 H230       -3.1281  -20.8446  -54.3147 H         1 UNK         0.3000 
    231 H231       -3.6715  -17.9567  -54.4501 H         1 UNK         0.0600 
    232 H232       -3.5895  -19.9340  -52.1032 H         1 UNK         0.0600 
    233 H233       -2.2731  -18.8897  -52.6408 H         1 UNK         0.0600 
    234 H234       -3.7275  -18.1855  -51.9632 H         1 UNK         0.0600 
    235 H235       -5.5537  -17.0674  -53.3496 H         1 UNK         0.3000 
    236 H236       -8.0547  -17.9910  -54.2602 H         1 UNK         0.0600 
    237 H237       -7.3646  -15.9908  -52.0384 H         1 UNK         0.0600 
    238 H238       -7.5475  -15.6134  -53.7526 H         1 UNK         0.0600 
    239 H239       -8.9348  -16.1444  -52.8168 H         1 UNK         0.0600 
    240 H240       -6.2918  -18.8626  -51.3952 H         1 UNK         0.3000 
    241 H241       -8.4472  -20.0333  -49.8934 H         1 UNK         0.0600 
    242 H242       -7.5785  -22.7866  -52.7379 H         1 UNK         0.3800 
    243 H243       -6.9598  -21.1633  -52.8990 H         1 UNK         0.3800 
    244 H244       -6.5767  -21.2283  -48.6662 H         1 UNK         0.0800 
    245 H245       -5.4316  -20.5473  -49.7997 H         1 UNK         0.0800 
    246 H246       -4.5068  -20.1318  -47.2776 H         1 UNK         0.0800 
    247 H247       -4.6909  -18.5612  -46.5443 H         1 UNK         0.0800 
@<TRIPOS>BOND
     1    1    2 1    
     2    1  127 1    
     3    1  128 1    
     4    1  129 1    
     5    2    3 2    
     6    2    4 am   BACKBONE|DICT|INTERRES
     7    4    5 1    
     8    4  130 1    
     9    5    6 1    
    10    5   65 1    
    11    5  131 1    
    12    6    7 1    
    13    6  132 1    
    14    6  133 1    
    15    7    8 1    
    16    8    9 1    
    17    8  134 1    
    18    8  135 1    
    19    9   10 ar   
    20    9   14 ar   
    21   10   11 ar   
    22   10  136 1    
    23   11   12 ar   
    24   11  126 1    
    25   12   13 ar   
    26   12  137 1    
    27   13   14 ar   
    28   13   15 1    
    29   14  138 1    
    30   15   16 1    
    31   15  139 1    
    32   15  140 1    
    33   16   17 1    
    34   17   18 1    
    35   17  141 1    
    36   17  142 1    
    37   18   19 1    
    38   18   67 1    
    39   18  143 1    
    40   19   20 am   BACKBONE|DICT|INTERRES
    41   19  144 1    
    42   20   21 2    
    43   20   22 1    
    44   22   23 1    
    45   22   24 1    
    46   22  145 1    
    47   23  146 1    
    48   23  147 1    
    49   23  148 1    
    50   24   25 am   BACKBONE|DICT|INTERRES
    51   24  149 1    
    52   25   26 2    
    53   25   27 1    
    54   27   28 1    
    55   27   29 1    
    56   27  150 1    
    57   28  151 1    
    58   28  152 1    
    59   28  153 1    
    60   29   30 am   BACKBONE|DICT|INTERRES
    61   29  154 1    
    62   30   31 2    
    63   30   32 1    
    64   32   33 1    
    65   32   34 1    
    66   32  155 1    
    67   33  156 1    
    68   33  157 1    
    69   33  158 1    
    70   34   35 am   BACKBONE|DICT|INTERRES
    71   34  159 1    
    72   35   36 2    
    73   35   37 1    
    74   37   38 1    
    75   37   39 1    
    76   37  160 1    
    77   38  161 1    
    78   38  162 1    
    79   38  163 1    
    80   39   40 am   BACKBONE|DICT|INTERRES
    81   39  164 1    
    82   40   41 2    
    83   40   42 1    
    84   42   43 1    
    85   42   44 1    
    86   42  165 1    
    87   43  166 1    
    88   43  167 1    
    89   43  168 1    
    90   44   45 am   BACKBONE|DICT|INTERRES
    91   44  169 1    
    92   45   46 2    
    93   45   47 1    
    94   47   48 1    
    95   47   49 1    
    96   47  170 1    
    97   48  171 1    
    98   48  172 1    
    99   48  173 1    
   100   49   50 am   BACKBONE|DICT|INTERRES
   101   49  174 1    
   102   50   51 2    
   103   50   52 1    
   104   52   53 1    
   105   52   54 1    
   106   52  175 1    
   107   53  176 1    
   108   53  177 1    
   109   53  178 1    
   110   54   55 am   BACKBONE|DICT|INTERRES
   111   54  179 1    
   112   55   56 2    
   113   55   57 1    
   114   57   58 1    
   115   57   59 1    
   116   57  180 1    
   117   58  181 1    
   118   58  182 1    
   119   58  183 1    
   120   59   60 am   BACKBONE|DICT|INTERRES
   121   59  184 1    
   122   60   61 2    
   123   60   62 1    
   124   62   63 1    
   125   62   64 1    
   126   62  185 1    
   127   63  186 1    
   128   63  187 1    
   129   63  188 1    
   130   64   65 am   BACKBONE|DICT|INTERRES
   131   64  189 1    
   132   65   66 2    
   133   67   68 2    
   134   67   69 am   BACKBONE|DICT|INTERRES
   135   69   70 1    
   136   69  190 1    
   137   70   71 1    
   138   70   72 1    
   139   70  191 1    
   140   71  192 1    
   141   71  193 1    
   142   71  194 1    
   143   72   73 2    
   144   72   74 am   BACKBONE|DICT|INTERRES
   145   74   75 1    
   146   74  195 1    
   147   75   76 1    
   148   75   77 1    
   149   75  196 1    
   150   76  197 1    
   151   76  198 1    
   152   76  199 1    
   153   77   78 2    
   154   77   79 am   BACKBONE|DICT|INTERRES
   155   79   80 1    
   156   79  200 1    
   157   80   81 1    
   158   80   82 1    
   159   80  201 1    
   160   81  202 1    
   161   81  203 1    
   162   81  204 1    
   163   82   83 2    
   164   82   84 am   BACKBONE|DICT|INTERRES
   165   84   85 1    
   166   84  205 1    
   167   85   86 1    
   168   85   87 1    
   169   85  206 1    
   170   86  207 1    
   171   86  208 1    
   172   86  209 1    
   173   87   88 2    
   174   87   89 am   BACKBONE|DICT|INTERRES
   175   89   90 1    
   176   89  210 1    
   177   90   91 1    
   178   90   92 1    
   179   90  211 1    
   180   91  212 1    
   181   91  213 1    
   182   91  214 1    
   183   92   93 2    
   184   92   94 am   BACKBONE|DICT|INTERRES
   185   94   95 1    
   186   94  215 1    
   187   95   96 1    
   188   95   97 1    
   189   95  216 1    
   190   96  217 1    
   191   96  218 1    
   192   96  219 1    
   193   97   98 2    
   194   97   99 am   BACKBONE|DICT|INTERRES
   195   99  100 1    
   196   99  220 1    
   197  100  101 1    
   198  100  102 1    
   199  100  221 1    
   200  101  222 1    
   201  101  223 1    
   202  101  224 1    
   203  102  103 2    
   204  102  104 am   BACKBONE|DICT|INTERRES
   205  104  105 1    
   206  104  225 1    
   207  105  106 1    
   208  105  107 1    
   209  105  226 1    
   210  106  227 1    
   211  106  228 1    
   212  106  229 1    
   213  107  108 2    
   214  107  109 am   BACKBONE|DICT|INTERRES
   215  109  110 1    
   216  109  230 1    
   217  110  111 1    
   218  110  112 1    
   219  110  231 1    
   220  111  232 1    
   221  111  233 1    
   222  111  234 1    
   223  112  113 2    
   224  112  114 am   BACKBONE|DICT|INTERRES
   225  114  115 1    
   226  114  235 1    
   227  115  116 1    
   228  115  117 1    
   229  115  236 1    
   230  116  237 1    
   231  116  238 1    
   232  116  239 1    
   233  117  118 2    
   234  117  119 am   BACKBONE|DICT|INTERRES
   235  119  120 1    
   236  119  240 1    
   237  120  121 1    
   238  120  124 1    
   239  120  241 1    
   240  121  122 am   BACKBONE|DICT|INTERRES
   241  121  123 2    
   242  122  242 1    
   243  122  243 1    
   244  124  125 1    
   245  124  244 1    
   246  124  245 1    
   247  125  126 1    
   248  126  246 1    
   249  126  247 1    
@<TRIPOS>SUBSTRUCTURE
     1 UNK         1 GROUP             0       ****    0 ROOT    
