@<TRIPOS>MOLECULE
3R540
247   249    1
SMALL
USER_CHARGES


@<TRIPOS>ATOM
      1 CA         -3.1783  -12.3423  -43.5663 C.3       0 UNK        -0.1800 
      2 C          -2.9842  -11.1785  -44.5279 C.2       0 UNK         0.5000 
      3 O          -2.6627  -10.0715  -44.0964 O.2       0 UNK        -0.5000 
      4 N          -3.1753  -11.4255  -45.8296 N.am      1 UNK        -0.5000 
      5 CA         -2.9893  -10.4467  -46.9104 C.3       1 UNK         0.1400 
      6 C6         -3.8441  -10.8043  -48.1539 C.3       23 UNK        -0.0398 
      7 S7         -3.4189  -12.4080  -48.9258 S.3       23 UNK        -0.2404 
      8 C8         -4.8683  -13.4158  -48.4950 C.3       23 UNK        -0.0205 
      9 C9         -4.7289  -14.8232  -49.0509 C.ar      23 UNK        -0.0193 
     10 C10        -5.2046  -15.1241  -50.3298 C.ar      23 UNK        -0.1150 
     11 C11        -5.0775  -16.4135  -50.8551 C.ar      23 UNK        -0.0193 
     12 C12        -4.4824  -17.4120  -50.0730 C.ar      23 UNK        -0.1150 
     13 C13        -3.9791  -17.1165  -48.8046 C.ar      23 UNK        -0.0193 
     14 C14        -4.1123  -15.8224  -48.2941 C.ar      23 UNK        -0.1150 
     15 C15        -3.2482  -18.1793  -48.0042 C.3       23 UNK        -0.0205 
     16 S16        -4.3893  -19.2846  -47.1192 S.3       23 UNK        -0.2404 
     17 C17        -3.2950  -19.8694  -45.7851 C.3       23 UNK        -0.0398 
     18 CA         -2.4207  -21.0830  -46.1978 C.3       11 UNK         0.1400 
     19 N          -1.0648  -20.9796  -45.6544 N.am      11 UNK        -0.5000 
     20 C          -0.0378  -21.7712  -45.9914 C.2       10 UNK         0.5000 
     21 O          -0.1046  -22.6626  -46.8358 O.2       10 UNK        -0.5000 
     22 CA          1.2714  -21.5581  -45.2154 C.3       10 UNK         0.1400 
     23 CB          2.1303  -20.4898  -45.9012 C.3       10 UNK        -0.1800 
     24 N           1.0372  -21.1952  -43.8147 N.am      10 UNK        -0.5000 
     25 C           0.5420  -22.0513  -42.9079 C.2       9 UNK         0.5000 
     26 O           0.2620  -23.2213  -43.1628 O.2       9 UNK        -0.5000 
     27 CA          0.2617  -21.5132  -41.4943 C.3       9 UNK         0.1400 
     28 CB          1.5306  -21.5808  -40.6319 C.3       9 UNK        -0.1800 
     29 N          -0.2638  -20.1492  -41.4714 N.am      9 UNK        -0.5000 
     30 C          -1.3824  -19.7269  -42.0762 C.2       8 UNK         0.5000 
     31 O          -2.1054  -20.4507  -42.7644 O.2       8 UNK        -0.5000 
     32 CA         -1.7425  -18.2342  -41.9163 C.3       8 UNK         0.1400 
     33 CB         -0.9547  -17.5149  -40.7975 C.3       8 UNK        -0.1800 
     34 N          -1.6097  -17.4867  -43.1712 N.am      8 UNK        -0.5000 
     35 C          -0.5286  -17.4269  -43.9608 C.2       7 UNK         0.5000 
     36 O           0.5046  -18.0755  -43.7760 O.2       7 UNK        -0.5000 
     37 CA         -0.6190  -16.4709  -45.1554 C.3       7 UNK         0.1400 
     38 CB         -0.4959  -15.0053  -44.7046 C.3       7 UNK        -0.1800 
     39 N           0.4458  -16.8020  -46.0942 N.am      7 UNK        -0.5000 
     40 C           0.4627  -16.5070  -47.3983 C.2       6 UNK         0.5000 
     41 O          -0.4470  -15.8992  -47.9626 O.2       6 UNK        -0.5000 
     42 CA          1.7046  -16.9602  -48.1905 C.3       6 UNK         0.1400 
     43 CB          1.9333  -16.1349  -49.4712 C.3       6 UNK        -0.1800 
     44 N           2.9033  -16.9081  -47.3510 N.am      6 UNK        -0.5000 
     45 C           3.9326  -17.7650  -47.4102 C.2       5 UNK         0.5000 
     46 O           3.9825  -18.7114  -48.1961 O.2       5 UNK        -0.5000 
     47 CA          5.1155  -17.5384  -46.4417 C.3       5 UNK         0.1400 
     48 CB          6.2948  -16.8874  -47.1810 C.3       5 UNK        -0.1800 
     49 N           4.7687  -16.7040  -45.2915 N.am      5 UNK        -0.5000 
     50 C           4.0156  -17.0960  -44.2562 C.2       4 UNK         0.5000 
     51 O           3.6848  -18.2655  -44.0721 O.2       4 UNK        -0.5000 
     52 CA          3.5289  -16.0118  -43.2669 C.3       4 UNK         0.1400 
     53 CB          4.1179  -16.2525  -41.8678 C.3       4 UNK        -0.1800 
     54 N           3.7879  -14.6157  -43.6511 N.am      4 UNK        -0.5000 
     55 C           3.3504  -14.0000  -44.7576 C.2       3 UNK         0.5000 
     56 O           2.7610  -14.5808  -45.6716 O.2       3 UNK        -0.5000 
     57 CA          3.6826  -12.4996  -44.8841 C.3       3 UNK         0.1400 
     58 CB          5.1573  -12.3099  -45.2744 C.3       3 UNK        -0.1800 
     59 N           2.8472  -11.8390  -45.8878 N.am      3 UNK        -0.5000 
     60 C           1.5227  -11.6745  -45.7877 C.2       2 UNK         0.5000 
     61 O           0.8774  -11.9214  -44.7642 O.2       2 UNK        -0.5000 
     62 CA          0.8069  -11.1619  -47.0481 C.3       2 UNK         0.1400 
     63 CB          1.0632  -12.0752  -48.2635 C.3       2 UNK        -0.1800 
     64 N          -0.6257  -11.1186  -46.7906 N.am      2 UNK        -0.5000 
     65 C          -1.5014  -10.2375  -47.2832 C.2       1 UNK         0.5000 
     66 O          -1.1844   -9.2986  -48.0156 O.2       1 UNK        -0.5000 
     67 C          -3.0729  -22.4189  -45.7934 C.2       11 UNK         0.5000 
     68 O          -3.6407  -23.1078  -46.6423 O.2       11 UNK        -0.5000 
     69 N          -2.9282  -22.7671  -44.5061 N.am      12 UNK        -0.5000 
     70 CA         -3.3891  -24.0198  -43.9141 C.3       12 UNK         0.1400 
     71 CB         -3.2602  -23.9386  -42.3855 C.3       12 UNK        -0.1800 
     72 C          -2.6443  -25.2478  -44.4666 C.2       12 UNK         0.5000 
     73 O          -3.2933  -26.2297  -44.8258 O.2       12 UNK        -0.5000 
     74 N          -1.3084  -25.1655  -44.5594 N.am      13 UNK        -0.5000 
     75 CA         -0.4409  -26.2249  -45.0847 C.3       13 UNK         0.1400 
     76 CB          1.0314  -25.8492  -44.8607 C.3       13 UNK        -0.1800 
     77 C          -0.6964  -26.5359  -46.5702 C.2       13 UNK         0.5000 
     78 O          -0.6981  -27.7055  -46.9554 O.2       13 UNK        -0.5000 
     79 N          -0.9449  -25.4883  -47.3667 N.am      14 UNK        -0.5000 
     80 CA         -1.3349  -25.5896  -48.7733 C.3       14 UNK         0.1400 
     81 CB         -0.9704  -24.2771  -49.4792 C.3       14 UNK        -0.1800 
     82 C          -2.8304  -25.9107  -48.9706 C.2       14 UNK         0.5000 
     83 O          -3.2512  -26.0913  -50.1119 O.2       14 UNK        -0.5000 
     84 N          -3.6134  -25.9442  -47.8810 N.am      15 UNK        -0.5000 
     85 CA         -5.0546  -26.2171  -47.8183 C.3       15 UNK         0.1400 
     86 CB         -5.3255  -27.7037  -48.1275 C.3       15 UNK        -0.1800 
     87 C          -5.9047  -25.2621  -48.6855 C.2       15 UNK         0.5000 
     88 O          -6.9387  -25.6703  -49.2175 O.2       15 UNK        -0.5000 
     89 N          -5.4345  -24.0127  -48.8267 N.am      16 UNK        -0.5000 
     90 CA         -5.9853  -22.9437  -49.6680 C.3       16 UNK         0.1400 
     91 CB         -7.3258  -22.4443  -49.0915 C.3       16 UNK        -0.1800 
     92 C          -6.0791  -23.3029  -51.1728 C.2       16 UNK         0.5000 
     93 O          -6.9285  -22.7517  -51.8764 O.2       16 UNK        -0.5000 
     94 N          -5.2223  -24.2197  -51.6519 N.am      17 UNK        -0.5000 
     95 CA         -5.2329  -24.7663  -53.0130 C.3       17 UNK         0.1400 
     96 CB         -4.5100  -26.1246  -53.0155 C.3       17 UNK        -0.1800 
     97 C          -4.6584  -23.7967  -54.0681 C.2       17 UNK         0.5000 
     98 O          -3.6416  -24.0945  -54.6991 O.2       17 UNK        -0.5000 
     99 N          -5.3369  -22.6566  -54.2489 N.am      18 UNK        -0.5000 
    100 CA        -5.0542  -21.5988  -55.2224 C.3       18 UNK         0.1400 
    101 CB        -5.3926  -22.0835  -56.6502 C.3       18 UNK        -0.1800 
    102 C         -3.6265  -21.0352  -55.0670 C.2       18 UNK         0.5000 
    103 O         -3.2177  -20.7519  -53.9408 O.2       18 UNK        -0.5000 
    104 N         -2.8875  -20.8876  -56.1756 N.am      19 UNK        -0.5000 
    105 CA        -1.5537  -20.2808  -56.2542 C.3       19 UNK         0.1400 
    106 CB        -1.0710  -20.3270  -57.7115 C.3       19 UNK        -0.1800 
    107 C         -0.4909  -20.8905  -55.3176 C.2       19 UNK         0.5000 
    108 O          0.4287  -20.1769  -54.9155 O.2       19 UNK        -0.5000 
    109 N         -0.6509  -22.1701  -54.9482 N.am      20 UNK        -0.5000 
    110 CA         0.1844  -22.8556  -53.9584 C.3       20 UNK         0.1400 
    111 CB        -0.1705  -24.3504  -53.9426 C.3       20 UNK        -0.1800 
    112 C          0.0559  -22.2614  -52.5410 C.2       20 UNK         0.5000 
    113 O          1.0157  -22.3232  -51.7726 O.2       20 UNK        -0.5000 
    114 N         -1.1161  -21.6934  -52.2315 N.am      21 UNK        -0.5000 
    115 CA        -1.4041  -20.9889  -50.9887 C.3       21 UNK         0.1400 
    116 CB        -2.8402  -21.3249  -50.5534 C.3       21 UNK        -0.1800 
    117 C         -1.2372  -19.4737  -51.1797 C.2       21 UNK         0.5000 
    118 O         -0.5810  -18.8309  -50.3608 O.2       21 UNK        -0.5000 
    119 N         -1.8507  -18.9355  -52.2429 N.am      22 UNK        -0.5000 
    120 CA        -1.9389  -17.4923  -52.5197 C.3       22 UNK         0.1400 
    121 C         -0.6069  -16.8276  -52.9729 C.2       22 UNK         0.5000 
    122 N          0.3806  -17.5680  -53.4623 N.am      22 UNK        -0.7600 
    123 O         -0.4682  -15.6113  -52.8831 O.2       22 UNK        -0.5000 
    124 C124       -3.0800  -17.1434  -53.5175 C.3       23 UNK        -0.0398 
    125 S125       -4.6817  -17.9628  -53.1828 S.3       23 UNK        -0.2404 
    126 C126       -5.6120  -16.6973  -52.2566 C.3       23 UNK        -0.0205 
    127 H127       -2.2504  -12.5424  -43.0303 H         1 UNK         0.0600 
    128 H128       -3.4752  -13.2535  -44.0863 H         1 UNK         0.0600 
    129 H129       -3.9503  -12.1011  -42.8357 H         1 UNK         0.0600 
    130 H130       -3.4287  -12.3554  -46.1301 H         1 UNK         0.3000 
    131 H131       -3.3475   -9.4800  -46.5496 H         1 UNK         0.0600 
    132 H132       -3.7442  -10.0277  -48.9142 H         1 UNK         0.0800 
    133 H133       -4.9002  -10.8017  -47.8808 H         1 UNK         0.0800 
    134 H134       -4.9869  -13.4508  -47.4113 H         1 UNK         0.0800 
    135 H135       -5.7701  -12.9459  -48.8910 H         1 UNK         0.0800 
    136 H136       -5.6711  -14.3473  -50.9195 H         1 UNK         0.1150 
    137 H137       -4.3827  -18.4173  -50.4565 H         1 UNK         0.1150 
    138 H138       -3.7188  -15.5874  -47.3152 H         1 UNK         0.1150 
    139 H139       -2.6160  -18.7709  -48.6632 H         1 UNK         0.0800 
    140 H140       -2.5690  -17.6953  -47.3067 H         1 UNK         0.0800 
    141 H141       -3.9082  -20.0866  -44.9080 H         1 UNK         0.0800 
    142 H142       -2.6702  -19.0324  -45.4760 H         1 UNK         0.0800 
    143 H143       -2.3117  -21.0908  -47.2840 H         1 UNK         0.0600 
    144 H144       -0.9305  -20.3347  -44.8890 H         1 UNK         0.3000 
    145 H145        1.8256  -22.4986  -45.2391 H         1 UNK         0.0600 
    146 H146        2.2691  -20.7162  -46.9593 H         1 UNK         0.0600 
    147 H147        1.6777  -19.5010  -45.8340 H         1 UNK         0.0600 
    148 H148        3.1216  -20.4399  -45.4520 H         1 UNK         0.0600 
    149 H149        1.2051  -20.2305  -43.5519 H         1 UNK         0.3000 
    150 H150       -0.4926  -22.1603  -41.0421 H         1 UNK         0.0600 
    151 H151        1.9364  -22.5932  -40.6127 H         1 UNK         0.0600 
    152 H152        1.3229  -21.2961  -39.6002 H         1 UNK         0.0600 
    153 H153        2.3114  -20.9209  -41.0126 H         1 UNK         0.0600 
    154 H154        0.2828  -19.4687  -40.9647 H         1 UNK         0.3000 
    155 H155       -2.7990  -18.2073  -41.6454 H         1 UNK         0.0600 
    156 H156        0.1112  -17.4468  -41.0194 H         1 UNK         0.0600 
    157 H157       -1.3230  -16.4984  -40.6586 H         1 UNK         0.0600 
    158 H158       -1.0678  -18.0269  -39.8409 H         1 UNK         0.0600 
    159 H159       -2.4185  -16.9370  -43.4243 H         1 UNK         0.3000 
    160 H160       -1.5867  -16.6146  -45.6349 H         1 UNK         0.0600 
    161 H161        0.4437  -14.8231  -44.1830 H         1 UNK         0.0600 
    162 H162       -1.3033  -14.7323  -44.0255 H         1 UNK         0.0600 
    163 H163       -0.5422  -14.3228  -45.5534 H         1 UNK         0.0600 
    164 H164        1.2057  -17.3317  -45.6861 H         1 UNK         0.3000 
    165 H165        1.5103  -17.9947  -48.4812 H         1 UNK         0.0600 
    166 H166        2.7960  -16.5001  -50.0282 H         1 UNK         0.0600 
    167 H167        1.0713  -16.1975  -50.1372 H         1 UNK         0.0600 
    168 H168        2.1005  -15.0820  -49.2420 H         1 UNK         0.0600 
    169 H169        2.9308  -16.1354  -46.6871 H         1 UNK         0.3000 
    170 H170        5.4360  -18.5170  -46.0781 H         1 UNK         0.0600 
    171 H171        6.6068  -17.4954  -48.0313 H         1 UNK         0.0600 
    172 H172        6.0340  -15.8992  -47.5622 H         1 UNK         0.0600 
    173 H173        7.1596  -16.7785  -46.5263 H         1 UNK         0.0600 
    174 H174        4.9889  -15.7223  -45.3649 H         1 UNK         0.3000 
    175 H175        2.4456  -16.1270  -43.1978 H         1 UNK         0.0600 
    176 H176        5.2011  -16.1257  -41.8621 H         1 UNK         0.0600 
    177 H177        3.6934  -15.5648  -41.1362 H         1 UNK         0.0600 
    178 H178        3.9034  -17.2637  -41.5190 H         1 UNK         0.0600 
    179 H179        4.2980  -14.0683  -42.9728 H         1 UNK         0.3000 
    180 H180        3.5044  -12.0224  -43.9182 H         1 UNK         0.0600 
    181 H181        5.3834  -12.7782  -46.2335 H         1 UNK         0.0600 
    182 H182        5.8236  -12.7482  -44.5304 H         1 UNK         0.0600 
    183 H183        5.4121  -11.2525  -45.3497 H         1 UNK         0.0600 
    184 H184        3.2944  -11.6324  -46.7684 H         1 UNK         0.3000 
    185 H185        1.1780  -10.1566  -47.2568 H         1 UNK         0.0600 
    186 H186        2.1170  -12.0878  -48.5423 H         1 UNK         0.0600 
    187 H187        0.7642  -13.1045  -48.0581 H         1 UNK         0.0600 
    188 H188        0.5054  -11.7363  -49.1367 H         1 UNK         0.0600 
    189 H189       -0.9505  -11.8007  -46.1189 H         1 UNK         0.3000 
    190 H190       -2.4675  -22.1133  -43.8813 H         1 UNK         0.3000 
    191 H191       -4.4470  -24.1340  -44.1598 H         1 UNK         0.0600 
    192 H192       -2.2242  -23.8056  -42.0732 H         1 UNK         0.0600 
    193 H193       -3.6313  -24.8493  -41.9138 H         1 UNK         0.0600 
    194 H194       -3.8383  -23.1054  -41.9853 H         1 UNK         0.0600 
    195 H195       -0.8382  -24.3421  -44.1913 H         1 UNK         0.3000 
    196 H196       -0.6484  -27.1343  -44.5171 H         1 UNK         0.0600 
    197 H197        1.6962  -26.6273  -45.2379 H         1 UNK         0.0600 
    198 H198        1.2492  -25.7234  -43.8001 H         1 UNK         0.0600 
    199 H199        1.2899  -24.9202  -45.3695 H         1 UNK         0.0600 
    200 H200       -0.8698  -24.5493  -46.9879 H         1 UNK         0.3000 
    201 H201       -0.7669  -26.3945  -49.2440 H         1 UNK         0.0600 
    202 H202        0.1003  -24.0803  -49.4220 H         1 UNK         0.0600 
    203 H203       -1.4879  -23.4319  -49.0261 H         1 UNK         0.0600 
    204 H204       -1.2381  -24.3059  -50.5362 H         1 UNK         0.0600 
    205 H205       -3.1784  -25.7612  -46.9859 H         1 UNK         0.3000 
    206 H206       -5.3540  -26.0326  -46.7858 H         1 UNK         0.0600 
    207 H207       -6.3715  -27.9577  -47.9527 H         1 UNK         0.0600 
    208 H208       -5.0973  -27.9474  -49.1657 H         1 UNK         0.0600 
    209 H209       -4.7250  -28.3530  -47.4903 H         1 UNK         0.0600 
    210 H210       -4.6130  -23.7662  -48.2817 H         1 UNK         0.3000 
    211 H211       -5.2849  -22.1132  -49.5961 H         1 UNK         0.0600 
    212 H212       -8.1094  -23.1975  -49.1772 H         1 UNK         0.0600 
    213 H213       -7.6703  -21.5519  -49.6153 H         1 UNK         0.0600 
    214 H214       -7.2265  -22.1800  -48.0386 H         1 UNK         0.0600 
    215 H215       -4.5600  -24.6473  -51.0144 H         1 UNK         0.3000 
    216 H216       -6.2713  -24.9572  -53.2917 H         1 UNK         0.0600 
    217 H217       -3.4521  -26.0174  -52.7726 H         1 UNK         0.0600 
    218 H218       -4.5740  -26.5999  -53.9950 H         1 UNK         0.0600 
    219 H219       -4.9531  -26.8099  -52.2926 H         1 UNK         0.0600 
    220 H220       -6.1077  -22.4807  -53.6105 H         1 UNK         0.3000 
    221 H221       -5.7279  -20.7752  -54.9821 H         1 UNK         0.0600 
    222 H222       -4.7316  -22.8869  -56.9779 H         1 UNK         0.0600 
    223 H223       -6.4147  -22.4593  -56.6998 H         1 UNK         0.0600 
    224 H224       -5.3203  -21.2709  -57.3741 H         1 UNK         0.0600 
    225 H225       -3.2943  -21.1753  -57.0536 H         1 UNK         0.3000 
    226 H226       -1.6631  -19.2333  -55.9667 H         1 UNK         0.0600 
    227 H227       -1.7550  -19.7937  -58.3720 H         1 UNK         0.0600 
    228 H228       -0.0915  -19.8580  -57.8150 H         1 UNK         0.0600 
    229 H229       -0.9841  -21.3525  -58.0728 H         1 UNK         0.0600 
    230 H230       -1.4543  -22.6772  -55.2945 H         1 UNK         0.3000 
    231 H231        1.2262  -22.7531  -54.2688 H         1 UNK         0.0600 
    232 H232        0.4801  -24.8976  -53.2593 H         1 UNK         0.0600 
    233 H233       -0.0544  -24.7966  -54.9303 H         1 UNK         0.0600 
    234 H234       -1.1979  -24.5164  -53.6165 H         1 UNK         0.0600 
    235 H235       -1.8332  -21.6344  -52.9484 H         1 UNK         0.3000 
    236 H236       -0.7220  -21.3160  -50.2010 H         1 UNK         0.0600 
    237 H237       -3.5828  -20.9268  -51.2461 H         1 UNK         0.0600 
    238 H238       -2.9934  -22.4017  -50.4977 H         1 UNK         0.0600 
    239 H239       -3.0577  -20.9130  -49.5691 H         1 UNK         0.0600 
    240 H240       -2.3886  -19.5404  -52.8594 H         1 UNK         0.3000 
    241 H241       -2.1880  -17.0118  -51.5723 H         1 UNK         0.0600 
    242 H242        0.2751  -18.5643  -53.6088 H         1 UNK         0.3800 
    243 H243        1.2347  -17.1172  -53.7477 H         1 UNK         0.3800 
    244 H244       -3.2367  -16.0638  -53.5481 H         1 UNK         0.0800 
    245 H245       -2.7866  -17.4313  -54.5282 H         1 UNK         0.0800 
    246 H246       -6.6459  -17.0314  -52.1635 H         1 UNK         0.0800 
    247 H247       -5.6363  -15.7815  -52.8493 H         1 UNK         0.0800 
@<TRIPOS>BOND
     1    1    2 1    
     2    1  127 1    
     3    1  128 1    
     4    1  129 1    
     5    2    3 2    
     6    2    4 am   BACKBONE|DICT|INTERRES
     7    4    5 1    
     8    4  130 1    
     9    5    6 1    
    10    5   65 1    
    11    5  131 1    
    12    6    7 1    
    13    6  132 1    
    14    6  133 1    
    15    7    8 1    
    16    8    9 1    
    17    8  134 1    
    18    8  135 1    
    19    9   10 ar   
    20    9   14 ar   
    21   10   11 ar   
    22   10  136 1    
    23   11   12 ar   
    24   11  126 1    
    25   12   13 ar   
    26   12  137 1    
    27   13   14 ar   
    28   13   15 1    
    29   14  138 1    
    30   15   16 1    
    31   15  139 1    
    32   15  140 1    
    33   16   17 1    
    34   17   18 1    
    35   17  141 1    
    36   17  142 1    
    37   18   19 1    
    38   18   67 1    
    39   18  143 1    
    40   19   20 am   BACKBONE|DICT|INTERRES
    41   19  144 1    
    42   20   21 2    
    43   20   22 1    
    44   22   23 1    
    45   22   24 1    
    46   22  145 1    
    47   23  146 1    
    48   23  147 1    
    49   23  148 1    
    50   24   25 am   BACKBONE|DICT|INTERRES
    51   24  149 1    
    52   25   26 2    
    53   25   27 1    
    54   27   28 1    
    55   27   29 1    
    56   27  150 1    
    57   28  151 1    
    58   28  152 1    
    59   28  153 1    
    60   29   30 am   BACKBONE|DICT|INTERRES
    61   29  154 1    
    62   30   31 2    
    63   30   32 1    
    64   32   33 1    
    65   32   34 1    
    66   32  155 1    
    67   33  156 1    
    68   33  157 1    
    69   33  158 1    
    70   34   35 am   BACKBONE|DICT|INTERRES
    71   34  159 1    
    72   35   36 2    
    73   35   37 1    
    74   37   38 1    
    75   37   39 1    
    76   37  160 1    
    77   38  161 1    
    78   38  162 1    
    79   38  163 1    
    80   39   40 am   BACKBONE|DICT|INTERRES
    81   39  164 1    
    82   40   41 2    
    83   40   42 1    
    84   42   43 1    
    85   42   44 1    
    86   42  165 1    
    87   43  166 1    
    88   43  167 1    
    89   43  168 1    
    90   44   45 am   BACKBONE|DICT|INTERRES
    91   44  169 1    
    92   45   46 2    
    93   45   47 1    
    94   47   48 1    
    95   47   49 1    
    96   47  170 1    
    97   48  171 1    
    98   48  172 1    
    99   48  173 1    
   100   49   50 am   BACKBONE|DICT|INTERRES
   101   49  174 1    
   102   50   51 2    
   103   50   52 1    
   104   52   53 1    
   105   52   54 1    
   106   52  175 1    
   107   53  176 1    
   108   53  177 1    
   109   53  178 1    
   110   54   55 am   BACKBONE|DICT|INTERRES
   111   54  179 1    
   112   55   56 2    
   113   55   57 1    
   114   57   58 1    
   115   57   59 1    
   116   57  180 1    
   117   58  181 1    
   118   58  182 1    
   119   58  183 1    
   120   59   60 am   BACKBONE|DICT|INTERRES
   121   59  184 1    
   122   60   61 2    
   123   60   62 1    
   124   62   63 1    
   125   62   64 1    
   126   62  185 1    
   127   63  186 1    
   128   63  187 1    
   129   63  188 1    
   130   64   65 am   BACKBONE|DICT|INTERRES
   131   64  189 1    
   132   65   66 2    
   133   67   68 2    
   134   67   69 am   BACKBONE|DICT|INTERRES
   135   69   70 1    
   136   69  190 1    
   137   70   71 1    
   138   70   72 1    
   139   70  191 1    
   140   71  192 1    
   141   71  193 1    
   142   71  194 1    
   143   72   73 2    
   144   72   74 am   BACKBONE|DICT|INTERRES
   145   74   75 1    
   146   74  195 1    
   147   75   76 1    
   148   75   77 1    
   149   75  196 1    
   150   76  197 1    
   151   76  198 1    
   152   76  199 1    
   153   77   78 2    
   154   77   79 am   BACKBONE|DICT|INTERRES
   155   79   80 1    
   156   79  200 1    
   157   80   81 1    
   158   80   82 1    
   159   80  201 1    
   160   81  202 1    
   161   81  203 1    
   162   81  204 1    
   163   82   83 2    
   164   82   84 am   BACKBONE|DICT|INTERRES
   165   84   85 1    
   166   84  205 1    
   167   85   86 1    
   168   85   87 1    
   169   85  206 1    
   170   86  207 1    
   171   86  208 1    
   172   86  209 1    
   173   87   88 2    
   174   87   89 am   BACKBONE|DICT|INTERRES
   175   89   90 1    
   176   89  210 1    
   177   90   91 1    
   178   90   92 1    
   179   90  211 1    
   180   91  212 1    
   181   91  213 1    
   182   91  214 1    
   183   92   93 2    
   184   92   94 am   BACKBONE|DICT|INTERRES
   185   94   95 1    
   186   94  215 1    
   187   95   96 1    
   188   95   97 1    
   189   95  216 1    
   190   96  217 1    
   191   96  218 1    
   192   96  219 1    
   193   97   98 2    
   194   97   99 am   BACKBONE|DICT|INTERRES
   195   99  100 1    
   196   99  220 1    
   197  100  101 1    
   198  100  102 1    
   199  100  221 1    
   200  101  222 1    
   201  101  223 1    
   202  101  224 1    
   203  102  103 2    
   204  102  104 am   BACKBONE|DICT|INTERRES
   205  104  105 1    
   206  104  225 1    
   207  105  106 1    
   208  105  107 1    
   209  105  226 1    
   210  106  227 1    
   211  106  228 1    
   212  106  229 1    
   213  107  108 2    
   214  107  109 am   BACKBONE|DICT|INTERRES
   215  109  110 1    
   216  109  230 1    
   217  110  111 1    
   218  110  112 1    
   219  110  231 1    
   220  111  232 1    
   221  111  233 1    
   222  111  234 1    
   223  112  113 2    
   224  112  114 am   BACKBONE|DICT|INTERRES
   225  114  115 1    
   226  114  235 1    
   227  115  116 1    
   228  115  117 1    
   229  115  236 1    
   230  116  237 1    
   231  116  238 1    
   232  116  239 1    
   233  117  118 2    
   234  117  119 am   BACKBONE|DICT|INTERRES
   235  119  120 1    
   236  119  240 1    
   237  120  121 1    
   238  120  124 1    
   239  120  241 1    
   240  121  122 am   BACKBONE|DICT|INTERRES
   241  121  123 2    
   242  122  242 1    
   243  122  243 1    
   244  124  125 1    
   245  124  244 1    
   246  124  245 1    
   247  125  126 1    
   248  126  246 1    
   249  126  247 1    
@<TRIPOS>SUBSTRUCTURE
     1 UNK         1 GROUP             0       ****    0 ROOT    
