@<TRIPOS>MOLECULE
3R540
247   249    1
SMALL
USER_CHARGES


@<TRIPOS>ATOM
      1 CA          3.3021  -15.7065  -47.0381 C.3       0 UNK        -0.1800 
      2 C           3.3837  -14.4113  -46.2458 C.2       0 UNK         0.5000 
      3 O           4.2067  -14.2966  -45.3397 O.2       0 UNK        -0.5000 
      4 N           2.5421  -13.4309  -46.5998 N.am      1 UNK        -0.5000 
      5 CA          2.3607  -12.1377  -45.9182 C.3       1 UNK         0.1400 
      6 C6          1.2798  -11.2667  -46.6082 C.3       23 UNK        -0.0398 
      7 S7         -0.3084  -12.1381  -46.8419 S.3       23 UNK        -0.2404 
      8 C8         -0.2949  -12.5076  -48.6265 C.3       23 UNK        -0.0205 
      9 C9         -0.6602  -13.9590  -48.9017 C.ar      23 UNK        -0.0193 
     10 C10        -1.9879  -14.3800  -48.7917 C.ar      23 UNK        -0.1150 
     11 C11        -2.3389  -15.7001  -49.0835 C.ar      23 UNK        -0.0193 
     12 C12        -1.3529  -16.6019  -49.4899 C.ar      23 UNK        -0.1150 
     13 C13        -0.0128  -16.2043  -49.5829 C.ar      23 UNK        -0.0193 
     14 C14         0.3204  -14.8767  -49.2924 C.ar      23 UNK        -0.1150 
     15 C15         1.0978  -17.1625  -50.0201 C.3       23 UNK        -0.0205 
     16 S16         0.7651  -18.9414  -49.7644 S.3       23 UNK        -0.2404 
     17 C17         0.5599  -19.0303  -47.9526 C.3       23 UNK        -0.0398 
     18 CA         -0.1784  -20.3081  -47.4820 C.3       11 UNK         0.1400 
     19 N          -0.0111  -20.5108  -46.0410 N.am      11 UNK        -0.5000 
     20 C          -0.3476  -21.6201  -45.3699 C.2       10 UNK         0.5000 
     21 O          -0.8124  -22.6266  -45.9033 O.2       10 UNK        -0.5000 
     22 CA         -0.1842  -21.5784  -43.8387 C.3       10 UNK         0.1400 
     23 CB          1.2778  -21.8179  -43.4340 C.3       10 UNK        -0.1800 
     24 N          -0.6589  -20.3200  -43.2596 N.am      10 UNK        -0.5000 
     25 C          -1.9344  -19.9084  -43.2975 C.2       9 UNK         0.5000 
     26 O          -2.8511  -20.5780  -43.7714 O.2       9 UNK        -0.5000 
     27 CA         -2.2314  -18.4931  -42.7706 C.3       9 UNK         0.1400 
     28 CB         -2.3386  -18.4862  -41.2387 C.3       9 UNK        -0.1800 
     29 N          -1.2387  -17.5094  -43.2041 N.am      9 UNK        -0.5000 
     30 C          -1.0066  -17.1766  -44.4822 C.2       8 UNK         0.5000 
     31 O          -1.6332  -17.6384  -45.4337 O.2       8 UNK        -0.5000 
     32 CA          0.1541  -16.2036  -44.7466 C.3       8 UNK         0.1400 
     33 CB         -0.2758  -14.7654  -44.4368 C.3       8 UNK        -0.1800 
     34 N           1.3542  -16.5438  -43.9797 N.am      8 UNK        -0.5000 
     35 C           2.0277  -17.6977  -44.0966 C.2       7 UNK         0.5000 
     36 O           1.7579  -18.5618  -44.9288 O.2       7 UNK        -0.5000 
     37 CA          3.1448  -17.9652  -43.0738 C.3       7 UNK         0.1400 
     38 CB          4.4699  -17.3181  -43.4990 C.3       7 UNK        -0.1800 
     39 N           2.7735  -17.5060  -41.7367 N.am      7 UNK        -0.5000 
     40 C           1.8395  -18.0909  -40.9733 C.2       6 UNK         0.5000 
     41 O           1.2332  -19.1116  -41.2984 O.2       6 UNK        -0.5000 
     42 CA          1.4986  -17.3908  -39.6446 C.3       6 UNK         0.1400 
     43 CB          2.4827  -17.8119  -38.5433 C.3       6 UNK        -0.1800 
     44 N           1.5042  -15.9317  -39.7674 N.am      6 UNK        -0.5000 
     45 C           0.6177  -15.2293  -40.4879 C.2       5 UNK         0.5000 
     46 O          -0.3417  -15.7383  -41.0654 O.2       5 UNK        -0.5000 
     47 CA          0.8782  -13.7156  -40.6285 C.3       5 UNK         0.1400 
     48 CB          0.1951  -12.9419  -39.4916 C.3       5 UNK        -0.1800 
     49 N           2.3075  -13.3874  -40.6523 N.am      5 UNK        -0.5000 
     50 C           3.1501  -13.7696  -41.6207 C.2       4 UNK         0.5000 
     51 O           2.7927  -14.3808  -42.6285 O.2       4 UNK        -0.5000 
     52 CA          4.6401  -13.5136  -41.3626 C.3       4 UNK         0.1400 
     53 CB          5.1737  -14.5703  -40.3701 C.3       4 UNK        -0.1800 
     54 N           5.3959  -13.5669  -42.6143 N.am      4 UNK        -0.5000 
     55 C           6.6817  -13.2085  -42.7404 C.2       3 UNK         0.5000 
     56 O           7.3495  -12.7246  -41.8250 O.2       3 UNK        -0.5000 
     57 CA          7.3389  -13.4110  -44.1133 C.3       3 UNK         0.1400 
     58 CB          7.4563  -14.9032  -44.4673 C.3       3 UNK        -0.1800 
     59 N           6.5907  -12.7114  -45.1519 N.am      3 UNK        -0.5000 
     60 C           6.8526  -11.4647  -45.5686 C.2       2 UNK         0.5000 
     61 O           7.7877  -10.7849  -45.1432 O.2       2 UNK        -0.5000 
     62 CA          5.9291  -10.8685  -46.6505 C.3       2 UNK         0.1400 
     63 CB          6.5739  -11.0015  -48.0389 C.3       2 UNK        -0.1800 
     64 N           4.6034  -11.4849  -46.6862 N.am      2 UNK        -0.5000 
     65 C           3.6573  -11.3159  -45.7525 C.2       1 UNK         0.5000 
     66 O           3.7777  -10.5601  -44.7876 O.2       1 UNK        -0.5000 
     67 C          -1.6661  -20.3310  -47.9086 C.2       11 UNK         0.5000 
     68 O          -1.9795  -20.8749  -48.9658 O.2       11 UNK        -0.5000 
     69 N          -2.5572  -19.7763  -47.0744 N.am      12 UNK        -0.5000 
     70 CA         -4.0078  -19.8152  -47.2642 C.3       12 UNK         0.1400 
     71 CB         -4.6736  -18.7864  -46.3360 C.3       12 UNK        -0.1800 
     72 C          -4.6098  -21.2143  -47.0344 C.2       12 UNK         0.5000 
     73 O          -5.5537  -21.5832  -47.7338 O.2       12 UNK        -0.5000 
     74 N          -4.0746  -21.9549  -46.0531 N.am      13 UNK        -0.5000 
     75 CA         -4.4899  -23.3186  -45.7202 C.3       13 UNK         0.1400 
     76 CB         -3.9358  -23.7019  -44.3393 C.3       13 UNK        -0.1800 
     77 C          -4.0630  -24.3459  -46.7846 C.2       13 UNK         0.5000 
     78 O          -4.8351  -25.2544  -47.0958 O.2       13 UNK        -0.5000 
     79 N          -2.8486  -24.1824  -47.3245 N.am      14 UNK        -0.5000 
     80 CA         -2.3224  -24.9504  -48.4520 C.3       14 UNK         0.1400 
     81 CB         -0.8180  -24.6640  -48.5813 C.3       14 UNK        -0.1800 
     82 C          -3.0494  -24.6091  -49.7673 C.2       14 UNK         0.5000 
     83 O          -3.5637  -23.5009  -49.9192 O.2       14 UNK        -0.5000 
     84 N          -3.0520  -25.5555  -50.7101 N.am      15 UNK        -0.5000 
     85 CA         -3.6192  -25.3987  -52.0451 C.3       15 UNK         0.1400 
     86 CB         -5.1480  -25.5821  -51.9982 C.3       15 UNK        -0.1800 
     87 C          -2.9732  -26.4268  -52.9805 C.2       15 UNK         0.5000 
     88 O          -2.5420  -27.4898  -52.5252 O.2       15 UNK        -0.5000 
     89 N          -2.9561  -26.1091  -54.2763 N.am      16 UNK        -0.5000 
     90 CA         -2.4941  -26.9692  -55.3597 C.3       16 UNK         0.1400 
     91 CB         -1.7985  -26.0940  -56.4185 C.3       16 UNK        -0.1800 
     92 C          -3.7010  -27.7365  -55.9261 C.2       16 UNK         0.5000 
     93 O          -4.1713  -27.4258  -57.0210 O.2       16 UNK        -0.5000 
     94 N          -4.2069  -28.6937  -55.1340 N.am      17 UNK        -0.5000 
     95 CA         -5.3925  -29.5204  -55.3944 C.3       17 UNK         0.1400 
     96 CB         -5.1623  -30.4539  -56.6022 C.3       17 UNK        -0.1800 
     97 C          -6.6761  -28.6711  -55.5133 C.2       17 UNK         0.5000 
     98 O          -7.3769  -28.7331  -56.5252 O.2       17 UNK        -0.5000 
     99 N          -6.9388  -27.8816  -54.4602 N.am      18 UNK        -0.5000 
    100 CA        -8.0744  -26.9616  -54.3007 C.3       18 UNK         0.1400 
    101 CB        -9.4144  -27.7279  -54.2776 C.3       18 UNK        -0.1800 
    102 C         -8.0622  -25.7879  -55.3057 C.2       18 UNK         0.5000 
    103 O         -9.1204  -25.3200  -55.7303 O.2       18 UNK        -0.5000 
    104 N         -6.8587  -25.3183  -55.6465 N.am      19 UNK        -0.5000 
    105 CA        -6.5908  -24.1565  -56.4865 C.3       19 UNK         0.1400 
    106 CB        -6.4406  -24.6079  -57.9493 C.3       19 UNK        -0.1800 
    107 C         -5.3138  -23.4699  -55.9785 C.2       19 UNK         0.5000 
    108 O         -4.5832  -24.0593  -55.1776 O.2       19 UNK        -0.5000 
    109 N         -5.0636  -22.2433  -56.4576 N.am      20 UNK        -0.5000 
    110 CA        -3.9030  -21.4002  -56.1344 C.3       20 UNK         0.1400 
    111 CB        -2.6080  -22.0184  -56.7043 C.3       20 UNK        -0.1800 
    112 C         -3.8004  -21.0690  -54.6284 C.2       20 UNK         0.5000 
    113 O         -2.7167  -21.1384  -54.0458 O.2       20 UNK        -0.5000 
    114 N         -4.9448  -20.7249  -54.0290 N.am      21 UNK        -0.5000 
    115 CA        -5.1010  -20.3829  -52.6193 C.3       21 UNK         0.1400 
    116 CB        -5.5878  -21.6270  -51.8590 C.3       21 UNK        -0.1800 
    117 C         -6.1130  -19.2356  -52.4921 C.2       21 UNK         0.5000 
    118 O         -6.9141  -19.0211  -53.4068 O.2       21 UNK        -0.5000 
    119 N         -6.0718  -18.5318  -51.3553 N.am      22 UNK        -0.5000 
    120 CA        -6.9729  -17.4075  -51.0395 C.3       22 UNK         0.1400 
    121 C         -8.4234  -17.8243  -50.6506 C.2       22 UNK         0.5000 
    122 N         -8.7137  -19.0977  -50.4124 N.am      22 UNK        -0.7600 
    123 O         -9.3054  -16.9737  -50.5694 O.2       22 UNK        -0.5000 
    124 C124       -6.3747  -16.4609  -49.9664 C.3       23 UNK        -0.0398 
    125 S125       -4.7476  -15.7788  -50.4389 S.3       23 UNK        -0.2404 
    126 C126       -3.7802  -16.1583  -48.9485 C.3       23 UNK        -0.0205 
    127 H127        2.2699  -15.9460  -47.2895 H         1 UNK         0.0600 
    128 H128        3.7047  -16.5359  -46.4576 H         1 UNK         0.0600 
    129 H129        3.8777  -15.6234  -47.9596 H         1 UNK         0.0600 
    130 H130        1.8812  -13.6051  -47.3417 H         1 UNK         0.3000 
    131 H131        2.0181  -12.3641  -44.9071 H         1 UNK         0.0600 
    132 H132        1.0740  -10.3828  -46.0016 H         1 UNK         0.0800 
    133 H133        1.6376  -10.8879  -47.5670 H         1 UNK         0.0800 
    134 H134        0.6777  -12.2810  -49.0647 H         1 UNK         0.0800 
    135 H135       -1.0088  -11.8519  -49.1272 H         1 UNK         0.0800 
    136 H136       -2.7498  -13.6768  -48.4854 H         1 UNK         0.1150 
    137 H137       -1.6389  -17.6163  -49.7273 H         1 UNK         0.1150 
    138 H138        1.3476  -14.5543  -49.3881 H         1 UNK         0.1150 
    139 H139        1.2856  -17.0010  -51.0821 H         1 UNK         0.0800 
    140 H140        2.0268  -16.9158  -49.5052 H         1 UNK         0.0800 
    141 H141        0.0529  -18.1394  -47.5809 H         1 UNK         0.0800 
    142 H142        1.5627  -19.0041  -47.5251 H         1 UNK         0.0800 
    143 H143        0.3013  -21.1616  -47.9663 H         1 UNK         0.0600 
    144 H144        0.4163  -19.7440  -45.5277 H         1 UNK         0.3000 
    145 H145       -0.7868  -22.3861  -43.4185 H         1 UNK         0.0600 
    146 H146        1.3863  -21.8477  -42.3496 H         1 UNK         0.0600 
    147 H147        1.6389  -22.7701  -43.8243 H         1 UNK         0.0600 
    148 H148        1.9362  -21.0368  -43.8137 H         1 UNK         0.0600 
    149 H149        0.0330  -19.7338  -42.8039 H         1 UNK         0.3000 
    150 H150       -3.1972  -18.1861  -43.1772 H         1 UNK         0.0600 
    151 H151       -3.0987  -19.1904  -40.8982 H         1 UNK         0.0600 
    152 H152       -2.6189  -17.5001  -40.8681 H         1 UNK         0.0600 
    153 H153       -1.3974  -18.7654  -40.7657 H         1 UNK         0.0600 
    154 H154       -0.7180  -17.0339  -42.4731 H         1 UNK         0.3000 
    155 H155        0.4068  -16.2619  -45.8067 H         1 UNK         0.0600 
    156 H156       -0.6274  -14.6524  -43.4127 H         1 UNK         0.0600 
    157 H157       -1.0901  -14.4588  -45.0939 H         1 UNK         0.0600 
    158 H158        0.5468  -14.0696  -44.5826 H         1 UNK         0.0600 
    159 H159        1.6928  -15.8484  -43.3217 H         1 UNK         0.3000 
    160 H160        3.3014  -19.0451  -43.0309 H         1 UNK         0.0600 
    161 H161        4.3938  -16.2334  -43.5413 H         1 UNK         0.0600 
    162 H162        4.7744  -17.6641  -44.4873 H         1 UNK         0.0600 
    163 H163        5.2725  -17.5687  -42.8055 H         1 UNK         0.0600 
    164 H164        3.1877  -16.6426  -41.4224 H         1 UNK         0.3000 
    165 H165        0.4961  -17.7060  -39.3477 H         1 UNK         0.0600 
    166 H166        2.2076  -17.3776  -37.5820 H         1 UNK         0.0600 
    167 H167        2.4881  -18.8957  -38.4194 H         1 UNK         0.0600 
    168 H168        3.5033  -17.5024  -38.7725 H         1 UNK         0.0600 
    169 H169        2.2528  -15.4365  -39.3072 H         1 UNK         0.3000 
    170 H170        0.4410  -13.3896  -41.5744 H         1 UNK         0.0600 
    171 H171       -0.8751  -13.1520  -39.4655 H         1 UNK         0.0600 
    172 H172        0.6060  -13.2088  -38.5171 H         1 UNK         0.0600 
    173 H173        0.3104  -11.8658  -39.6222 H         1 UNK         0.0600 
    174 H174        2.6696  -12.8923  -39.8499 H         1 UNK         0.3000 
    175 H175        4.7449  -12.5156  -40.9322 H         1 UNK         0.0600 
    176 H176        5.1481  -15.5722  -40.8001 H         1 UNK         0.0600 
    177 H177        6.2021  -14.3644  -40.0748 H         1 UNK         0.0600 
    178 H178        4.5852  -14.5907  -39.4522 H         1 UNK         0.0600 
    179 H179        4.8785  -13.9143  -43.4191 H         1 UNK         0.3000 
    180 H180        8.3545  -13.0128  -44.0584 H         1 UNK         0.0600 
    181 H181        6.4826  -15.3799  -44.5726 H         1 UNK         0.0600 
    182 H182        8.0034  -15.4447  -43.6947 H         1 UNK         0.0600 
    183 H183        7.9952  -15.0411  -45.4046 H         1 UNK         0.0600 
    184 H184        5.7560  -13.1825  -45.4882 H         1 UNK         0.3000 
    185 H185        5.8079   -9.8056  -46.4309 H         1 UNK         0.0600 
    186 H186        7.5552  -10.5257  -48.0613 H         1 UNK         0.0600 
    187 H187        6.7094  -12.0464  -48.3210 H         1 UNK         0.0600 
    188 H188        5.9645  -10.5220  -48.8051 H         1 UNK         0.0600 
    189 H189        4.4230  -12.1329  -47.4389 H         1 UNK         0.3000 
    190 H190       -2.2164  -19.2641  -46.2654 H         1 UNK         0.3000 
    191 H191       -4.2210  -19.5321  -48.2966 H         1 UNK         0.0600 
    192 H192       -4.5384  -19.0462  -45.2859 H         1 UNK         0.0600 
    193 H193       -5.7463  -18.7294  -46.5241 H         1 UNK         0.0600 
    194 H194       -4.2624  -17.7882  -46.4820 H         1 UNK         0.0600 
    195 H195       -3.3556  -21.5421  -45.4682 H         1 UNK         0.3000 
    196 H196       -5.5801  -23.3355  -45.6613 H         1 UNK         0.0600 
    197 H197       -4.2479  -24.7086  -44.0589 H         1 UNK         0.0600 
    198 H198       -4.2973  -23.0223  -43.5674 H         1 UNK         0.0600 
    199 H199       -2.8460  -23.6785  -44.3214 H         1 UNK         0.0600 
    200 H200       -2.2640  -23.4264  -46.9823 H         1 UNK         0.3000 
    201 H201       -2.4620  -26.0123  -48.2395 H         1 UNK         0.0600 
    202 H202       -0.2858  -24.9294  -47.6676 H         1 UNK         0.0600 
    203 H203       -0.6291  -23.6084  -48.7828 H         1 UNK         0.0600 
    204 H204       -0.3754  -25.2394  -49.3951 H         1 UNK         0.0600 
    205 H205       -2.5823  -26.4397  -50.5578 H         1 UNK         0.3000 
    206 H206       -3.3826  -24.4003  -52.4209 H         1 UNK         0.0600 
    207 H207       -5.4230  -26.5767  -51.6455 H         1 UNK         0.0600 
    208 H208       -5.6165  -24.8530  -51.3370 H         1 UNK         0.0600 
    209 H209       -5.5871  -25.4445  -52.9855 H         1 UNK         0.0600 
    210 H210       -3.4161  -25.2476  -54.5718 H         1 UNK         0.3000 
    211 H211       -1.7673  -27.6955  -54.9897 H         1 UNK         0.0600 
    212 H212       -2.4746  -25.3443  -56.8318 H         1 UNK         0.0600 
    213 H213       -1.4333  -26.7011  -57.2475 H         1 UNK         0.0600 
    214 H214       -0.9411  -25.5712  -55.9946 H         1 UNK         0.0600 
    215 H215       -3.7548  -28.8461  -54.2416 H         1 UNK         0.3000 
    216 H216       -5.5254  -30.1553  -54.5171 H         1 UNK         0.0600 
    217 H217       -6.0003  -31.1406  -56.7272 H         1 UNK         0.0600 
    218 H218       -4.2655  -31.0584  -56.4673 H         1 UNK         0.0600 
    219 H219       -5.0553  -29.8993  -57.5348 H         1 UNK         0.0600 
    220 H220       -6.2940  -27.9121  -53.6838 H         1 UNK         0.3000 
    221 H221       -7.9524  -26.5053  -53.3173 H         1 UNK         0.0600 
    222 H222       -9.6569  -28.1540  -55.2513 H         1 UNK         0.0600 
    223 H223       -9.3920  -28.5402  -53.5512 H         1 UNK         0.0600 
    224 H224      -10.2366  -27.0681  -53.9981 H         1 UNK         0.0600 
    225 H225       -6.0314  -25.7294  -55.2372 H         1 UNK         0.3000 
    226 H226       -7.4130  -23.4427  -56.4038 H         1 UNK         0.0600 
    227 H227       -7.3421  -25.1098  -58.3011 H         1 UNK         0.0600 
    228 H228       -6.2635  -23.7586  -58.6099 H         1 UNK         0.0600 
    229 H229       -5.6058  -25.2993  -58.0706 H         1 UNK         0.0600 
    230 H230       -5.7252  -21.8382  -57.1052 H         1 UNK         0.3000 
    231 H231       -4.0623  -20.4489  -56.6440 H         1 UNK         0.0600 
    232 H232       -2.7120  -22.2466  -57.7650 H         1 UNK         0.0600 
    233 H233       -2.3364  -22.9393  -56.1879 H         1 UNK         0.0600 
    234 H234       -1.7693  -21.3290  -56.6016 H         1 UNK         0.0600 
    235 H235       -5.7853  -20.6220  -54.5823 H         1 UNK         0.3000 
    236 H236       -4.1475  -20.0493  -52.2034 H         1 UNK         0.0600 
    237 H237       -6.5753  -21.9465  -52.1943 H         1 UNK         0.0600 
    238 H238       -4.9037  -22.4621  -52.0044 H         1 UNK         0.0600 
    239 H239       -5.6436  -21.4389  -50.7860 H         1 UNK         0.0600 
    240 H240       -5.3880  -18.7661  -50.6521 H         1 UNK         0.3000 
    241 H241       -7.0800  -16.8182  -51.9526 H         1 UNK         0.0600 
    242 H242       -8.0030  -19.8082  -50.4749 H         1 UNK         0.3800 
    243 H243       -9.6574  -19.3527  -50.1666 H         1 UNK         0.3800 
    244 H244       -7.0398  -15.6131  -49.7925 H         1 UNK         0.0800 
    245 H245       -6.2962  -16.9820  -49.0107 H         1 UNK         0.0800 
    246 H246       -3.8090  -17.2323  -48.7694 H         1 UNK         0.0800 
    247 H247       -4.2400  -15.6828  -48.0806 H         1 UNK         0.0800 
@<TRIPOS>BOND
     1    1    2 1    
     2    1  127 1    
     3    1  128 1    
     4    1  129 1    
     5    2    3 2    
     6    2    4 am   BACKBONE|DICT|INTERRES
     7    4    5 1    
     8    4  130 1    
     9    5    6 1    
    10    5   65 1    
    11    5  131 1    
    12    6    7 1    
    13    6  132 1    
    14    6  133 1    
    15    7    8 1    
    16    8    9 1    
    17    8  134 1    
    18    8  135 1    
    19    9   10 ar   
    20    9   14 ar   
    21   10   11 ar   
    22   10  136 1    
    23   11   12 ar   
    24   11  126 1    
    25   12   13 ar   
    26   12  137 1    
    27   13   14 ar   
    28   13   15 1    
    29   14  138 1    
    30   15   16 1    
    31   15  139 1    
    32   15  140 1    
    33   16   17 1    
    34   17   18 1    
    35   17  141 1    
    36   17  142 1    
    37   18   19 1    
    38   18   67 1    
    39   18  143 1    
    40   19   20 am   BACKBONE|DICT|INTERRES
    41   19  144 1    
    42   20   21 2    
    43   20   22 1    
    44   22   23 1    
    45   22   24 1    
    46   22  145 1    
    47   23  146 1    
    48   23  147 1    
    49   23  148 1    
    50   24   25 am   BACKBONE|DICT|INTERRES
    51   24  149 1    
    52   25   26 2    
    53   25   27 1    
    54   27   28 1    
    55   27   29 1    
    56   27  150 1    
    57   28  151 1    
    58   28  152 1    
    59   28  153 1    
    60   29   30 am   BACKBONE|DICT|INTERRES
    61   29  154 1    
    62   30   31 2    
    63   30   32 1    
    64   32   33 1    
    65   32   34 1    
    66   32  155 1    
    67   33  156 1    
    68   33  157 1    
    69   33  158 1    
    70   34   35 am   BACKBONE|DICT|INTERRES
    71   34  159 1    
    72   35   36 2    
    73   35   37 1    
    74   37   38 1    
    75   37   39 1    
    76   37  160 1    
    77   38  161 1    
    78   38  162 1    
    79   38  163 1    
    80   39   40 am   BACKBONE|DICT|INTERRES
    81   39  164 1    
    82   40   41 2    
    83   40   42 1    
    84   42   43 1    
    85   42   44 1    
    86   42  165 1    
    87   43  166 1    
    88   43  167 1    
    89   43  168 1    
    90   44   45 am   BACKBONE|DICT|INTERRES
    91   44  169 1    
    92   45   46 2    
    93   45   47 1    
    94   47   48 1    
    95   47   49 1    
    96   47  170 1    
    97   48  171 1    
    98   48  172 1    
    99   48  173 1    
   100   49   50 am   BACKBONE|DICT|INTERRES
   101   49  174 1    
   102   50   51 2    
   103   50   52 1    
   104   52   53 1    
   105   52   54 1    
   106   52  175 1    
   107   53  176 1    
   108   53  177 1    
   109   53  178 1    
   110   54   55 am   BACKBONE|DICT|INTERRES
   111   54  179 1    
   112   55   56 2    
   113   55   57 1    
   114   57   58 1    
   115   57   59 1    
   116   57  180 1    
   117   58  181 1    
   118   58  182 1    
   119   58  183 1    
   120   59   60 am   BACKBONE|DICT|INTERRES
   121   59  184 1    
   122   60   61 2    
   123   60   62 1    
   124   62   63 1    
   125   62   64 1    
   126   62  185 1    
   127   63  186 1    
   128   63  187 1    
   129   63  188 1    
   130   64   65 am   BACKBONE|DICT|INTERRES
   131   64  189 1    
   132   65   66 2    
   133   67   68 2    
   134   67   69 am   BACKBONE|DICT|INTERRES
   135   69   70 1    
   136   69  190 1    
   137   70   71 1    
   138   70   72 1    
   139   70  191 1    
   140   71  192 1    
   141   71  193 1    
   142   71  194 1    
   143   72   73 2    
   144   72   74 am   BACKBONE|DICT|INTERRES
   145   74   75 1    
   146   74  195 1    
   147   75   76 1    
   148   75   77 1    
   149   75  196 1    
   150   76  197 1    
   151   76  198 1    
   152   76  199 1    
   153   77   78 2    
   154   77   79 am   BACKBONE|DICT|INTERRES
   155   79   80 1    
   156   79  200 1    
   157   80   81 1    
   158   80   82 1    
   159   80  201 1    
   160   81  202 1    
   161   81  203 1    
   162   81  204 1    
   163   82   83 2    
   164   82   84 am   BACKBONE|DICT|INTERRES
   165   84   85 1    
   166   84  205 1    
   167   85   86 1    
   168   85   87 1    
   169   85  206 1    
   170   86  207 1    
   171   86  208 1    
   172   86  209 1    
   173   87   88 2    
   174   87   89 am   BACKBONE|DICT|INTERRES
   175   89   90 1    
   176   89  210 1    
   177   90   91 1    
   178   90   92 1    
   179   90  211 1    
   180   91  212 1    
   181   91  213 1    
   182   91  214 1    
   183   92   93 2    
   184   92   94 am   BACKBONE|DICT|INTERRES
   185   94   95 1    
   186   94  215 1    
   187   95   96 1    
   188   95   97 1    
   189   95  216 1    
   190   96  217 1    
   191   96  218 1    
   192   96  219 1    
   193   97   98 2    
   194   97   99 am   BACKBONE|DICT|INTERRES
   195   99  100 1    
   196   99  220 1    
   197  100  101 1    
   198  100  102 1    
   199  100  221 1    
   200  101  222 1    
   201  101  223 1    
   202  101  224 1    
   203  102  103 2    
   204  102  104 am   BACKBONE|DICT|INTERRES
   205  104  105 1    
   206  104  225 1    
   207  105  106 1    
   208  105  107 1    
   209  105  226 1    
   210  106  227 1    
   211  106  228 1    
   212  106  229 1    
   213  107  108 2    
   214  107  109 am   BACKBONE|DICT|INTERRES
   215  109  110 1    
   216  109  230 1    
   217  110  111 1    
   218  110  112 1    
   219  110  231 1    
   220  111  232 1    
   221  111  233 1    
   222  111  234 1    
   223  112  113 2    
   224  112  114 am   BACKBONE|DICT|INTERRES
   225  114  115 1    
   226  114  235 1    
   227  115  116 1    
   228  115  117 1    
   229  115  236 1    
   230  116  237 1    
   231  116  238 1    
   232  116  239 1    
   233  117  118 2    
   234  117  119 am   BACKBONE|DICT|INTERRES
   235  119  120 1    
   236  119  240 1    
   237  120  121 1    
   238  120  124 1    
   239  120  241 1    
   240  121  122 am   BACKBONE|DICT|INTERRES
   241  121  123 2    
   242  122  242 1    
   243  122  243 1    
   244  124  125 1    
   245  124  244 1    
   246  124  245 1    
   247  125  126 1    
   248  126  246 1    
   249  126  247 1    
@<TRIPOS>SUBSTRUCTURE
     1 UNK         1 GROUP             0       ****    0 ROOT    
