@<TRIPOS>MOLECULE
3R540
247   249    1
SMALL
USER_CHARGES


@<TRIPOS>ATOM
      1 CA         -4.6597  -16.9266  -44.8251 C.3       0 UNK        -0.1800 
      2 C          -3.8173  -15.6652  -44.6967 C.2       0 UNK         0.5000 
      3 O          -4.1347  -14.7909  -43.8907 O.2       0 UNK        -0.5000 
      4 N          -2.7328  -15.5733  -45.4746 N.am      1 UNK        -0.5000 
      5 CA         -1.7692  -14.4643  -45.5408 C.3       1 UNK         0.1400 
      6 C6         -1.0240  -14.4335  -46.9086 C.3       23 UNK        -0.0398 
      7 S7         -0.4644  -16.0744  -47.4828 S.3       23 UNK        -0.2404 
      8 C8          0.8782  -15.6610  -48.6330 C.3       23 UNK        -0.0205 
      9 C9          1.2808  -16.8789  -49.4556 C.ar      23 UNK        -0.0193 
     10 C10         0.6722  -17.1108  -50.6924 C.ar      23 UNK        -0.1150 
     11 C11         1.0502  -18.2031  -51.4773 C.ar      23 UNK        -0.0193 
     12 C12         2.0364  -19.0765  -51.0136 C.ar      23 UNK        -0.1150 
     13 C13         2.6460  -18.8674  -49.7738 C.ar      23 UNK        -0.0193 
     14 C14         2.2651  -17.7643  -48.9991 C.ar      23 UNK        -0.1150 
     15 C15         3.7455  -19.8127  -49.3032 C.3       23 UNK        -0.0205 
     16 S16         3.1290  -21.4894  -48.9307 S.3       23 UNK        -0.2404 
     17 C17         2.2501  -21.1867  -47.3659 C.3       23 UNK        -0.0398 
     18 CA          1.0671  -22.1496  -47.1024 C.3       11 UNK         0.1400 
     19 N           0.6576  -22.1071  -45.6942 N.am      11 UNK        -0.5000 
     20 C          -0.2572  -22.9028  -45.1223 C.2       10 UNK         0.5000 
     21 O          -0.8096  -23.8368  -45.7006 O.2       10 UNK        -0.5000 
     22 CA         -0.6637  -22.5632  -43.6765 C.3       10 UNK         0.1400 
     23 CB          0.2539  -23.2630  -42.6626 C.3       10 UNK        -0.1800 
     24 N          -0.6701  -21.1189  -43.4371 N.am      10 UNK        -0.5000 
     25 C          -1.5893  -20.2805  -43.9387 C.2       9 UNK         0.5000 
     26 O          -2.5562  -20.6491  -44.6042 O.2       9 UNK        -0.5000 
     27 CA         -1.3626  -18.7741  -43.7107 C.3       9 UNK         0.1400 
     28 CB         -1.9304  -18.3363  -42.3571 C.3       9 UNK        -0.1800 
     29 N           0.0457  -18.3854  -43.8026 N.am      9 UNK        -0.5000 
     30 C           0.7687  -18.5001  -44.9269 C.2       8 UNK         0.5000 
     31 O           0.2914  -18.8949  -45.9885 O.2       8 UNK        -0.5000 
     32 CA          2.2831  -18.2130  -44.8439 C.3       8 UNK         0.1400 
     33 CB          2.5684  -16.7439  -45.1555 C.3       8 UNK        -0.1800 
     34 N           2.8717  -18.5381  -43.5460 N.am      8 UNK        -0.5000 
     35 C           2.7968  -19.7325  -42.9452 C.2       7 UNK         0.5000 
     36 O           2.3556  -20.7375  -43.5029 O.2       7 UNK        -0.5000 
     37 CA          3.2158  -19.8129  -41.4632 C.3       7 UNK         0.1400 
     38 CB          4.5541  -20.5534  -41.3254 C.3       7 UNK        -0.1800 
     39 N           3.3171  -18.5193  -40.7777 N.am      7 UNK        -0.5000 
     40 C           2.3492  -17.6010  -40.6301 C.2       6 UNK         0.5000 
     41 O           1.2078  -17.7275  -41.0775 O.2       6 UNK        -0.5000 
     42 CA          2.7356  -16.2988  -39.8960 C.3       6 UNK         0.1400 
     43 CB          3.9574  -16.4566  -38.9646 C.3       6 UNK        -0.1800 
     44 N           2.9530  -15.1635  -40.8006 N.am      6 UNK        -0.5000 
     45 C           3.7312  -15.1146  -41.8907 C.2       5 UNK         0.5000 
     46 O           4.3182  -16.0862  -42.3742 O.2       5 UNK        -0.5000 
     47 CA          3.9097  -13.7377  -42.5456 C.3       5 UNK         0.1400 
     48 CB          5.2585  -13.1201  -42.1377 C.3       5 UNK        -0.1800 
     49 N           3.8555  -13.9272  -43.9907 N.am      5 UNK        -0.5000 
     50 C           3.4765  -13.0777  -44.9548 C.2       4 UNK         0.5000 
     51 O           3.4269  -13.4449  -46.1284 O.2       4 UNK        -0.5000 
     52 CA          3.0947  -11.6242  -44.6042 C.3       4 UNK         0.1400 
     53 CB          2.9500  -10.7272  -45.8510 C.3       4 UNK        -0.1800 
     54 N           1.8530  -11.5812  -43.8345 N.am      4 UNK        -0.5000 
     55 C           1.5654  -10.6338  -42.9293 C.2       3 UNK         0.5000 
     56 O           2.3283   -9.7063  -42.6556 O.2       3 UNK        -0.5000 
     57 CA          0.2085  -10.7112  -42.2003 C.3       3 UNK         0.1400 
     58 CB         -0.7786   -9.6983  -42.8011 C.3       3 UNK        -0.1800 
     59 N          -0.4050  -12.0366  -42.2332 N.am      3 UNK        -0.5000 
     60 C           0.0231  -13.1056  -41.5499 C.2       2 UNK         0.5000 
     61 O           0.9658  -13.0797  -40.7578 O.2       2 UNK        -0.5000 
     62 CA         -0.7185  -14.4332  -41.8033 C.3       2 UNK         0.1400 
     63 CB         -1.7430  -14.6653  -40.6809 C.3       2 UNK        -0.1800 
     64 N          -1.4016  -14.5033  -43.1017 N.am      2 UNK        -0.5000 
     65 C          -0.8291  -14.3940  -44.3098 C.2       1 UNK         0.5000 
     66 O           0.3763  -14.1924  -44.4562 O.2       1 UNK        -0.5000 
     67 C          -0.1285  -21.8887  -48.0474 C.2       11 UNK         0.5000 
     68 O          -0.3545  -22.6675  -48.9744 O.2       11 UNK        -0.5000 
     69 N          -0.9121  -20.8410  -47.7524 N.am      12 UNK        -0.5000 
     70 CA         -2.1529  -20.5207  -48.4563 C.3       12 UNK         0.1400 
     71 CB         -2.6552  -19.1361  -48.0306 C.3       12 UNK        -0.1800 
     72 C          -3.2463  -21.5832  -48.2528 C.2       12 UNK         0.5000 
     73 O          -3.9175  -21.9416  -49.2203 O.2       12 UNK        -0.5000 
     74 N          -3.3999  -22.0925  -47.0211 N.am      13 UNK        -0.5000 
     75 CA         -4.3522  -23.1541  -46.6776 C.3       13 UNK         0.1400 
     76 CB         -4.3828  -23.3702  -45.1588 C.3       13 UNK        -0.1800 
     77 C          -4.0684  -24.4793  -47.4088 C.2       13 UNK         0.5000 
     78 O          -5.0083  -25.1232  -47.8749 O.2       13 UNK        -0.5000 
     79 N          -2.7831  -24.8313  -47.5577 N.am      14 UNK        -0.5000 
     80 CA         -2.3123  -25.9726  -48.3493 C.3       14 UNK         0.1400 
     81 CB         -0.8100  -26.1779  -48.1043 C.3       14 UNK        -0.1800 
     82 C          -2.6057  -25.8301  -49.8575 C.2       14 UNK         0.5000 
     83 O          -2.7672  -26.8401  -50.5422 O.2       14 UNK        -0.5000 
     84 N          -2.7219  -24.5837  -50.3330 N.am      15 UNK        -0.5000 
     85 CA         -3.1652  -24.2134  -51.6766 C.3       15 UNK         0.1400 
     86 CB         -2.3779  -22.9714  -52.1284 C.3       15 UNK        -0.1800 
     87 C          -4.6936  -23.9898  -51.7496 C.2       15 UNK         0.5000 
     88 O          -5.1621  -23.3160  -52.6677 O.2       15 UNK        -0.5000 
     89 N          -5.4459  -24.5383  -50.7821 N.am      16 UNK        -0.5000 
     90 CA         -6.9065  -24.4965  -50.6515 C.3       16 UNK         0.1400 
     91 CB         -7.5770  -25.2927  -51.7906 C.3       16 UNK        -0.1800 
     92 C          -7.4540  -23.0629  -50.4956 C.2       16 UNK         0.5000 
     93 O          -8.4478  -22.7063  -51.1282 O.2       16 UNK        -0.5000 
     94 N          -6.7713  -22.2705  -49.6567 N.am      17 UNK        -0.5000 
     95 CA         -6.9670  -20.8347  -49.4247 C.3       17 UNK         0.1400 
     96 CB         -8.3789  -20.5228  -48.8851 C.3       17 UNK        -0.1800 
     97 C          -6.5749  -20.0084  -50.6661 C.2       17 UNK         0.5000 
     98 O          -7.2940  -19.0874  -51.0571 O.2       17 UNK        -0.5000 
     99 N          -5.4265  -20.3761  -51.2549 N.am      18 UNK        -0.5000 
    100 CA        -4.8066  -19.8021  -52.4536 C.3       18 UNK         0.1400 
    101 CB        -4.2946  -18.3763  -52.1606 C.3       18 UNK        -0.1800 
    102 C         -5.7017  -19.8779  -53.7115 C.2       18 UNK         0.5000 
    103 O         -5.6928  -18.9625  -54.5373 O.2       18 UNK        -0.5000 
    104 N         -6.4592  -20.9730  -53.8440 N.am      19 UNK        -0.5000 
    105 CA        -7.4032  -21.2161  -54.9309 C.3       19 UNK         0.1400 
    106 CB        -8.5467  -22.1025  -54.4119 C.3       19 UNK        -0.1800 
    107 C         -6.6785  -21.8417  -56.1337 C.2       19 UNK         0.5000 
    108 O         -6.6998  -23.0619  -56.3033 O.2       19 UNK        -0.5000 
    109 N         -6.0078  -20.9897  -56.9215 N.am      20 UNK        -0.5000 
    110 CA        -5.2521  -21.2639  -58.1557 C.3       20 UNK         0.1400 
    111 CB        -6.1472  -21.9006  -59.2357 C.3       20 UNK        -0.1800 
    112 C         -3.9553  -22.0763  -57.9623 C.2       20 UNK         0.5000 
    113 O         -2.9659  -21.7998  -58.6422 O.2       20 UNK        -0.5000 
    114 N         -3.9498  -23.0181  -57.0102 N.am      21 UNK        -0.5000 
    115 CA        -2.8105  -23.8541  -56.6149 C.3       21 UNK         0.1400 
    116 CB        -3.2934  -24.8857  -55.5846 C.3       21 UNK        -0.1800 
    117 C         -1.6042  -23.0606  -56.0690 C.2       21 UNK         0.5000 
    118 O         -0.4892  -23.5829  -56.0573 O.2       21 UNK        -0.5000 
    119 N         -1.8467  -21.8097  -55.6576 N.am      22 UNK        -0.5000 
    120 CA        -0.8251  -20.8093  -55.3186 C.3       22 UNK         0.1400 
    121 C         -0.0040  -20.2898  -56.5391 C.2       22 UNK         0.5000 
    122 N         -0.4171  -20.5231  -57.7805 N.am      22 UNK        -0.7600 
    123 O          1.0337  -19.6608  -56.3532 O.2       22 UNK        -0.5000 
    124 C124       -1.4457  -19.6293  -54.5140 C.3       23 UNK        -0.0398 
    125 S125       -0.9343  -19.6323  -52.7649 S.3       23 UNK        -0.2404 
    126 C126        0.4188  -18.4226  -52.8405 C.3       23 UNK        -0.0205 
    127 H127       -4.6927  -17.4545  -43.8722 H         1 UNK         0.0600 
    128 H128       -4.2606  -17.6075  -45.5769 H         1 UNK         0.0600 
    129 H129       -5.6799  -16.6685  -45.1084 H         1 UNK         0.0600 
    130 H130       -2.5120  -16.3341  -46.1024 H         1 UNK         0.3000 
    131 H131       -2.3482  -13.5396  -45.4933 H         1 UNK         0.0600 
    132 H132       -1.7035  -14.0494  -47.6704 H         1 UNK         0.0800 
    133 H133       -0.1832  -13.7373  -46.8974 H         1 UNK         0.0800 
    134 H134        0.5510  -14.8579  -49.2950 H         1 UNK         0.0800 
    135 H135        1.7344  -15.2721  -48.0801 H         1 UNK         0.0800 
    136 H136       -0.0903  -16.4328  -51.0493 H         1 UNK         0.1150 
    137 H137        2.3327  -19.9208  -51.6204 H         1 UNK         0.1150 
    138 H138        2.7405  -17.5890  -48.0456 H         1 UNK         0.1150 
    139 H139        4.5024  -19.8861  -50.0853 H         1 UNK         0.0800 
    140 H140        4.2551  -19.4116  -48.4256 H         1 UNK         0.0800 
    141 H141        1.9101  -20.1541  -47.3583 H         1 UNK         0.0800 
    142 H142        2.9849  -21.2711  -46.5637 H         1 UNK         0.0800 
    143 H143        1.4140  -23.1678  -47.2915 H         1 UNK         0.0600 
    144 H144        1.0809  -21.3896  -45.1185 H         1 UNK         0.3000 
    145 H145       -1.6762  -22.9358  -43.5143 H         1 UNK         0.0600 
    146 H146       -0.0348  -23.0258  -41.6386 H         1 UNK         0.0600 
    147 H147        0.1946  -24.3464  -42.7739 H         1 UNK         0.0600 
    148 H148        1.2987  -22.9821  -42.7912 H         1 UNK         0.0600 
    149 H149        0.1357  -20.7354  -42.9635 H         1 UNK         0.3000 
    150 H150       -1.9046  -18.2415  -44.4939 H         1 UNK         0.0600 
    151 H151       -2.9828  -18.6070  -42.2641 H         1 UNK         0.0600 
    152 H152       -1.8603  -17.2568  -42.2497 H         1 UNK         0.0600 
    153 H153       -1.3944  -18.7943  -41.5249 H         1 UNK         0.0600 
    154 H154        0.4986  -18.0846  -42.9449 H         1 UNK         0.3000 
    155 H155        2.7819  -18.8253  -45.5959 H         1 UNK         0.0600 
    156 H156        2.1623  -16.0961  -44.3799 H         1 UNK         0.0600 
    157 H157        3.6393  -16.5589  -45.2352 H         1 UNK         0.0600 
    158 H158        2.1158  -16.4411  -46.0967 H         1 UNK         0.0600 
    159 H159        3.2814  -17.7681  -43.0278 H         1 UNK         0.3000 
    160 H160        2.4480  -20.3939  -40.9489 H         1 UNK         0.0600 
    161 H161        5.3680  -20.0013  -41.7971 H         1 UNK         0.0600 
    162 H162        4.5084  -21.5369  -41.7954 H         1 UNK         0.0600 
    163 H163        4.8144  -20.7084  -40.2782 H         1 UNK         0.0600 
    164 H164        4.2303  -18.2883  -40.4144 H         1 UNK         0.3000 
    165 H165        1.8783  -16.0381  -39.2734 H         1 UNK         0.0600 
    166 H166        4.0983  -15.5618  -38.3581 H         1 UNK         0.0600 
    167 H167        3.8244  -17.2914  -38.2750 H         1 UNK         0.0600 
    168 H168        4.8817  -16.6226  -39.5191 H         1 UNK         0.0600 
    169 H169        2.4387  -14.3219  -40.5539 H         1 UNK         0.3000 
    170 H170        3.1054  -13.0901  -42.2080 H         1 UNK         0.0600 
    171 H171        6.0959  -13.7399  -42.4609 H         1 UNK         0.0600 
    172 H172        5.3993  -12.1266  -42.5601 H         1 UNK         0.0600 
    173 H173        5.3260  -13.0193  -41.0537 H         1 UNK         0.0600 
    174 H174        4.0822  -14.8750  -44.2588 H         1 UNK         0.3000 
    175 H175        3.9128  -11.2206  -44.0072 H         1 UNK         0.0600 
    176 H176        2.7759   -9.6875  -45.5735 H         1 UNK         0.0600 
    177 H177        2.1198  -11.0480  -46.4815 H         1 UNK         0.0600 
    178 H178        3.8556  -10.7508  -46.4585 H         1 UNK         0.0600 
    179 H179        1.2107  -12.3523  -43.9896 H         1 UNK         0.3000 
    180 H180        0.3824  -10.4414  -41.1564 H         1 UNK         0.0600 
    181 H181       -1.0012   -9.9241  -43.8448 H         1 UNK         0.0600 
    182 H182       -0.3726   -8.6866  -42.7639 H         1 UNK         0.0600 
    183 H183       -1.7194   -9.6889  -42.2503 H         1 UNK         0.0600 
    184 H184       -1.1959  -12.1534  -42.8488 H         1 UNK         0.3000 
    185 H185        0.0207  -15.2361  -41.7752 H         1 UNK         0.0600 
    186 H186       -1.2579  -14.6625  -39.7038 H         1 UNK         0.0600 
    187 H187       -2.5066  -13.8864  -40.6697 H         1 UNK         0.0600 
    188 H188       -2.2509  -15.6227  -40.7816 H         1 UNK         0.0600 
    189 H189       -2.4104  -14.6260  -43.0821 H         1 UNK         0.3000 
    190 H190       -0.6280  -20.2099  -47.0070 H         1 UNK         0.3000 
    191 H191       -1.9306  -20.4811  -49.5251 H         1 UNK         0.0600 
    192 H192       -1.9545  -18.3648  -48.3453 H         1 UNK         0.0600 
    193 H193       -3.6168  -18.9053  -48.4912 H         1 UNK         0.0600 
    194 H194       -2.7757  -19.0646  -46.9496 H         1 UNK         0.0600 
    195 H195       -2.8592  -21.7014  -46.2558 H         1 UNK         0.3000 
    196 H196       -5.3433  -22.8141  -46.9842 H         1 UNK         0.0600 
    197 H197       -5.1428  -24.1035  -44.8864 H         1 UNK         0.0600 
    198 H198       -4.6197  -22.4467  -44.6305 H         1 UNK         0.0600 
    199 H199       -3.4280  -23.7389  -44.7869 H         1 UNK         0.0600 
    200 H200       -2.0684  -24.2809  -47.0884 H         1 UNK         0.3000 
    201 H201       -2.8386  -26.8618  -47.9967 H         1 UNK         0.0600 
    202 H202       -0.6043  -26.3596  -47.0493 H         1 UNK         0.0600 
    203 H203       -0.2293  -25.3084  -48.4127 H         1 UNK         0.0600 
    204 H204       -0.4362  -27.0378  -48.6614 H         1 UNK         0.0600 
    205 H205       -2.5755  -23.8137  -49.6927 H         1 UNK         0.3000 
    206 H206       -2.9334  -25.0228  -52.3712 H         1 UNK         0.0600 
    207 H207       -1.3059  -23.1688  -52.1440 H         1 UNK         0.0600 
    208 H208       -2.6622  -22.6644  -53.1340 H         1 UNK         0.0600 
    209 H209       -2.5462  -22.1217  -51.4680 H         1 UNK         0.0600 
    210 H210       -4.9690  -25.0172  -50.0282 H         1 UNK         0.3000 
    211 H211       -7.1439  -25.0075  -49.7175 H         1 UNK         0.0600 
    212 H212       -7.3782  -24.8528  -52.7673 H         1 UNK         0.0600 
    213 H213       -8.6592  -25.3297  -51.6610 H         1 UNK         0.0600 
    214 H214       -7.2191  -26.3219  -51.8113 H         1 UNK         0.0600 
    215 H215       -5.9168  -22.6456  -49.2635 H         1 UNK         0.3000 
    216 H216       -6.2597  -20.5559  -48.6425 H         1 UNK         0.0600 
    217 H217       -8.4498  -19.4816  -48.5686 H         1 UNK         0.0600 
    218 H218       -8.6161  -21.1418  -48.0200 H         1 UNK         0.0600 
    219 H219       -9.1514  -20.6842  -49.6370 H         1 UNK         0.0600 
    220 H220       -4.9171  -21.1398  -50.8238 H         1 UNK         0.3000 
    221 H221       -3.9400  -20.4267  -52.6683 H         1 UNK         0.0600 
    222 H222       -5.1134  -17.6842  -51.9631 H         1 UNK         0.0600 
    223 H223       -3.6306  -18.3678  -51.2958 H         1 UNK         0.0600 
    224 H224       -3.7283  -17.9794  -53.0036 H         1 UNK         0.0600 
    225 H225       -6.3185  -21.7372  -53.1904 H         1 UNK         0.3000 
    226 H226       -7.8441  -20.2704  -55.2535 H         1 UNK         0.0600 
    227 H227       -9.0916  -21.6075  -53.6079 H         1 UNK         0.0600 
    228 H228       -9.2632  -22.3222  -55.2042 H         1 UNK         0.0600 
    229 H229       -8.1778  -23.0532  -54.0277 H         1 UNK         0.0600 
    230 H230       -5.9972  -20.0204  -56.6276 H         1 UNK         0.3000 
    231 H231       -4.9444  -20.2854  -58.5280 H         1 UNK         0.0600 
    232 H232       -6.4766  -22.9018  -58.9568 H         1 UNK         0.0600 
    233 H233       -5.6107  -21.9885  -60.1813 H         1 UNK         0.0600 
    234 H234       -7.0339  -21.2944  -59.4210 H         1 UNK         0.0600 
    235 H235       -4.8324  -23.1945  -56.5374 H         1 UNK         0.3000 
    236 H236       -2.4676  -24.3889  -57.5027 H         1 UNK         0.0600 
    237 H237       -4.0541  -25.5403  -56.0104 H         1 UNK         0.0600 
    238 H238       -2.4736  -25.5188  -55.2425 H         1 UNK         0.0600 
    239 H239       -3.7249  -24.4005  -54.7101 H         1 UNK         0.0600 
    240 H240       -2.7968  -21.4789  -55.7198 H         1 UNK         0.3000 
    241 H241       -0.0918  -21.3186  -54.6899 H         1 UNK         0.0600 
    242 H242       -1.2757  -21.0295  -57.9710 H         1 UNK         0.3800 
    243 H243        0.1329  -20.1797  -58.5519 H         1 UNK         0.3800 
    244 H244       -1.2025  -18.6560  -54.9451 H         1 UNK         0.0800 
    245 H245       -2.5347  -19.6669  -54.5417 H         1 UNK         0.0800 
    246 H246        1.1757  -18.7695  -53.5460 H         1 UNK         0.0800 
    247 H247        0.0407  -17.4775  -53.2336 H         1 UNK         0.0800 
@<TRIPOS>BOND
     1    1    2 1    
     2    1  127 1    
     3    1  128 1    
     4    1  129 1    
     5    2    3 2    
     6    2    4 am   BACKBONE|DICT|INTERRES
     7    4    5 1    
     8    4  130 1    
     9    5    6 1    
    10    5   65 1    
    11    5  131 1    
    12    6    7 1    
    13    6  132 1    
    14    6  133 1    
    15    7    8 1    
    16    8    9 1    
    17    8  134 1    
    18    8  135 1    
    19    9   10 ar   
    20    9   14 ar   
    21   10   11 ar   
    22   10  136 1    
    23   11   12 ar   
    24   11  126 1    
    25   12   13 ar   
    26   12  137 1    
    27   13   14 ar   
    28   13   15 1    
    29   14  138 1    
    30   15   16 1    
    31   15  139 1    
    32   15  140 1    
    33   16   17 1    
    34   17   18 1    
    35   17  141 1    
    36   17  142 1    
    37   18   19 1    
    38   18   67 1    
    39   18  143 1    
    40   19   20 am   BACKBONE|DICT|INTERRES
    41   19  144 1    
    42   20   21 2    
    43   20   22 1    
    44   22   23 1    
    45   22   24 1    
    46   22  145 1    
    47   23  146 1    
    48   23  147 1    
    49   23  148 1    
    50   24   25 am   BACKBONE|DICT|INTERRES
    51   24  149 1    
    52   25   26 2    
    53   25   27 1    
    54   27   28 1    
    55   27   29 1    
    56   27  150 1    
    57   28  151 1    
    58   28  152 1    
    59   28  153 1    
    60   29   30 am   BACKBONE|DICT|INTERRES
    61   29  154 1    
    62   30   31 2    
    63   30   32 1    
    64   32   33 1    
    65   32   34 1    
    66   32  155 1    
    67   33  156 1    
    68   33  157 1    
    69   33  158 1    
    70   34   35 am   BACKBONE|DICT|INTERRES
    71   34  159 1    
    72   35   36 2    
    73   35   37 1    
    74   37   38 1    
    75   37   39 1    
    76   37  160 1    
    77   38  161 1    
    78   38  162 1    
    79   38  163 1    
    80   39   40 am   BACKBONE|DICT|INTERRES
    81   39  164 1    
    82   40   41 2    
    83   40   42 1    
    84   42   43 1    
    85   42   44 1    
    86   42  165 1    
    87   43  166 1    
    88   43  167 1    
    89   43  168 1    
    90   44   45 am   BACKBONE|DICT|INTERRES
    91   44  169 1    
    92   45   46 2    
    93   45   47 1    
    94   47   48 1    
    95   47   49 1    
    96   47  170 1    
    97   48  171 1    
    98   48  172 1    
    99   48  173 1    
   100   49   50 am   BACKBONE|DICT|INTERRES
   101   49  174 1    
   102   50   51 2    
   103   50   52 1    
   104   52   53 1    
   105   52   54 1    
   106   52  175 1    
   107   53  176 1    
   108   53  177 1    
   109   53  178 1    
   110   54   55 am   BACKBONE|DICT|INTERRES
   111   54  179 1    
   112   55   56 2    
   113   55   57 1    
   114   57   58 1    
   115   57   59 1    
   116   57  180 1    
   117   58  181 1    
   118   58  182 1    
   119   58  183 1    
   120   59   60 am   BACKBONE|DICT|INTERRES
   121   59  184 1    
   122   60   61 2    
   123   60   62 1    
   124   62   63 1    
   125   62   64 1    
   126   62  185 1    
   127   63  186 1    
   128   63  187 1    
   129   63  188 1    
   130   64   65 am   BACKBONE|DICT|INTERRES
   131   64  189 1    
   132   65   66 2    
   133   67   68 2    
   134   67   69 am   BACKBONE|DICT|INTERRES
   135   69   70 1    
   136   69  190 1    
   137   70   71 1    
   138   70   72 1    
   139   70  191 1    
   140   71  192 1    
   141   71  193 1    
   142   71  194 1    
   143   72   73 2    
   144   72   74 am   BACKBONE|DICT|INTERRES
   145   74   75 1    
   146   74  195 1    
   147   75   76 1    
   148   75   77 1    
   149   75  196 1    
   150   76  197 1    
   151   76  198 1    
   152   76  199 1    
   153   77   78 2    
   154   77   79 am   BACKBONE|DICT|INTERRES
   155   79   80 1    
   156   79  200 1    
   157   80   81 1    
   158   80   82 1    
   159   80  201 1    
   160   81  202 1    
   161   81  203 1    
   162   81  204 1    
   163   82   83 2    
   164   82   84 am   BACKBONE|DICT|INTERRES
   165   84   85 1    
   166   84  205 1    
   167   85   86 1    
   168   85   87 1    
   169   85  206 1    
   170   86  207 1    
   171   86  208 1    
   172   86  209 1    
   173   87   88 2    
   174   87   89 am   BACKBONE|DICT|INTERRES
   175   89   90 1    
   176   89  210 1    
   177   90   91 1    
   178   90   92 1    
   179   90  211 1    
   180   91  212 1    
   181   91  213 1    
   182   91  214 1    
   183   92   93 2    
   184   92   94 am   BACKBONE|DICT|INTERRES
   185   94   95 1    
   186   94  215 1    
   187   95   96 1    
   188   95   97 1    
   189   95  216 1    
   190   96  217 1    
   191   96  218 1    
   192   96  219 1    
   193   97   98 2    
   194   97   99 am   BACKBONE|DICT|INTERRES
   195   99  100 1    
   196   99  220 1    
   197  100  101 1    
   198  100  102 1    
   199  100  221 1    
   200  101  222 1    
   201  101  223 1    
   202  101  224 1    
   203  102  103 2    
   204  102  104 am   BACKBONE|DICT|INTERRES
   205  104  105 1    
   206  104  225 1    
   207  105  106 1    
   208  105  107 1    
   209  105  226 1    
   210  106  227 1    
   211  106  228 1    
   212  106  229 1    
   213  107  108 2    
   214  107  109 am   BACKBONE|DICT|INTERRES
   215  109  110 1    
   216  109  230 1    
   217  110  111 1    
   218  110  112 1    
   219  110  231 1    
   220  111  232 1    
   221  111  233 1    
   222  111  234 1    
   223  112  113 2    
   224  112  114 am   BACKBONE|DICT|INTERRES
   225  114  115 1    
   226  114  235 1    
   227  115  116 1    
   228  115  117 1    
   229  115  236 1    
   230  116  237 1    
   231  116  238 1    
   232  116  239 1    
   233  117  118 2    
   234  117  119 am   BACKBONE|DICT|INTERRES
   235  119  120 1    
   236  119  240 1    
   237  120  121 1    
   238  120  124 1    
   239  120  241 1    
   240  121  122 am   BACKBONE|DICT|INTERRES
   241  121  123 2    
   242  122  242 1    
   243  122  243 1    
   244  124  125 1    
   245  124  244 1    
   246  124  245 1    
   247  125  126 1    
   248  126  246 1    
   249  126  247 1    
@<TRIPOS>SUBSTRUCTURE
     1 UNK         1 GROUP             0       ****    0 ROOT    
