@<TRIPOS>MOLECULE
3R540
247   249    1
SMALL
USER_CHARGES


@<TRIPOS>ATOM
      1 CA          5.2337  -15.3272  -46.6527 C.3       0 UNK        -0.1800 
      2 C           3.9152  -14.8056  -46.1007 C.2       0 UNK         0.5000 
      3 O           3.7559  -14.7115  -44.8854 O.2       0 UNK        -0.5000 
      4 N           2.9737  -14.4683  -46.9905 N.am      1 UNK        -0.5000 
      5 CA          1.6219  -13.9968  -46.6543 C.3       1 UNK         0.1400 
      6 C6          0.6072  -14.2937  -47.7866 C.3       23 UNK        -0.0398 
      7 S7          0.5086  -16.0658  -48.2166 S.3       23 UNK        -0.2404 
      8 C8          1.2400  -16.0540  -49.8821 C.3       23 UNK        -0.0205 
      9 C9          1.1590  -17.4223  -50.5390 C.ar      23 UNK        -0.0193 
     10 C10        -0.0522  -17.8647  -51.0738 C.ar      23 UNK        -0.1150 
     11 C11        -0.1405  -19.1087  -51.7027 C.ar      23 UNK        -0.0193 
     12 C12         0.9981  -19.9123  -51.8052 C.ar      23 UNK        -0.1150 
     13 C13         2.2193  -19.4776  -51.2800 C.ar      23 UNK        -0.0193 
     14 C14         2.2918  -18.2342  -50.6418 C.ar      23 UNK        -0.1150 
     15 C15         3.4697  -20.3349  -51.4258 C.3       23 UNK        -0.0205 
     16 S16         3.3752  -21.9009  -50.5003 S.3       23 UNK        -0.2404 
     17 C17         3.1760  -21.3156  -48.7823 C.3       23 UNK        -0.0398 
     18 CA          2.1536  -22.1464  -47.9727 C.3       11 UNK         0.1400 
     19 N           2.2583  -21.8461  -46.5437 N.am      11 UNK        -0.5000 
     20 C           1.6437  -22.5074  -45.5575 C.2       10 UNK         0.5000 
     21 O           0.8686  -23.4418  -45.7492 O.2       10 UNK        -0.5000 
     22 CA          1.9141  -22.0427  -44.1172 C.3       10 UNK         0.1400 
     23 CB          3.2010  -22.6736  -43.5560 C.3       10 UNK        -0.1800 
     24 N           1.9056  -20.5880  -43.9420 N.am      10 UNK        -0.5000 
     25 C           2.7607  -19.6545  -44.3833 C.2       9 UNK         0.5000 
     26 O           3.7354  -19.8905  -45.0980 O.2       9 UNK        -0.5000 
     27 CA          2.4487  -18.2039  -43.9703 C.3       9 UNK         0.1400 
     28 CB          1.5870  -17.5330  -45.0472 C.3       9 UNK        -0.1800 
     29 N           1.7400  -18.1246  -42.6924 N.am      9 UNK        -0.5000 
     30 C           2.2556  -18.4496  -41.4987 C.2       8 UNK         0.5000 
     31 O           3.4367  -18.7454  -41.3159 O.2       8 UNK        -0.5000 
     32 CA          1.2646  -18.5013  -40.3229 C.3       8 UNK         0.1400 
     33 CB          1.0325  -17.1036  -39.7284 C.3       8 UNK        -0.1800 
     34 N          -0.0169  -19.0820  -40.7307 N.am      8 UNK        -0.5000 
     35 C          -0.2309  -20.3932  -40.9125 C.2       7 UNK         0.5000 
     36 O           0.6175  -21.2591  -40.7009 O.2       7 UNK        -0.5000 
     37 CA         -1.6181  -20.8125  -41.4339 C.3       7 UNK         0.1400 
     38 CB         -2.5639  -21.1184  -40.2633 C.3       7 UNK        -0.1800 
     39 N          -2.2337  -19.8006  -42.2935 N.am      7 UNK        -0.5000 
     40 C          -1.8775  -19.5608  -43.5628 C.2       6 UNK         0.5000 
     41 O          -1.0166  -20.2004  -44.1674 O.2       6 UNK        -0.5000 
     42 CA         -2.5820  -18.3838  -44.2648 C.3       6 UNK         0.1400 
     43 CB         -3.8642  -18.8666  -44.9602 C.3       6 UNK        -0.1800 
     44 N          -2.8976  -17.2571  -43.3793 N.am      6 UNK        -0.5000 
     45 C          -1.9823  -16.5553  -42.6988 C.2       5 UNK         0.5000 
     46 O          -0.7817  -16.8360  -42.6931 O.2       5 UNK        -0.5000 
     47 CA         -2.4967  -15.3914  -41.8328 C.3       5 UNK         0.1400 
     48 CB         -3.0441  -15.9266  -40.5000 C.3       5 UNK        -0.1800 
     49 N          -1.4226  -14.4402  -41.5470 N.am      5 UNK        -0.5000 
     50 C          -0.9147  -13.5787  -42.4358 C.2       4 UNK         0.5000 
     51 O          -1.3953  -13.3794  -43.5541 O.2       4 UNK        -0.5000 
     52 CA          0.3633  -12.8482  -42.0019 C.3       4 UNK         0.1400 
     53 CB          1.6005  -13.7085  -42.3054 C.3       4 UNK        -0.1800 
     54 N           0.4853  -11.5789  -42.7141 N.am      4 UNK        -0.5000 
     55 C           0.8032  -10.4076  -42.1480 C.2       3 UNK         0.5000 
     56 O           1.0228  -10.2739  -40.9422 O.2       3 UNK        -0.5000 
     57 CA          0.8879   -9.1819  -43.0860 C.3       3 UNK         0.1400 
     58 CB          1.6579   -7.9964  -42.4659 C.3       3 UNK        -0.1800 
     59 N           1.4162   -9.5047  -44.4162 N.am      3 UNK        -0.5000 
     60 C           2.6202  -10.0158  -44.7129 C.2       2 UNK         0.5000 
     61 O           3.5010  -10.2554  -43.8847 O.2       2 UNK        -0.5000 
     62 CA          2.8573  -10.3480  -46.1994 C.3       2 UNK         0.1400 
     63 CB          4.2569   -9.9091  -46.6619 C.3       2 UNK        -0.1800 
     64 N           2.6931  -11.7754  -46.4778 N.am      2 UNK        -0.5000 
     65 C           1.5812  -12.4988  -46.2779 C.2       1 UNK         0.5000 
     66 O           0.5355  -12.0230  -45.8342 O.2       1 UNK        -0.5000 
     67 C           0.7082  -22.0034  -48.5016 C.2       11 UNK         0.5000 
     68 O           0.2457  -22.8674  -49.2465 O.2       11 UNK        -0.5000 
     69 N          -0.0036  -20.9563  -48.0610 N.am      12 UNK        -0.5000 
     70 CA         -1.4046  -20.7233  -48.4159 C.3       12 UNK         0.1400 
     71 CB         -1.8040  -19.2995  -48.0129 C.3       12 UNK        -0.1800 
     72 C          -2.3601  -21.7634  -47.8012 C.2       12 UNK         0.5000 
     73 O          -3.3216  -22.1608  -48.4591 O.2       12 UNK        -0.5000 
     74 N          -2.0641  -22.2133  -46.5729 N.am      13 UNK        -0.5000 
     75 CA         -2.7858  -23.2990  -45.9082 C.3       13 UNK         0.1400 
     76 CB         -2.4526  -23.3137  -44.4096 C.3       13 UNK        -0.1800 
     77 C          -2.5042  -24.6663  -46.5570 C.2       13 UNK         0.5000 
     78 O          -3.4380  -25.4426  -46.7547 O.2       13 UNK        -0.5000 
     79 N          -1.2393  -24.9209  -46.9222 N.am      14 UNK        -0.5000 
     80 CA         -0.7933  -26.1228  -47.6339 C.3       14 UNK         0.1400 
     81 CB          0.7411  -26.1422  -47.6973 C.3       14 UNK        -0.1800 
     82 C          -1.3980  -26.2514  -49.0457 C.2       14 UNK         0.5000 
     83 O          -1.6624  -27.3677  -49.4931 O.2       14 UNK        -0.5000 
     84 N          -1.6482  -25.1088  -49.7006 N.am      15 UNK        -0.5000 
     85 CA         -2.3622  -25.0024  -50.9750 C.3       15 UNK         0.1400 
     86 CB         -2.1245  -23.6008  -51.5610 C.3       15 UNK        -0.1800 
     87 C          -3.8737  -25.3078  -50.8661 C.2       15 UNK         0.5000 
     88 O          -4.5224  -25.4835  -51.8973 O.2       15 UNK        -0.5000 
     89 N          -4.4082  -25.3673  -49.6360 N.am      16 UNK        -0.5000 
     90 CA         -5.7739  -25.7145  -49.2236 C.3       16 UNK         0.1400 
     91 CB         -6.1609  -27.1342  -49.6806 C.3       16 UNK        -0.1800 
     92 C          -6.8388  -24.6798  -49.6253 C.2       16 UNK         0.5000 
     93 O          -7.5510  -24.1749  -48.7569 O.2       16 UNK        -0.5000 
     94 N          -6.9196  -24.3690  -50.9230 N.am      17 UNK        -0.5000 
     95 CA         -7.8276  -23.3724  -51.4946 C.3       17 UNK         0.1400 
     96 CB         -8.2492  -23.8349  -52.8982 C.3       17 UNK        -0.1800 
     97 C          -7.2014  -21.9632  -51.5368 C.2       17 UNK         0.5000 
     98 O          -7.8570  -21.0283  -52.0000 O.2       17 UNK        -0.5000 
     99 N          -5.9491  -21.8367  -51.0684 N.am      18 UNK        -0.5000 
    100 CA        -5.1314  -20.6242  -51.0235 C.3       18 UNK         0.1400 
    101 CB        -5.6503  -19.6597  -49.9348 C.3       18 UNK        -0.1800 
    102 C         -4.9863  -19.9966  -52.4225 C.2       18 UNK         0.5000 
    103 O         -4.4738  -20.6676  -53.3201 O.2       18 UNK        -0.5000 
    104 N         -5.4446  -18.7487  -52.5934 N.am      19 UNK        -0.5000 
    105 CA        -5.3667  -17.9615  -53.8281 C.3       19 UNK         0.1400 
    106 CB        -6.0296  -16.5964  -53.5925 C.3       19 UNK        -0.1800 
    107 C         -5.9762  -18.6474  -55.0654 C.2       19 UNK         0.5000 
    108 O         -5.4743  -18.4540  -56.1726 O.2       19 UNK        -0.5000 
    109 N         -7.0183  -19.4636  -54.8579 N.am      20 UNK        -0.5000 
    110 CA        -7.6643  -20.2494  -55.9092 C.3       20 UNK         0.1400 
    111 CB        -9.0348  -20.7257  -55.4073 C.3       20 UNK        -0.1800 
    112 C         -6.8123  -21.4380  -56.4010 C.2       20 UNK         0.5000 
    113 O         -7.0561  -21.9258  -57.5055 O.2       20 UNK        -0.5000 
    114 N         -5.8377  -21.8801  -55.5938 N.am      21 UNK        -0.5000 
    115 CA        -4.8929  -22.9380  -55.9413 C.3       21 UNK         0.1400 
    116 CB        -4.6392  -23.8352  -54.7199 C.3       21 UNK        -0.1800 
    117 C         -3.5790  -22.3573  -56.4865 C.2       21 UNK         0.5000 
    118 O         -3.1284  -22.7980  -57.5452 O.2       21 UNK        -0.5000 
    119 N         -2.9809  -21.3947  -55.7683 N.am      22 UNK        -0.5000 
    120 CA        -1.7017  -20.7725  -56.1606 C.3       22 UNK         0.1400 
    121 C         -1.8010  -19.7032  -57.2883 C.2       22 UNK         0.5000 
    122 N         -2.9677  -19.1474  -57.5902 N.am      22 UNK        -0.7600 
    123 O         -0.7963  -19.3860  -57.9197 O.2       22 UNK        -0.5000 
    124 C124       -0.8749  -20.2717  -54.9475 C.3       23 UNK        -0.0398 
    125 S125       -1.6981  -18.9667  -53.9732 S.3       23 UNK        -0.2404 
    126 C126       -1.4710  -19.5664  -52.2712 C.3       23 UNK        -0.0205 
    127 H127        5.4156  -16.3390  -46.2901 H         1 UNK         0.0600 
    128 H128        5.2368  -15.3514  -47.7427 H         1 UNK         0.0600 
    129 H129        6.0562  -14.6923  -46.3234 H         1 UNK         0.0600 
    130 H130        3.1668  -14.5710  -47.9758 H         1 UNK         0.3000 
    131 H131        1.2817  -14.5319  -45.7675 H         1 UNK         0.0600 
    132 H132        0.8449  -13.7093  -48.6771 H         1 UNK         0.0800 
    133 H133       -0.3952  -13.9841  -47.4848 H         1 UNK         0.0800 
    134 H134        0.7155  -15.3280  -50.5053 H         1 UNK         0.0800 
    135 H135        2.2765  -15.7199  -49.8218 H         1 UNK         0.0800 
    136 H136       -0.9289  -17.2364  -51.0003 H         1 UNK         0.1150 
    137 H137        0.9377  -20.8738  -52.2952 H         1 UNK         0.1150 
    138 H138        3.2334  -17.8914  -50.2365 H         1 UNK         0.1150 
    139 H139        3.6212  -20.5607  -52.4822 H         1 UNK         0.0800 
    140 H140        4.3562  -19.7872  -51.1021 H         1 UNK         0.0800 
    141 H141        2.9086  -20.2590  -48.7586 H         1 UNK         0.0800 
    142 H142        4.1579  -21.3809  -48.3112 H         1 UNK         0.0800 
    143 H143        2.4264  -23.1981  -48.0823 H         1 UNK         0.0600 
    144 H144        2.8875  -21.0958  -46.2706 H         1 UNK         0.3000 
    145 H145        1.0821  -22.4090  -43.5134 H         1 UNK         0.0600 
    146 H146        3.3521  -22.3927  -42.5135 H         1 UNK         0.0600 
    147 H147        3.1481  -23.7622  -43.5957 H         1 UNK         0.0600 
    148 H148        4.0850  -22.3702  -44.1174 H         1 UNK         0.0600 
    149 H149        1.0839  -20.2420  -43.4639 H         1 UNK         0.3000 
    150 H150        3.3899  -17.6578  -43.8794 H         1 UNK         0.0600 
    151 H151        2.1274  -17.4631  -45.9918 H         1 UNK         0.0600 
    152 H152        1.3117  -16.5234  -44.7473 H         1 UNK         0.0600 
    153 H153        0.6649  -18.0847  -45.2332 H         1 UNK         0.0600 
    154 H154        0.7736  -17.8076  -42.7307 H         1 UNK         0.3000 
    155 H155        1.7021  -19.1292  -39.5436 H         1 UNK         0.0600 
    156 H156        0.5772  -16.4264  -40.4495 H         1 UNK         0.0600 
    157 H157        1.9738  -16.6557  -39.4074 H         1 UNK         0.0600 
    158 H158        0.3805  -17.1507  -38.8561 H         1 UNK         0.0600 
    159 H159       -0.7442  -18.4316  -40.9891 H         1 UNK         0.3000 
    160 H160       -1.4861  -21.7294  -42.0117 H         1 UNK         0.0600 
    161 H161       -3.5258  -21.4869  -40.6204 H         1 UNK         0.0600 
    162 H162       -2.7480  -20.2344  -39.6514 H         1 UNK         0.0600 
    163 H163       -2.1442  -21.8869  -39.6127 H         1 UNK         0.0600 
    164 H164       -2.9596  -19.2324  -41.8827 H         1 UNK         0.3000 
    165 H165       -1.8965  -18.0053  -45.0243 H         1 UNK         0.0600 
    166 H166       -4.2926  -18.0828  -45.5851 H         1 UNK         0.0600 
    167 H167       -3.6651  -19.7227  -45.6062 H         1 UNK         0.0600 
    168 H168       -4.6217  -19.1742  -44.2384 H         1 UNK         0.0600 
    169 H169       -3.8685  -16.9843  -43.3244 H         1 UNK         0.3000 
    170 H170       -3.2970  -14.8772  -42.3690 H         1 UNK         0.0600 
    171 H171       -3.8727  -16.6169  -40.6624 H         1 UNK         0.0600 
    172 H172       -2.2792  -16.4592  -39.9329 H         1 UNK         0.0600 
    173 H173       -3.4192  -15.1157  -39.8751 H         1 UNK         0.0600 
    174 H174       -0.9513  -14.5589  -40.6629 H         1 UNK         0.3000 
    175 H175        0.3043  -12.6786  -40.9248 H         1 UNK         0.0600 
    176 H176        1.6778  -13.9303  -43.3696 H         1 UNK         0.0600 
    177 H177        2.5182  -13.2039  -42.0030 H         1 UNK         0.0600 
    178 H178        1.5621  -14.6615  -41.7775 H         1 UNK         0.0600 
    179 H179        0.2814  -11.6185  -43.7079 H         1 UNK         0.3000 
    180 H180       -0.1414   -8.8556  -43.2409 H         1 UNK         0.0600 
    181 H181        2.6860   -8.2641  -42.2206 H         1 UNK         0.0600 
    182 H182        1.1804   -7.6577  -41.5457 H         1 UNK         0.0600 
    183 H183        1.6861   -7.1453  -43.1462 H         1 UNK         0.0600 
    184 H184        0.7532   -9.4070  -45.1731 H         1 UNK         0.3000 
    185 H185        2.1242   -9.8044  -46.7990 H         1 UNK         0.0600 
    186 H186        5.0446  -10.4629  -46.1495 H         1 UNK         0.0600 
    187 H187        4.3838  -10.0605  -47.7340 H         1 UNK         0.0600 
    188 H188        4.4182   -8.8488  -46.4628 H         1 UNK         0.0600 
    189 H189        3.5095  -12.2609  -46.8183 H         1 UNK         0.3000 
    190 H190        0.4297  -20.2966  -47.4327 H         1 UNK         0.3000 
    191 H191       -1.4964  -20.8024  -49.5009 H         1 UNK         0.0600 
    192 H192       -1.6098  -19.1214  -46.9577 H         1 UNK         0.0600 
    193 H193       -2.8634  -19.1160  -48.1962 H         1 UNK         0.0600 
    194 H194       -1.2427  -18.5594  -48.5813 H         1 UNK         0.0600 
    195 H195       -1.2599  -21.8371  -46.0900 H         1 UNK         0.3000 
    196 H196       -3.8564  -23.1063  -46.0066 H         1 UNK         0.0600 
    197 H197       -1.3797  -23.3821  -44.2301 H         1 UNK         0.0600 
    198 H198       -2.9252  -24.1606  -43.9107 H         1 UNK         0.0600 
    199 H199       -2.8200  -22.4105  -43.9245 H         1 UNK         0.0600 
    200 H200       -0.5142  -24.2562  -46.6615 H         1 UNK         0.3000 
    201 H201       -1.1204  -26.9894  -47.0557 H         1 UNK         0.0600 
    202 H202        1.1783  -26.1133  -46.6991 H         1 UNK         0.0600 
    203 H203        1.1305  -25.2930  -48.2586 H         1 UNK         0.0600 
    204 H204        1.1005  -27.0497  -48.1841 H         1 UNK         0.0600 
    205 H205       -1.3093  -24.2415  -49.2983 H         1 UNK         0.3000 
    206 H206       -1.9343  -25.7337  -51.6635 H         1 UNK         0.0600 
    207 H207       -1.0596  -23.3891  -51.6597 H         1 UNK         0.0600 
    208 H208       -2.5600  -23.5101  -52.5551 H         1 UNK         0.0600 
    209 H209       -2.5624  -22.8230  -50.9371 H         1 UNK         0.0600 
    210 H210       -3.7848  -25.1863  -48.8583 H         1 UNK         0.3000 
    211 H211       -5.7532  -25.7266  -48.1330 H         1 UNK         0.0600 
    212 H212       -6.2155  -27.2179  -50.7662 H         1 UNK         0.0600 
    213 H213       -7.1370  -27.4163  -49.2842 H         1 UNK         0.0600 
    214 H214       -5.4403  -27.8703  -49.3241 H         1 UNK         0.0600 
    215 H215       -6.2523  -24.8089  -51.5528 H         1 UNK         0.3000 
    216 H216       -8.7278  -23.3110  -50.8797 H         1 UNK         0.0600 
    217 H217       -9.0999  -23.2548  -53.2545 H         1 UNK         0.0600 
    218 H218       -8.5553  -24.8812  -52.8987 H         1 UNK         0.0600 
    219 H219       -7.4449  -23.7175  -53.6229 H         1 UNK         0.0600 
    220 H220       -5.5018  -22.6737  -50.7255 H         1 UNK         0.3000 
    221 H221       -4.1282  -20.9365  -50.7334 H         1 UNK         0.0600 
    222 H222       -6.6665  -19.3182  -50.1347 H         1 UNK         0.0600 
    223 H223       -5.6543  -20.1486  -48.9602 H         1 UNK         0.0600 
    224 H224       -5.0095  -18.7816  -49.8453 H         1 UNK         0.0600 
    225 H225       -5.8797  -18.2933  -51.8047 H         1 UNK         0.3000 
    226 H226       -4.3121  -17.7884  -54.0422 H         1 UNK         0.0600 
    227 H227       -5.5369  -16.0517  -52.7869 H         1 UNK         0.0600 
    228 H228       -5.9708  -15.9737  -54.4864 H         1 UNK         0.0600 
    229 H229       -7.0840  -16.7007  -53.3335 H         1 UNK         0.0600 
    230 H230       -7.3497  -19.6042  -53.9121 H         1 UNK         0.3000 
    231 H231       -7.8321  -19.5972  -56.7689 H         1 UNK         0.0600 
    232 H232       -9.6798  -19.8815  -55.1634 H         1 UNK         0.0600 
    233 H233       -8.9402  -21.3417  -54.5148 H         1 UNK         0.0600 
    234 H234       -9.5481  -21.3187  -56.1653 H         1 UNK         0.0600 
    235 H235       -5.6538  -21.3867  -54.7267 H         1 UNK         0.3000 
    236 H236       -5.3125  -23.5742  -56.7235 H         1 UNK         0.0600 
    237 H237       -3.7754  -24.4837  -54.8724 H         1 UNK         0.0600 
    238 H238       -4.4603  -23.2535  -53.8170 H         1 UNK         0.0600 
    239 H239       -5.4910  -24.4864  -54.5301 H         1 UNK         0.0600 
    240 H240       -3.4074  -21.0663  -54.9064 H         1 UNK         0.3000 
    241 H241       -1.0953  -21.5673  -56.6002 H         1 UNK         0.0600 
    242 H242       -3.0066  -18.4647  -58.3297 H         1 UNK         0.3800 
    243 H243       -3.7988  -19.3220  -57.0391 H         1 UNK         0.3800 
    244 H244       -0.6497  -21.1209  -54.3020 H         1 UNK         0.0800 
    245 H245        0.0948  -19.8924  -55.2743 H         1 UNK         0.0800 
    246 H246       -2.2760  -19.1684  -51.6531 H         1 UNK         0.0800 
    247 H247       -1.5656  -20.6521  -52.2270 H         1 UNK         0.0800 
@<TRIPOS>BOND
     1    1    2 1    
     2    1  127 1    
     3    1  128 1    
     4    1  129 1    
     5    2    3 2    
     6    2    4 am   BACKBONE|DICT|INTERRES
     7    4    5 1    
     8    4  130 1    
     9    5    6 1    
    10    5   65 1    
    11    5  131 1    
    12    6    7 1    
    13    6  132 1    
    14    6  133 1    
    15    7    8 1    
    16    8    9 1    
    17    8  134 1    
    18    8  135 1    
    19    9   10 ar   
    20    9   14 ar   
    21   10   11 ar   
    22   10  136 1    
    23   11   12 ar   
    24   11  126 1    
    25   12   13 ar   
    26   12  137 1    
    27   13   14 ar   
    28   13   15 1    
    29   14  138 1    
    30   15   16 1    
    31   15  139 1    
    32   15  140 1    
    33   16   17 1    
    34   17   18 1    
    35   17  141 1    
    36   17  142 1    
    37   18   19 1    
    38   18   67 1    
    39   18  143 1    
    40   19   20 am   BACKBONE|DICT|INTERRES
    41   19  144 1    
    42   20   21 2    
    43   20   22 1    
    44   22   23 1    
    45   22   24 1    
    46   22  145 1    
    47   23  146 1    
    48   23  147 1    
    49   23  148 1    
    50   24   25 am   BACKBONE|DICT|INTERRES
    51   24  149 1    
    52   25   26 2    
    53   25   27 1    
    54   27   28 1    
    55   27   29 1    
    56   27  150 1    
    57   28  151 1    
    58   28  152 1    
    59   28  153 1    
    60   29   30 am   BACKBONE|DICT|INTERRES
    61   29  154 1    
    62   30   31 2    
    63   30   32 1    
    64   32   33 1    
    65   32   34 1    
    66   32  155 1    
    67   33  156 1    
    68   33  157 1    
    69   33  158 1    
    70   34   35 am   BACKBONE|DICT|INTERRES
    71   34  159 1    
    72   35   36 2    
    73   35   37 1    
    74   37   38 1    
    75   37   39 1    
    76   37  160 1    
    77   38  161 1    
    78   38  162 1    
    79   38  163 1    
    80   39   40 am   BACKBONE|DICT|INTERRES
    81   39  164 1    
    82   40   41 2    
    83   40   42 1    
    84   42   43 1    
    85   42   44 1    
    86   42  165 1    
    87   43  166 1    
    88   43  167 1    
    89   43  168 1    
    90   44   45 am   BACKBONE|DICT|INTERRES
    91   44  169 1    
    92   45   46 2    
    93   45   47 1    
    94   47   48 1    
    95   47   49 1    
    96   47  170 1    
    97   48  171 1    
    98   48  172 1    
    99   48  173 1    
   100   49   50 am   BACKBONE|DICT|INTERRES
   101   49  174 1    
   102   50   51 2    
   103   50   52 1    
   104   52   53 1    
   105   52   54 1    
   106   52  175 1    
   107   53  176 1    
   108   53  177 1    
   109   53  178 1    
   110   54   55 am   BACKBONE|DICT|INTERRES
   111   54  179 1    
   112   55   56 2    
   113   55   57 1    
   114   57   58 1    
   115   57   59 1    
   116   57  180 1    
   117   58  181 1    
   118   58  182 1    
   119   58  183 1    
   120   59   60 am   BACKBONE|DICT|INTERRES
   121   59  184 1    
   122   60   61 2    
   123   60   62 1    
   124   62   63 1    
   125   62   64 1    
   126   62  185 1    
   127   63  186 1    
   128   63  187 1    
   129   63  188 1    
   130   64   65 am   BACKBONE|DICT|INTERRES
   131   64  189 1    
   132   65   66 2    
   133   67   68 2    
   134   67   69 am   BACKBONE|DICT|INTERRES
   135   69   70 1    
   136   69  190 1    
   137   70   71 1    
   138   70   72 1    
   139   70  191 1    
   140   71  192 1    
   141   71  193 1    
   142   71  194 1    
   143   72   73 2    
   144   72   74 am   BACKBONE|DICT|INTERRES
   145   74   75 1    
   146   74  195 1    
   147   75   76 1    
   148   75   77 1    
   149   75  196 1    
   150   76  197 1    
   151   76  198 1    
   152   76  199 1    
   153   77   78 2    
   154   77   79 am   BACKBONE|DICT|INTERRES
   155   79   80 1    
   156   79  200 1    
   157   80   81 1    
   158   80   82 1    
   159   80  201 1    
   160   81  202 1    
   161   81  203 1    
   162   81  204 1    
   163   82   83 2    
   164   82   84 am   BACKBONE|DICT|INTERRES
   165   84   85 1    
   166   84  205 1    
   167   85   86 1    
   168   85   87 1    
   169   85  206 1    
   170   86  207 1    
   171   86  208 1    
   172   86  209 1    
   173   87   88 2    
   174   87   89 am   BACKBONE|DICT|INTERRES
   175   89   90 1    
   176   89  210 1    
   177   90   91 1    
   178   90   92 1    
   179   90  211 1    
   180   91  212 1    
   181   91  213 1    
   182   91  214 1    
   183   92   93 2    
   184   92   94 am   BACKBONE|DICT|INTERRES
   185   94   95 1    
   186   94  215 1    
   187   95   96 1    
   188   95   97 1    
   189   95  216 1    
   190   96  217 1    
   191   96  218 1    
   192   96  219 1    
   193   97   98 2    
   194   97   99 am   BACKBONE|DICT|INTERRES
   195   99  100 1    
   196   99  220 1    
   197  100  101 1    
   198  100  102 1    
   199  100  221 1    
   200  101  222 1    
   201  101  223 1    
   202  101  224 1    
   203  102  103 2    
   204  102  104 am   BACKBONE|DICT|INTERRES
   205  104  105 1    
   206  104  225 1    
   207  105  106 1    
   208  105  107 1    
   209  105  226 1    
   210  106  227 1    
   211  106  228 1    
   212  106  229 1    
   213  107  108 2    
   214  107  109 am   BACKBONE|DICT|INTERRES
   215  109  110 1    
   216  109  230 1    
   217  110  111 1    
   218  110  112 1    
   219  110  231 1    
   220  111  232 1    
   221  111  233 1    
   222  111  234 1    
   223  112  113 2    
   224  112  114 am   BACKBONE|DICT|INTERRES
   225  114  115 1    
   226  114  235 1    
   227  115  116 1    
   228  115  117 1    
   229  115  236 1    
   230  116  237 1    
   231  116  238 1    
   232  116  239 1    
   233  117  118 2    
   234  117  119 am   BACKBONE|DICT|INTERRES
   235  119  120 1    
   236  119  240 1    
   237  120  121 1    
   238  120  124 1    
   239  120  241 1    
   240  121  122 am   BACKBONE|DICT|INTERRES
   241  121  123 2    
   242  122  242 1    
   243  122  243 1    
   244  124  125 1    
   245  124  244 1    
   246  124  245 1    
   247  125  126 1    
   248  126  246 1    
   249  126  247 1    
@<TRIPOS>SUBSTRUCTURE
     1 UNK         1 GROUP             0       ****    0 ROOT    
