@<TRIPOS>MOLECULE
3R540
247   249    1
SMALL
USER_CHARGES


@<TRIPOS>ATOM
      1 CA          2.1479  -12.7053  -48.4775 C.3       0 UNK        -0.1800 
      2 C           0.7287  -12.9988  -48.0163 C.2       0 UNK         0.5000 
      3 O           0.5459  -13.5422  -46.9274 O.2       0 UNK        -0.5000 
      4 N          -0.2686  -12.6104  -48.8223 N.am      1 UNK        -0.5000 
      5 CA         -1.7016  -12.9194  -48.6714 C.3       1 UNK         0.1400 
      6 C6         -2.5378  -12.3914  -49.8647 C.3       23 UNK        -0.0398 
      7 S7         -1.8616  -12.8296  -51.5020 S.3       23 UNK        -0.2404 
      8 C8         -2.8202  -14.3192  -51.9218 C.3       23 UNK        -0.0205 
      9 C9         -2.2749  -15.5713  -51.2496 C.ar      23 UNK        -0.0193 
     10 C10        -1.0013  -16.0398  -51.5842 C.ar      23 UNK        -0.1150 
     11 C11        -0.5114  -17.2335  -51.0447 C.ar      23 UNK        -0.0193 
     12 C12        -1.3098  -17.9502  -50.1501 C.ar      23 UNK        -0.1150 
     13 C13        -2.5749  -17.4813  -49.7825 C.ar      23 UNK        -0.0193 
     14 C14        -3.0535  -16.2898  -50.3368 C.ar      23 UNK        -0.1150 
     15 C15        -3.4297  -18.2858  -48.8142 C.3       23 UNK        -0.0205 
     16 S16        -2.6148  -18.4710  -47.1986 S.3       23 UNK        -0.2404 
     17 C17        -3.6520  -19.7258  -46.3756 C.3       23 UNK        -0.0398 
     18 CA         -3.0885  -21.1716  -46.4402 C.3       11 UNK         0.1400 
     19 N          -1.6330  -21.2458  -46.2530 N.am      11 UNK        -0.5000 
     20 C          -0.8851  -22.3506  -46.3765 C.2       10 UNK         0.5000 
     21 O          -1.3592  -23.4584  -46.6331 O.2       10 UNK        -0.5000 
     22 CA          0.6280  -22.2287  -46.1151 C.3       10 UNK         0.1400 
     23 CB          1.4575  -23.1134  -47.0693 C.3       10 UNK        -0.1800 
     24 N           1.1375  -20.8531  -46.0761 N.am      10 UNK        -0.5000 
     25 C           1.2887  -19.9916  -47.0964 C.2       9 UNK         0.5000 
     26 O           0.9538  -20.2359  -48.2539 O.2       9 UNK        -0.5000 
     27 CA          1.9275  -18.6209  -46.7789 C.3       9 UNK         0.1400 
     28 CB          0.9470  -17.4757  -47.0683 C.3       9 UNK        -0.1800 
     29 N           2.4025  -18.5197  -45.3947 N.am      9 UNK        -0.5000 
     30 C           3.5656  -19.0251  -44.9609 C.2       8 UNK         0.5000 
     31 O           4.4088  -19.5304  -45.7020 O.2       8 UNK        -0.5000 
     32 CA          3.8131  -19.0082  -43.4420 C.3       8 UNK         0.1400 
     33 CB          4.7235  -17.8399  -43.0329 C.3       8 UNK        -0.1800 
     34 N           2.5819  -18.9740  -42.6464 N.am      8 UNK        -0.5000 
     35 C           1.7684  -20.0237  -42.4717 C.2       7 UNK         0.5000 
     36 O           1.8956  -21.0878  -43.0772 O.2       7 UNK        -0.5000 
     37 CA          0.6372  -19.8637  -41.4419 C.3       7 UNK         0.1400 
     38 CB          1.1826  -19.4625  -40.0605 C.3       7 UNK        -0.1800 
     39 N          -0.3852  -18.9048  -41.8535 N.am      7 UNK        -0.5000 
     40 C          -1.3207  -19.1407  -42.7816 C.2       6 UNK         0.5000 
     41 O          -1.3539  -20.1558  -43.4766 O.2       6 UNK        -0.5000 
     42 CA         -2.4317  -18.0857  -42.9515 C.3       6 UNK         0.1400 
     43 CB         -3.7581  -18.6174  -42.3892 C.3       6 UNK        -0.1800 
     44 N          -2.1279  -16.8112  -42.2922 N.am      6 UNK        -0.5000 
     45 C          -1.4443  -15.7760  -42.8005 C.2       5 UNK         0.5000 
     46 O          -1.2562  -14.7533  -42.1416 O.2       5 UNK        -0.5000 
     47 CA         -0.9226  -15.8488  -44.2545 C.3       5 UNK         0.1400 
     48 CB         -1.9946  -15.3554  -45.2348 C.3       5 UNK        -0.1800 
     49 N           0.2867  -15.0602  -44.4657 N.am      5 UNK        -0.5000 
     50 C           1.4649  -15.2887  -43.8748 C.2       4 UNK         0.5000 
     51 O           1.6679  -16.2379  -43.1167 O.2       4 UNK        -0.5000 
     52 CA          2.6070  -14.3089  -44.1880 C.3       4 UNK         0.1400 
     53 CB          3.4469  -14.8103  -45.3745 C.3       4 UNK        -0.1800 
     54 N           2.0991  -12.9715  -44.5007 N.am      4 UNK        -0.5000 
     55 C           2.2152  -11.9059  -43.6983 C.2       3 UNK         0.5000 
     56 O           2.7665  -11.9317  -42.5971 O.2       3 UNK        -0.5000 
     57 CA          1.6337  -10.5767  -44.2139 C.3       3 UNK         0.1400 
     58 CB          2.6592   -9.8494  -45.0976 C.3       3 UNK        -0.1800 
     59 N           0.3846  -10.7354  -44.9612 N.am      3 UNK        -0.5000 
     60 C          -0.8089  -10.9664  -44.3919 C.2       2 UNK         0.5000 
     61 O          -0.9647  -11.1072  -43.1790 O.2       2 UNK        -0.5000 
     62 CA         -2.0386  -11.0364  -45.3153 C.3       2 UNK         0.1400 
     63 CB         -2.7293   -9.6664  -45.4114 C.3       2 UNK        -0.1800 
     64 N          -1.6839  -11.4970  -46.6574 N.am      2 UNK        -0.5000 
     65 C          -2.3416  -12.4339  -47.3497 C.2       1 UNK         0.5000 
     66 O          -3.4174  -12.9155  -46.9931 O.2       1 UNK        -0.5000 
     67 C          -3.8466  -22.0745  -45.4454 C.2       11 UNK         0.5000 
     68 O          -4.8349  -22.7018  -45.8212 O.2       11 UNK        -0.5000 
     69 N          -3.3510  -22.1425  -44.2025 N.am      12 UNK        -0.5000 
     70 CA         -3.8828  -23.0032  -43.1456 C.3       12 UNK         0.1400 
     71 CB         -3.3880  -22.4825  -41.7864 C.3       12 UNK        -0.1800 
     72 C          -3.4934  -24.4852  -43.3131 C.2       12 UNK         0.5000 
     73 O          -4.1910  -25.3527  -42.7866 O.2       12 UNK        -0.5000 
     74 N          -2.3778  -24.7483  -44.0056 N.am      13 UNK        -0.5000 
     75 CA         -1.7844  -26.0760  -44.1451 C.3       13 UNK         0.1400 
     76 CB         -0.2529  -25.9414  -44.1867 C.3       13 UNK        -0.1800 
     77 C          -2.3029  -26.8104  -45.3903 C.2       13 UNK         0.5000 
     78 O          -2.7582  -27.9493  -45.2795 O.2       13 UNK        -0.5000 
     79 N          -2.2107  -26.1539  -46.5531 N.am      14 UNK        -0.5000 
     80 CA         -2.5357  -26.7362  -47.8568 C.3       14 UNK         0.1400 
     81 CB         -1.5898  -26.1296  -48.9069 C.3       14 UNK        -0.1800 
     82 C          -3.9992  -26.5101  -48.2752 C.2       14 UNK         0.5000 
     83 O          -4.4501  -27.1640  -49.2153 O.2       14 UNK        -0.5000 
     84 N          -4.6867  -25.5866  -47.5867 N.am      15 UNK        -0.5000 
     85 CA         -5.9257  -24.8933  -47.9584 C.3       15 UNK         0.1400 
     86 CB         -7.0162  -25.8221  -48.5280 C.3       15 UNK        -0.1800 
     87 C          -5.6096  -23.7291  -48.9136 C.2       15 UNK         0.5000 
     88 O          -4.7342  -23.8475  -49.7751 O.2       15 UNK        -0.5000 
     89 N          -6.3226  -22.6096  -48.7339 N.am      16 UNK        -0.5000 
     90 CA         -6.0463  -21.3247  -49.3822 C.3       16 UNK         0.1400 
     91 CB         -7.0348  -20.2675  -48.8702 C.3       16 UNK        -0.1800 
     92 C          -6.0403  -21.3678  -50.9199 C.2       16 UNK         0.5000 
     93 O          -5.1906  -20.7282  -51.5379 O.2       16 UNK        -0.5000 
     94 N          -6.9560  -22.1539  -51.5011 N.am      17 UNK        -0.5000 
     95 CA         -7.0839  -22.3512  -52.9459 C.3       17 UNK         0.1400 
     96 CB         -8.3856  -23.1141  -53.2346 C.3       17 UNK        -0.1800 
     97 C          -5.8808  -23.0783  -53.5775 C.2       17 UNK         0.5000 
     98 O          -5.5533  -22.8068  -54.7331 O.2       17 UNK        -0.5000 
     99 N          -5.2433  -23.9764  -52.8143 N.am      18 UNK        -0.5000 
    100 CA        -4.0339  -24.6866  -53.2256 C.3       18 UNK         0.1400 
    101 CB        -3.9576  -26.0361  -52.4992 C.3       18 UNK        -0.1800 
    102 C         -2.7802  -23.8468  -52.9410 C.2       18 UNK         0.5000 
    103 O         -1.8880  -23.7833  -53.7855 O.2       18 UNK        -0.5000 
    104 N         -2.7446  -23.1973  -51.7690 N.am      19 UNK        -0.5000 
    105 CA        -1.6491  -22.3384  -51.3167 C.3       19 UNK         0.1400 
    106 CB        -1.9330  -21.8877  -49.8820 C.3       19 UNK        -0.1800 
    107 C         -1.4043  -21.1233  -52.2300 C.2       19 UNK         0.5000 
    108 O         -0.2506  -20.7581  -52.4493 O.2       19 UNK        -0.5000 
    109 N         -2.4838  -20.5677  -52.8010 N.am      20 UNK        -0.5000 
    110 CA        -2.4787  -19.4579  -53.7602 C.3       20 UNK         0.1400 
    111 CB        -3.9285  -19.0234  -54.0246 C.3       20 UNK        -0.1800 
    112 C         -1.7388  -19.7358  -55.0895 C.2       20 UNK         0.5000 
    113 O         -1.5160  -18.7987  -55.8573 O.2       20 UNK        -0.5000 
    114 N         -1.3286  -20.9902  -55.3359 N.am      21 UNK        -0.5000 
    115 CA        -0.4406  -21.3913  -56.4328 C.3       21 UNK         0.1400 
    116 CB        -0.4786  -22.9208  -56.5747 C.3       21 UNK        -0.1800 
    117 C          1.0160  -20.8917  -56.2772 C.2       21 UNK         0.5000 
    118 O          1.8202  -21.1019  -57.1862 O.2       21 UNK        -0.5000 
    119 N          1.3299  -20.2394  -55.1487 N.am      22 UNK        -0.5000 
    120 CA         2.5884  -19.5379  -54.8429 C.3       22 UNK         0.1400 
    121 C          3.0578  -18.4776  -55.8875 C.2       22 UNK         0.5000 
    122 N          2.1750  -17.9054  -56.6981 N.am      22 UNK        -0.7600 
    123 O          4.2457  -18.1748  -55.9625 O.2       22 UNK        -0.5000 
    124 C124        2.5380  -18.9160  -53.4200 C.3       23 UNK        -0.0398 
    125 S125        1.1629  -17.7243  -53.2160 S.3       23 UNK        -0.2404 
    126 C126        0.8722  -17.7579  -51.4168 C.3       23 UNK        -0.0205 
    127 H127        2.1631  -12.0829  -49.3724 H         1 UNK         0.0600 
    128 H128        2.6651  -13.6381  -48.7013 H         1 UNK         0.0600 
    129 H129        2.7015  -12.1894  -47.6938 H         1 UNK         0.0600 
    130 H130       -0.0343  -12.1631  -49.6975 H         1 UNK         0.3000 
    131 H131       -1.7790  -14.0087  -48.6655 H         1 UNK         0.0600 
    132 H132       -3.5669  -12.7491  -49.7979 H         1 UNK         0.0800 
    133 H133       -2.5985  -11.3021  -49.8270 H         1 UNK         0.0800 
    134 H134       -2.7773  -14.4632  -53.0022 H         1 UNK         0.0800 
    135 H135       -3.8732  -14.1662  -51.6811 H         1 UNK         0.0800 
    136 H136       -0.3977  -15.4799  -52.2845 H         1 UNK         0.1150 
    137 H137       -0.9428  -18.8747  -49.7270 H         1 UNK         0.1150 
    138 H138       -4.0392  -15.9327  -50.0737 H         1 UNK         0.1150 
    139 H139       -4.4057  -17.8195  -48.6717 H         1 UNK         0.0800 
    140 H140       -3.6111  -19.2642  -49.2522 H         1 UNK         0.0800 
    141 H141       -4.6575  -19.6944  -46.7977 H         1 UNK         0.0800 
    142 H142       -3.7627  -19.4061  -45.3401 H         1 UNK         0.0800 
    143 H143       -3.2942  -21.5624  -47.4367 H         1 UNK         0.0600 
    144 H144       -1.1731  -20.3840  -45.9995 H         1 UNK         0.3000 
    145 H145        0.7765  -22.6193  -45.1076 H         1 UNK         0.0600 
    146 H146        2.5242  -23.0228  -46.8645 H         1 UNK         0.0600 
    147 H147        1.1957  -24.1660  -46.9574 H         1 UNK         0.0600 
    148 H148        1.2907  -22.8510  -48.1144 H         1 UNK         0.0600 
    149 H149        1.4477  -20.5559  -45.1593 H         1 UNK         0.3000 
    150 H150        2.7789  -18.5007  -47.4520 H         1 UNK         0.0600 
    151 H151        0.6602  -17.4645  -48.1197 H         1 UNK         0.0600 
    152 H152        1.3843  -16.5037  -46.8476 H         1 UNK         0.0600 
    153 H153        0.0348  -17.5763  -46.4867 H         1 UNK         0.0600 
    154 H154        1.7816  -18.1038  -44.7146 H         1 UNK         0.3000 
    155 H155        4.3421  -19.9329  -43.2006 H         1 UNK         0.0600 
    156 H156        4.2365  -16.8755  -43.1651 H         1 UNK         0.0600 
    157 H157        5.6395  -17.8297  -43.6250 H         1 UNK         0.0600 
    158 H158        5.0163  -17.9215  -41.9861 H         1 UNK         0.0600 
    159 H159        2.3526  -18.0885  -42.2111 H         1 UNK         0.3000 
    160 H160        0.1609  -20.8408  -41.3326 H         1 UNK         0.0600 
    161 H161        1.5993  -18.4547  -40.0611 H         1 UNK         0.0600 
    162 H162        1.9703  -20.1445  -39.7374 H         1 UNK         0.0600 
    163 H163        0.3971  -19.4964  -39.3054 H         1 UNK         0.0600 
    164 H164       -0.4175  -18.0306  -41.3495 H         1 UNK         0.3000 
    165 H165       -2.5785  -17.9310  -44.0191 H         1 UNK         0.0600 
    166 H166       -4.5609  -17.8917  -42.5214 H         1 UNK         0.0600 
    167 H167       -4.0656  -19.5292  -42.9014 H         1 UNK         0.0600 
    168 H168       -3.6841  -18.8454  -41.3250 H         1 UNK         0.0600 
    169 H169       -2.4794  -16.7222  -41.3500 H         1 UNK         0.3000 
    170 H170       -0.6603  -16.8771  -44.4939 H         1 UNK         0.0600 
    171 H171       -2.9092  -15.9442  -45.1664 H         1 UNK         0.0600 
    172 H172       -2.2617  -14.3196  -45.0271 H         1 UNK         0.0600 
    173 H173       -1.6478  -15.4159  -46.2670 H         1 UNK         0.0600 
    174 H174        0.2220  -14.3086  -45.1424 H         1 UNK         0.3000 
    175 H175        3.2543  -14.2821  -43.3092 H         1 UNK         0.0600 
    176 H176        2.8830  -14.7942  -46.3063 H         1 UNK         0.0600 
    177 H177        4.3319  -14.1897  -45.5144 H         1 UNK         0.0600 
    178 H178        3.7892  -15.8330  -45.2199 H         1 UNK         0.0600 
    179 H179        1.5970  -12.8811  -45.3766 H         1 UNK         0.3000 
    180 H180        1.4367   -9.9448  -43.3449 H         1 UNK         0.0600 
    181 H181        2.2933   -8.8684  -45.4012 H         1 UNK         0.0600 
    182 H182        2.8913  -10.4158  -45.9998 H         1 UNK         0.0600 
    183 H183        3.5953   -9.6927  -44.5600 H         1 UNK         0.0600 
    184 H184        0.4427  -10.5902  -45.9550 H         1 UNK         0.3000 
    185 H185       -2.7333  -11.7402  -44.8517 H         1 UNK         0.0600 
    186 H186       -3.6432   -9.7285  -46.0024 H         1 UNK         0.0600 
    187 H187       -3.0059   -9.2971  -44.4230 H         1 UNK         0.0600 
    188 H188       -2.0813   -8.9206  -45.8731 H         1 UNK         0.0600 
    189 H189       -0.8166  -11.1642  -47.0468 H         1 UNK         0.3000 
    190 H190       -2.5427  -21.5705  -43.9688 H         1 UNK         0.3000 
    191 H191       -4.9732  -22.9442  -43.1586 H         1 UNK         0.0600 
    192 H192       -3.7358  -23.1186  -40.9714 H         1 UNK         0.0600 
    193 H193       -3.7588  -21.4783  -41.5873 H         1 UNK         0.0600 
    194 H194       -2.2985  -22.4533  -41.7389 H         1 UNK         0.0600 
    195 H195       -1.9051  -23.9857  -44.4686 H         1 UNK         0.3000 
    196 H196       -2.0359  -26.6815  -43.2713 H         1 UNK         0.0600 
    197 H197        0.0810  -25.3316  -45.0264 H         1 UNK         0.0600 
    198 H198        0.1261  -25.4849  -43.2722 H         1 UNK         0.0600 
    199 H199        0.2218  -26.9187  -44.2825 H         1 UNK         0.0600 
    200 H200       -1.8447  -25.2030  -46.5632 H         1 UNK         0.3000 
    201 H201       -2.3627  -27.8141  -47.8313 H         1 UNK         0.0600 
    202 H202       -0.5457  -26.3051  -48.6477 H         1 UNK         0.0600 
    203 H203       -1.7349  -25.0536  -49.0018 H         1 UNK         0.0600 
    204 H204       -1.7601  -26.5695  -49.8904 H         1 UNK         0.0600 
    205 H205       -4.1817  -25.1403  -46.8338 H         1 UNK         0.3000 
    206 H206       -6.3136  -24.4757  -47.0289 H         1 UNK         0.0600 
    207 H207       -7.1521  -26.7050  -47.9035 H         1 UNK         0.0600 
    208 H208       -7.9750  -25.3050  -48.5740 H         1 UNK         0.0600 
    209 H209       -6.7855  -26.1540  -49.5408 H         1 UNK         0.0600 
    210 H210       -7.0235  -22.5978  -48.0070 H         1 UNK         0.3000 
    211 H211       -5.0479  -21.0271  -49.0659 H         1 UNK         0.0600 
    212 H212       -6.8231  -19.2908  -49.3077 H         1 UNK         0.0600 
    213 H213       -6.9718  -20.1574  -47.7875 H         1 UNK         0.0600 
    214 H214       -8.0644  -20.5245  -49.1219 H         1 UNK         0.0600 
    215 H215       -7.6033  -22.6556  -50.9111 H         1 UNK         0.3000 
    216 H216       -7.1538  -21.3667  -53.4135 H         1 UNK         0.0600 
    217 H217       -8.3860  -24.1004  -52.7686 H         1 UNK         0.0600 
    218 H218       -8.5245  -23.2576  -54.3070 H         1 UNK         0.0600 
    219 H219       -9.2538  -22.5673  -52.8663 H         1 UNK         0.0600 
    220 H220       -5.5325  -24.0956  -51.8522 H         1 UNK         0.3000 
    221 H221       -4.0749  -24.8853  -54.2989 H         1 UNK         0.0600 
    222 H222       -4.8393  -26.6452  -52.6984 H         1 UNK         0.0600 
    223 H223       -3.8785  -25.9029  -51.4211 H         1 UNK         0.0600 
    224 H224       -3.0856  -26.6053  -52.8232 H         1 UNK         0.0600 
    225 H225       -3.5090  -23.3384  -51.1133 H         1 UNK         0.3000 
    226 H226       -0.7374  -22.9391  -51.3119 H         1 UNK         0.0600 
    227 H227       -2.8485  -21.3036  -49.8310 H         1 UNK         0.0600 
    228 H228       -2.0443  -22.7414  -49.2156 H         1 UNK         0.0600 
    229 H229       -1.1226  -21.2723  -49.4932 H         1 UNK         0.0600 
    230 H230       -3.3989  -20.9042  -52.5199 H         1 UNK         0.3000 
    231 H231       -1.9595  -18.6234  -53.2852 H         1 UNK         0.0600 
    232 H232       -4.5278  -19.8459  -54.4171 H         1 UNK         0.0600 
    233 H233       -3.9727  -18.2067  -54.7462 H         1 UNK         0.0600 
    234 H234       -4.4025  -18.6670  -53.1099 H         1 UNK         0.0600 
    235 H235       -1.5468  -21.7101  -54.6578 H         1 UNK         0.3000 
    236 H236       -0.8314  -20.9575  -57.3552 H         1 UNK         0.0600 
    237 H237       -1.5002  -23.2841  -56.6880 H         1 UNK         0.0600 
    238 H238        0.0807  -23.2471  -57.4522 H         1 UNK         0.0600 
    239 H239       -0.0399  -23.4135  -55.7064 H         1 UNK         0.0600 
    240 H240        0.6165  -20.1594  -54.4344 H         1 UNK         0.3000 
    241 H241        3.3632  -20.3062  -54.8347 H         1 UNK         0.0600 
    242 H242        2.4849  -17.2238  -57.3723 H         1 UNK         0.3800 
    243 H243        1.1948  -18.1300  -56.6219 H         1 UNK         0.3800 
    244 H244        3.4785  -18.4198  -53.1743 H         1 UNK         0.0800 
    245 H245        2.4227  -19.7150  -52.6864 H         1 UNK         0.0800 
    246 H246        1.6307  -17.1547  -50.9169 H         1 UNK         0.0800 
    247 H247        0.9937  -18.7787  -51.0509 H         1 UNK         0.0800 
@<TRIPOS>BOND
     1    1    2 1    
     2    1  127 1    
     3    1  128 1    
     4    1  129 1    
     5    2    3 2    
     6    2    4 am   BACKBONE|DICT|INTERRES
     7    4    5 1    
     8    4  130 1    
     9    5    6 1    
    10    5   65 1    
    11    5  131 1    
    12    6    7 1    
    13    6  132 1    
    14    6  133 1    
    15    7    8 1    
    16    8    9 1    
    17    8  134 1    
    18    8  135 1    
    19    9   10 ar   
    20    9   14 ar   
    21   10   11 ar   
    22   10  136 1    
    23   11   12 ar   
    24   11  126 1    
    25   12   13 ar   
    26   12  137 1    
    27   13   14 ar   
    28   13   15 1    
    29   14  138 1    
    30   15   16 1    
    31   15  139 1    
    32   15  140 1    
    33   16   17 1    
    34   17   18 1    
    35   17  141 1    
    36   17  142 1    
    37   18   19 1    
    38   18   67 1    
    39   18  143 1    
    40   19   20 am   BACKBONE|DICT|INTERRES
    41   19  144 1    
    42   20   21 2    
    43   20   22 1    
    44   22   23 1    
    45   22   24 1    
    46   22  145 1    
    47   23  146 1    
    48   23  147 1    
    49   23  148 1    
    50   24   25 am   BACKBONE|DICT|INTERRES
    51   24  149 1    
    52   25   26 2    
    53   25   27 1    
    54   27   28 1    
    55   27   29 1    
    56   27  150 1    
    57   28  151 1    
    58   28  152 1    
    59   28  153 1    
    60   29   30 am   BACKBONE|DICT|INTERRES
    61   29  154 1    
    62   30   31 2    
    63   30   32 1    
    64   32   33 1    
    65   32   34 1    
    66   32  155 1    
    67   33  156 1    
    68   33  157 1    
    69   33  158 1    
    70   34   35 am   BACKBONE|DICT|INTERRES
    71   34  159 1    
    72   35   36 2    
    73   35   37 1    
    74   37   38 1    
    75   37   39 1    
    76   37  160 1    
    77   38  161 1    
    78   38  162 1    
    79   38  163 1    
    80   39   40 am   BACKBONE|DICT|INTERRES
    81   39  164 1    
    82   40   41 2    
    83   40   42 1    
    84   42   43 1    
    85   42   44 1    
    86   42  165 1    
    87   43  166 1    
    88   43  167 1    
    89   43  168 1    
    90   44   45 am   BACKBONE|DICT|INTERRES
    91   44  169 1    
    92   45   46 2    
    93   45   47 1    
    94   47   48 1    
    95   47   49 1    
    96   47  170 1    
    97   48  171 1    
    98   48  172 1    
    99   48  173 1    
   100   49   50 am   BACKBONE|DICT|INTERRES
   101   49  174 1    
   102   50   51 2    
   103   50   52 1    
   104   52   53 1    
   105   52   54 1    
   106   52  175 1    
   107   53  176 1    
   108   53  177 1    
   109   53  178 1    
   110   54   55 am   BACKBONE|DICT|INTERRES
   111   54  179 1    
   112   55   56 2    
   113   55   57 1    
   114   57   58 1    
   115   57   59 1    
   116   57  180 1    
   117   58  181 1    
   118   58  182 1    
   119   58  183 1    
   120   59   60 am   BACKBONE|DICT|INTERRES
   121   59  184 1    
   122   60   61 2    
   123   60   62 1    
   124   62   63 1    
   125   62   64 1    
   126   62  185 1    
   127   63  186 1    
   128   63  187 1    
   129   63  188 1    
   130   64   65 am   BACKBONE|DICT|INTERRES
   131   64  189 1    
   132   65   66 2    
   133   67   68 2    
   134   67   69 am   BACKBONE|DICT|INTERRES
   135   69   70 1    
   136   69  190 1    
   137   70   71 1    
   138   70   72 1    
   139   70  191 1    
   140   71  192 1    
   141   71  193 1    
   142   71  194 1    
   143   72   73 2    
   144   72   74 am   BACKBONE|DICT|INTERRES
   145   74   75 1    
   146   74  195 1    
   147   75   76 1    
   148   75   77 1    
   149   75  196 1    
   150   76  197 1    
   151   76  198 1    
   152   76  199 1    
   153   77   78 2    
   154   77   79 am   BACKBONE|DICT|INTERRES
   155   79   80 1    
   156   79  200 1    
   157   80   81 1    
   158   80   82 1    
   159   80  201 1    
   160   81  202 1    
   161   81  203 1    
   162   81  204 1    
   163   82   83 2    
   164   82   84 am   BACKBONE|DICT|INTERRES
   165   84   85 1    
   166   84  205 1    
   167   85   86 1    
   168   85   87 1    
   169   85  206 1    
   170   86  207 1    
   171   86  208 1    
   172   86  209 1    
   173   87   88 2    
   174   87   89 am   BACKBONE|DICT|INTERRES
   175   89   90 1    
   176   89  210 1    
   177   90   91 1    
   178   90   92 1    
   179   90  211 1    
   180   91  212 1    
   181   91  213 1    
   182   91  214 1    
   183   92   93 2    
   184   92   94 am   BACKBONE|DICT|INTERRES
   185   94   95 1    
   186   94  215 1    
   187   95   96 1    
   188   95   97 1    
   189   95  216 1    
   190   96  217 1    
   191   96  218 1    
   192   96  219 1    
   193   97   98 2    
   194   97   99 am   BACKBONE|DICT|INTERRES
   195   99  100 1    
   196   99  220 1    
   197  100  101 1    
   198  100  102 1    
   199  100  221 1    
   200  101  222 1    
   201  101  223 1    
   202  101  224 1    
   203  102  103 2    
   204  102  104 am   BACKBONE|DICT|INTERRES
   205  104  105 1    
   206  104  225 1    
   207  105  106 1    
   208  105  107 1    
   209  105  226 1    
   210  106  227 1    
   211  106  228 1    
   212  106  229 1    
   213  107  108 2    
   214  107  109 am   BACKBONE|DICT|INTERRES
   215  109  110 1    
   216  109  230 1    
   217  110  111 1    
   218  110  112 1    
   219  110  231 1    
   220  111  232 1    
   221  111  233 1    
   222  111  234 1    
   223  112  113 2    
   224  112  114 am   BACKBONE|DICT|INTERRES
   225  114  115 1    
   226  114  235 1    
   227  115  116 1    
   228  115  117 1    
   229  115  236 1    
   230  116  237 1    
   231  116  238 1    
   232  116  239 1    
   233  117  118 2    
   234  117  119 am   BACKBONE|DICT|INTERRES
   235  119  120 1    
   236  119  240 1    
   237  120  121 1    
   238  120  124 1    
   239  120  241 1    
   240  121  122 am   BACKBONE|DICT|INTERRES
   241  121  123 2    
   242  122  242 1    
   243  122  243 1    
   244  124  125 1    
   245  124  244 1    
   246  124  245 1    
   247  125  126 1    
   248  126  246 1    
   249  126  247 1    
@<TRIPOS>SUBSTRUCTURE
     1 UNK         1 GROUP             0       ****    0 ROOT    
