@<TRIPOS>MOLECULE
3R540
247   249    1
SMALL
USER_CHARGES


@<TRIPOS>ATOM
      1 CA         -1.7386  -11.8100  -52.8079 C.3       0 UNK        -0.1800 
      2 C          -1.4158  -12.3633  -51.4273 C.2       0 UNK         0.5000 
      3 O          -2.3299  -12.6089  -50.6395 O.2       0 UNK        -0.5000 
      4 N          -0.1221  -12.5581  -51.1355 N.am      1 UNK        -0.5000 
      5 CA          0.4423  -13.0491  -49.8725 C.3       1 UNK         0.1400 
      6 C6         -0.0906  -14.4498  -49.4636 C.3       23 UNK        -0.0398 
      7 S7          0.8616  -15.2235  -48.1160 S.3       23 UNK        -0.2404 
      8 C8         -0.1104  -16.7388  -47.8592 C.3       23 UNK        -0.0205 
      9 C9          0.1850  -17.7982  -48.9129 C.ar      23 UNK        -0.0193 
     10 C10        -0.7090  -18.0249  -49.9637 C.ar      23 UNK        -0.1150 
     11 C11        -0.4435  -19.0084  -50.9224 C.ar      23 UNK        -0.0193 
     12 C12         0.7207  -19.7752  -50.8174 C.ar      23 UNK        -0.1150 
     13 C13         1.6302  -19.5481  -49.7817 C.ar      23 UNK        -0.0193 
     14 C14         1.3532  -18.5615  -48.8308 C.ar      23 UNK        -0.1150 
     15 C15         2.9322  -20.3361  -49.7204 C.3       23 UNK        -0.0205 
     16 S16         2.7056  -22.0398  -49.1171 S.3       23 UNK        -0.2404 
     17 C17         2.2870  -21.7551  -47.3644 C.3       23 UNK        -0.0398 
     18 CA          1.0864  -22.5947  -46.8694 C.3       11 UNK         0.1400 
     19 N           0.9530  -22.5295  -45.4118 N.am      11 UNK        -0.5000 
     20 C           0.1953  -23.3530  -44.6745 C.2       10 UNK         0.5000 
     21 O          -0.4222  -24.3105  -45.1400 O.2       10 UNK        -0.5000 
     22 CA          0.0665  -23.0172  -43.1749 C.3       10 UNK         0.1400 
     23 CB          1.2312  -23.6193  -42.3760 C.3       10 UNK        -0.1800 
     24 N           0.0002  -21.5749  -42.9303 N.am      10 UNK        -0.5000 
     25 C          -1.0052  -20.7888  -43.3414 C.2       9 UNK         0.5000 
     26 O          -2.0234  -21.2171  -43.8824 O.2       9 UNK        -0.5000 
     27 CA         -0.8136  -19.2690  -43.1850 C.3       9 UNK         0.1400 
     28 CB         -1.2717  -18.7989  -41.7960 C.3       9 UNK        -0.1800 
     29 N           0.5713  -18.8554  -43.4294 N.am      9 UNK        -0.5000 
     30 C           1.1956  -18.9605  -44.6110 C.2       8 UNK         0.5000 
     31 O           0.6314  -19.3541  -45.6278 O.2       8 UNK        -0.5000 
     32 CA          2.7047  -18.6557  -44.6671 C.3       8 UNK         0.1400 
     33 CB          3.0184  -17.2722  -45.2577 C.3       8 UNK        -0.1800 
     34 N           3.3455  -18.7994  -43.3612 N.am      8 UNK        -0.5000 
     35 C           3.7263  -19.9784  -42.8532 C.2       7 UNK         0.5000 
     36 O           3.6142  -21.0474  -43.4545 O.2       7 UNK        -0.5000 
     37 CA          4.2909  -19.9625  -41.4215 C.3       7 UNK         0.1400 
     38 CB          5.7426  -19.4596  -41.4144 C.3       7 UNK        -0.1800 
     39 N           3.4921  -19.1585  -40.4917 N.am      7 UNK        -0.5000 
     40 C           2.2306  -19.4455  -40.1356 C.2       6 UNK         0.5000 
     41 O           1.5886  -20.3857  -40.6042 O.2       6 UNK        -0.5000 
     42 CA          1.5696  -18.5111  -39.1114 C.3       6 UNK         0.1400 
     43 CB          2.1150  -18.7511  -37.6939 C.3       6 UNK        -0.1800 
     44 N           1.7683  -17.1183  -39.5019 N.am      6 UNK        -0.5000 
     45 C           0.8833  -16.1288  -39.3364 C.2       5 UNK         0.5000 
     46 O          -0.1928  -16.2581  -38.7511 O.2       5 UNK        -0.5000 
     47 CA          1.2516  -14.7595  -39.9497 C.3       5 UNK         0.1400 
     48 CB          2.7685  -14.4678  -39.9254 C.3       5 UNK        -0.1800 
     49 N           0.7200  -14.5871  -41.3071 N.am      5 UNK        -0.5000 
     50 C           0.9323  -15.3842  -42.3653 C.2       4 UNK         0.5000 
     51 O           1.6315  -16.3972  -42.3301 O.2       4 UNK        -0.5000 
     52 CA          0.2758  -14.9603  -43.6943 C.3       4 UNK         0.1400 
     53 CB         -1.2066  -15.3563  -43.7376 C.3       4 UNK        -0.1800 
     54 N           0.3938  -13.5268  -43.9563 N.am      4 UNK        -0.5000 
     55 C           1.5405  -12.8842  -44.2105 C.2       3 UNK         0.5000 
     56 O           2.6403  -13.4385  -44.2482 O.2       3 UNK        -0.5000 
     57 CA          1.4171  -11.3754  -44.5030 C.3       3 UNK         0.1400 
     58 CB          2.7838  -10.6862  -44.6647 C.3       3 UNK        -0.1800 
     59 N           0.6283  -11.1328  -45.7098 N.am      3 UNK        -0.5000 
     60 C          -0.7056  -11.1365  -45.7999 C.2       2 UNK         0.5000 
     61 O          -1.4465  -11.3650  -44.8424 O.2       2 UNK        -0.5000 
     62 CA         -1.3169  -10.8509  -47.1867 C.3       2 UNK         0.1400 
     63 CB         -1.0978   -9.3848  -47.6068 C.3       2 UNK        -0.1800 
     64 N          -0.8924  -11.7770  -48.2449 N.am      2 UNK        -0.5000 
     65 C           0.3293  -11.9868  -48.7567 C.2       1 UNK         0.5000 
     66 O           1.3391  -11.3728  -48.4068 O.2       1 UNK        -0.5000 
     67 C          -0.2421  -22.2323  -47.5710 C.2       11 UNK         0.5000 
     68 O          -0.6554  -22.9473  -48.4826 O.2       11 UNK        -0.5000 
     69 N          -0.9264  -21.1828  -47.0921 N.am      12 UNK        -0.5000 
     70 CA         -2.2584  -20.7829  -47.5494 C.3       12 UNK         0.1400 
     71 CB         -2.6794  -19.4708  -46.8736 C.3       12 UNK        -0.1800 
     72 C          -3.3164  -21.8752  -47.3114 C.2       12 UNK         0.5000 
     73 O          -4.1294  -22.1305  -48.1991 O.2       12 UNK        -0.5000 
     74 N          -3.2665  -22.5280  -46.1418 N.am      13 UNK        -0.5000 
     75 CA         -4.1108  -23.6702  -45.7902 C.3       13 UNK         0.1400 
     76 CB         -3.9137  -24.0314  -44.3108 C.3       13 UNK        -0.1800 
     77 C          -3.8634  -24.8893  -46.6982 C.2       13 UNK         0.5000 
     78 O          -4.8275  -25.4890  -47.1747 O.2       13 UNK        -0.5000 
     79 N          -2.5867  -25.1973  -46.9738 N.am      14 UNK        -0.5000 
     80 CA         -2.1643  -26.2362  -47.9207 C.3       14 UNK         0.1400 
     81 CB         -0.6442  -26.4339  -47.8258 C.3       14 UNK        -0.1800 
     82 C          -2.5922  -25.9390  -49.3732 C.2       14 UNK         0.5000 
     83 O          -2.9178  -26.8654  -50.1152 O.2       14 UNK        -0.5000 
     84 N          -2.6487  -24.6488  -49.7273 N.am      15 UNK        -0.5000 
     85 CA         -3.1919  -24.1082  -50.9748 C.3       15 UNK         0.1400 
     86 CB         -2.5488  -22.7341  -51.2328 C.3       15 UNK        -0.1800 
     87 C          -4.7366  -24.0266  -50.9991 C.2       15 UNK         0.5000 
     88 O          -5.2846  -23.3489  -51.8707 O.2       15 UNK        -0.5000 
     89 N          -5.4111  -24.7012  -50.0549 N.am      16 UNK        -0.5000 
     90 CA         -6.8630  -24.8214  -49.8964 C.3       16 UNK         0.1400 
     91 CB         -7.4859  -25.5764  -51.0893 C.3       16 UNK        -0.1800 
     92 C          -7.5353  -23.4678  -49.6002 C.2       16 UNK         0.5000 
     93 O          -8.5092  -23.0989  -50.2567 O.2       16 UNK        -0.5000 
     94 N          -6.9734  -22.7517  -48.6160 N.am      17 UNK        -0.5000 
     95 CA         -7.3212  -21.3901  -48.1938 C.3       17 UNK         0.1400 
     96 CB         -8.7695  -21.3080  -47.6668 C.3       17 UNK        -0.1800 
     97 C          -7.0010  -20.3608  -49.2959 C.2       17 UNK         0.5000 
     98 O          -7.8185  -19.4895  -49.5975 O.2       17 UNK        -0.5000 
     99 N          -5.8003  -20.5076  -49.8755 N.am      18 UNK        -0.5000 
    100 CA        -5.2244  -19.7115  -50.9628 C.3       18 UNK         0.1400 
    101 CB        -4.8999  -18.2840  -50.4729 C.3       18 UNK        -0.1800 
    102 C         -6.0616  -19.7368  -52.2611 C.2       18 UNK         0.5000 
    103 O         -6.1280  -18.7339  -52.9740 O.2       18 UNK        -0.5000 
    104 N         -6.6857  -20.8867  -52.5466 N.am      19 UNK        -0.5000 
    105 CA        -7.4506  -21.1317  -53.7678 C.3       19 UNK         0.1400 
    106 CB        -8.5165  -22.2018  -53.4945 C.3       19 UNK        -0.1800 
    107 C         -6.5443  -21.5581  -54.9354 C.2       19 UNK         0.5000 
    108 O         -6.8642  -21.2551  -56.0862 O.2       19 UNK        -0.5000 
    109 N         -5.4359  -22.2489  -54.6287 N.am      20 UNK        -0.5000 
    110 CA        -4.4117  -22.6411  -55.5977 C.3       20 UNK         0.1400 
    111 CB        -3.4503  -23.6469  -54.9463 C.3       20 UNK        -0.1800 
    112 C         -3.6393  -21.4221  -56.1392 C.2       20 UNK         0.5000 
    113 O         -3.4870  -20.4202  -55.4349 O.2       20 UNK        -0.5000 
    114 N         -3.1509  -21.5392  -57.3794 N.am      21 UNK        -0.5000 
    115 CA        -2.4401  -20.4946  -58.1184 C.3       21 UNK         0.1400 
    116 CB        -2.5380  -20.8065  -59.6230 C.3       21 UNK        -0.1800 
    117 C         -0.9816  -20.3216  -57.6430 C.2       21 UNK         0.5000 
    118 O         -0.0449  -20.6284  -58.3831 O.2       21 UNK        -0.5000 
    119 N         -0.8173  -19.8385  -56.4075 N.am      22 UNK        -0.5000 
    120 CA         0.4757  -19.5046  -55.7868 C.3       22 UNK         0.1400 
    121 C          1.1662  -18.2193  -56.3359 C.2       22 UNK         0.5000 
    122 N          0.4990  -17.3862  -57.1257 N.am      22 UNK        -0.7600 
    123 O          2.3375  -17.9828  -56.0523 O.2       22 UNK        -0.5000 
    124 C124        0.3829  -19.4928  -54.2391 C.3       23 UNK        -0.0398 
    125 S125       -0.8920  -18.3582  -53.5795 S.3       23 UNK        -0.2404 
    126 C126       -1.4113  -19.2360  -52.0733 C.3       23 UNK        -0.0205 
    127 H127       -2.3745  -12.5084  -53.3520 H         1 UNK         0.0600 
    128 H128       -0.8380  -11.6392  -53.3983 H         1 UNK         0.0600 
    129 H129       -2.2704  -10.8629  -52.7169 H         1 UNK         0.0600 
    130 H130        0.5672  -12.3084  -51.8314 H         1 UNK         0.3000 
    131 H131        1.5087  -13.1665  -50.0734 H         1 UNK         0.0600 
    132 H132       -1.1401  -14.4081  -49.1707 H         1 UNK         0.0800 
    133 H133       -0.0451  -15.1178  -50.3248 H         1 UNK         0.0800 
    134 H134        0.1171  -17.1352  -46.8710 H         1 UNK         0.0800 
    135 H135       -1.1734  -16.4942  -47.8425 H         1 UNK         0.0800 
    136 H136       -1.6096  -17.4319  -50.0386 H         1 UNK         0.1150 
    137 H137        0.9314  -20.5394  -51.5515 H         1 UNK         0.1150 
    138 H138        2.0512  -18.3797  -48.0271 H         1 UNK         0.1150 
    139 H139        3.3701  -20.3759  -50.7189 H         1 UNK         0.0800 
    140 H140        3.6635  -19.8250  -49.0921 H         1 UNK         0.0800 
    141 H141        2.1084  -20.6958  -47.1959 H         1 UNK         0.0800 
    142 H142        3.1732  -22.0024  -46.7782 H         1 UNK         0.0800 
    143 H143        1.2997  -23.6371  -47.1164 H         1 UNK         0.0600 
    144 H144        1.4127  -21.7603  -44.9469 H         1 UNK         0.3000 
    145 H145       -0.8614  -23.4636  -42.8117 H         1 UNK         0.0600 
    146 H146        1.1202  -23.4228  -41.3093 H         1 UNK         0.0600 
    147 H147        1.2746  -24.7013  -42.5060 H         1 UNK         0.0600 
    148 H148        2.1916  -23.2117  -42.6920 H         1 UNK         0.0600 
    149 H149        0.7750  -21.1540  -42.4300 H         1 UNK         0.3000 
    150 H150       -1.4395  -18.7787  -43.9327 H         1 UNK         0.0600 
    151 H151       -2.3497  -18.9216  -41.6868 H         1 UNK         0.0600 
    152 H152       -1.0449  -17.7467  -41.6267 H         1 UNK         0.0600 
    153 H153       -0.8029  -19.3738  -40.9992 H         1 UNK         0.0600 
    154 H154        1.0845  -18.4615  -42.6521 H         1 UNK         0.3000 
    155 H155        3.1356  -19.3883  -45.3525 H         1 UNK         0.0600 
    156 H156        2.4036  -17.0583  -46.1305 H         1 UNK         0.0600 
    157 H157        2.8663  -16.4672  -44.5429 H         1 UNK         0.0600 
    158 H158        4.0585  -17.2206  -45.5793 H         1 UNK         0.0600 
    159 H159        3.4156  -17.9642  -42.7958 H         1 UNK         0.3000 
    160 H160        4.2889  -20.9923  -41.0575 H         1 UNK         0.0600 
    161 H161        5.8119  -18.4176  -41.7291 H         1 UNK         0.0600 
    162 H162        6.3629  -20.0488  -42.0912 H         1 UNK         0.0600 
    163 H163        6.1828  -19.5402  -40.4204 H         1 UNK         0.0600 
    164 H164        3.9713  -18.3969  -40.0357 H         1 UNK         0.3000 
    165 H165        0.5020  -18.7389  -39.1096 H         1 UNK         0.0600 
    166 H166        1.5816  -18.1455  -36.9611 H         1 UNK         0.0600 
    167 H167        1.9958  -19.7950  -37.4012 H         1 UNK         0.0600 
    168 H168        3.1751  -18.5061  -37.6206 H         1 UNK         0.0600 
    169 H169        2.5628  -16.9264  -40.0946 H         1 UNK         0.3000 
    170 H170        0.7662  -14.0052  -39.3285 H         1 UNK         0.0600 
    171 H171        3.3300  -15.1114  -40.6030 H         1 UNK         0.0600 
    172 H172        2.9678  -13.4367  -40.2174 H         1 UNK         0.0600 
    173 H173        3.1778  -14.6033  -38.9235 H         1 UNK         0.0600 
    174 H174        0.1176  -13.7875  -41.4389 H         1 UNK         0.3000 
    175 H175        0.7806  -15.4880  -44.5047 H         1 UNK         0.0600 
    176 H176       -1.6561  -15.0908  -44.6948 H         1 UNK         0.0600 
    177 H177       -1.7811  -14.8679  -42.9496 H         1 UNK         0.0600 
    178 H178       -1.3271  -16.4309  -43.6164 H         1 UNK         0.0600 
    179 H179       -0.4652  -12.9890  -43.9939 H         1 UNK         0.3000 
    180 H180        0.9132  -10.9170  -43.6494 H         1 UNK         0.0600 
    181 H181        3.3362  -11.0825  -45.5178 H         1 UNK         0.0600 
    182 H182        3.4013  -10.8266  -43.7766 H         1 UNK         0.0600 
    183 H183        2.6676   -9.6122  -44.8117 H         1 UNK         0.0600 
    184 H184        1.1453  -11.0310  -46.5796 H         1 UNK         0.3000 
    185 H185       -2.3934  -10.9984  -47.0862 H         1 UNK         0.0600 
    186 H186       -1.4899   -8.7018  -46.8522 H         1 UNK         0.0600 
    187 H187       -0.0422   -9.1480  -47.7419 H         1 UNK         0.0600 
    188 H188       -1.6116   -9.1642  -48.5425 H         1 UNK         0.0600 
    189 H189       -1.6482  -12.2936  -48.6814 H         1 UNK         0.3000 
    190 H190       -0.4851  -20.5930  -46.3907 H         1 UNK         0.3000 
    191 H191       -2.1925  -20.6007  -48.6235 H         1 UNK         0.0600 
    192 H192       -1.9295  -18.6957  -47.0155 H         1 UNK         0.0600 
    193 H193       -3.6159  -19.1018  -47.2929 H         1 UNK         0.0600 
    194 H194       -2.8297  -19.5945  -45.8020 H         1 UNK         0.0600 
    195 H195       -2.6143  -22.2052  -45.4326 H         1 UNK         0.3000 
    196 H196       -5.1504  -23.3640  -45.9237 H         1 UNK         0.0600 
    197 H197       -4.5690  -24.8533  -44.0198 H         1 UNK         0.0600 
    198 H198       -4.1465  -23.1848  -43.6646 H         1 UNK         0.0600 
    199 H199       -2.8898  -24.3391  -44.1013 H         1 UNK         0.0600 
    200 H200       -1.8474  -24.6806  -46.5073 H         1 UNK         0.3000 
    201 H201       -2.6455  -27.1697  -47.6219 H         1 UNK         0.0600 
    202 H202       -0.3435  -26.6998  -46.8123 H         1 UNK         0.0600 
    203 H203       -0.1008  -25.5331  -48.1100 H         1 UNK         0.0600 
    204 H204       -0.3137  -27.2373  -48.4852 H         1 UNK         0.0600 
    205 H205       -2.2836  -23.9643  -49.0724 H         1 UNK         0.3000 
    206 H206       -2.9044  -24.7698  -51.7940 H         1 UNK         0.0600 
    207 H207       -1.4680  -22.8219  -51.3454 H         1 UNK         0.0600 
    208 H208       -2.9336  -22.2697  -52.1395 H         1 UNK         0.0600 
    209 H209       -2.7388  -22.0416  -50.4157 H         1 UNK         0.0600 
    210 H210       -4.8690  -25.1764  -49.3443 H         1 UNK         0.3000 
    211 H211       -7.0226  -25.4351  -49.0087 H         1 UNK         0.0600 
    212 H212       -7.3606  -25.0362  -52.0267 H         1 UNK         0.0600 
    213 H213       -8.5552  -25.7300  -50.9402 H         1 UNK         0.0600 
    214 H214       -7.0314  -26.5597  -51.2096 H         1 UNK         0.0600 
    215 H215       -6.1196  -23.1150  -48.2114 H         1 UNK         0.3000 
    216 H216       -6.6606  -21.1539  -47.3583 H         1 UNK         0.0600 
    217 H217       -8.9650  -20.3310  -47.2238 H         1 UNK         0.0600 
    218 H218       -8.9513  -22.0563  -46.8955 H         1 UNK         0.0600 
    219 H219       -9.5035  -21.4563  -48.4590 H         1 UNK         0.0600 
    220 H220       -5.2067  -21.2469  -49.5088 H         1 UNK         0.3000 
    221 H221       -4.2814  -20.1954  -51.2158 H         1 UNK         0.0600 
    222 H222       -5.8011  -17.7389  -50.1913 H         1 UNK         0.0600 
    223 H223       -4.2369  -18.3066  -49.6083 H         1 UNK         0.0600 
    224 H224       -4.3997  -17.7017  -51.2472 H         1 UNK         0.0600 
    225 H225       -6.5358  -21.6857  -51.9409 H         1 UNK         0.3000 
    226 H226       -7.9648  -20.2137  -54.0601 H         1 UNK         0.0600 
    227 H227       -9.1963  -21.8866  -52.7027 H         1 UNK         0.0600 
    228 H228       -9.1177  -22.3923  -54.3842 H         1 UNK         0.0600 
    229 H229       -8.0661  -23.1469  -53.1926 H         1 UNK         0.0600 
    230 H230       -5.2642  -22.4822  -53.6562 H         1 UNK         0.3000 
    231 H231       -4.9152  -23.1361  -56.4309 H         1 UNK         0.0600 
    232 H232       -2.8256  -23.1761  -54.1892 H         1 UNK         0.0600 
    233 H233       -2.7811  -24.0803  -55.6904 H         1 UNK         0.0600 
    234 H234       -3.9904  -24.4694  -54.4767 H         1 UNK         0.0600 
    235 H235       -3.2835  -22.4110  -57.8713 H         1 UNK         0.3000 
    236 H236       -2.9485  -19.5429  -57.9489 H         1 UNK         0.0600 
    237 H237       -3.5771  -20.8428  -59.9510 H         1 UNK         0.0600 
    238 H238       -2.0399  -20.0377  -60.2153 H         1 UNK         0.0600 
    239 H239       -2.0752  -21.7630  -59.8690 H         1 UNK         0.0600 
    240 H240       -1.6448  -19.6652  -55.8451 H         1 UNK         0.3000 
    241 H241        1.1603  -20.3154  -56.0436 H         1 UNK         0.0600 
    242 H242       -0.4654  -17.5609  -57.3565 H         1 UNK         0.3800 
    243 H243        0.9588  -16.5621  -57.4800 H         1 UNK         0.3800 
    244 H244        0.1607  -20.5054  -53.9012 H         1 UNK         0.0800 
    245 H245        1.3450  -19.2382  -53.7911 H         1 UNK         0.0800 
    246 H246       -1.5194  -20.3006  -52.2777 H         1 UNK         0.0800 
    247 H247       -2.4013  -18.8772  -51.7989 H         1 UNK         0.0800 
@<TRIPOS>BOND
     1    1    2 1    
     2    1  127 1    
     3    1  128 1    
     4    1  129 1    
     5    2    3 2    
     6    2    4 am   BACKBONE|DICT|INTERRES
     7    4    5 1    
     8    4  130 1    
     9    5    6 1    
    10    5   65 1    
    11    5  131 1    
    12    6    7 1    
    13    6  132 1    
    14    6  133 1    
    15    7    8 1    
    16    8    9 1    
    17    8  134 1    
    18    8  135 1    
    19    9   10 ar   
    20    9   14 ar   
    21   10   11 ar   
    22   10  136 1    
    23   11   12 ar   
    24   11  126 1    
    25   12   13 ar   
    26   12  137 1    
    27   13   14 ar   
    28   13   15 1    
    29   14  138 1    
    30   15   16 1    
    31   15  139 1    
    32   15  140 1    
    33   16   17 1    
    34   17   18 1    
    35   17  141 1    
    36   17  142 1    
    37   18   19 1    
    38   18   67 1    
    39   18  143 1    
    40   19   20 am   BACKBONE|DICT|INTERRES
    41   19  144 1    
    42   20   21 2    
    43   20   22 1    
    44   22   23 1    
    45   22   24 1    
    46   22  145 1    
    47   23  146 1    
    48   23  147 1    
    49   23  148 1    
    50   24   25 am   BACKBONE|DICT|INTERRES
    51   24  149 1    
    52   25   26 2    
    53   25   27 1    
    54   27   28 1    
    55   27   29 1    
    56   27  150 1    
    57   28  151 1    
    58   28  152 1    
    59   28  153 1    
    60   29   30 am   BACKBONE|DICT|INTERRES
    61   29  154 1    
    62   30   31 2    
    63   30   32 1    
    64   32   33 1    
    65   32   34 1    
    66   32  155 1    
    67   33  156 1    
    68   33  157 1    
    69   33  158 1    
    70   34   35 am   BACKBONE|DICT|INTERRES
    71   34  159 1    
    72   35   36 2    
    73   35   37 1    
    74   37   38 1    
    75   37   39 1    
    76   37  160 1    
    77   38  161 1    
    78   38  162 1    
    79   38  163 1    
    80   39   40 am   BACKBONE|DICT|INTERRES
    81   39  164 1    
    82   40   41 2    
    83   40   42 1    
    84   42   43 1    
    85   42   44 1    
    86   42  165 1    
    87   43  166 1    
    88   43  167 1    
    89   43  168 1    
    90   44   45 am   BACKBONE|DICT|INTERRES
    91   44  169 1    
    92   45   46 2    
    93   45   47 1    
    94   47   48 1    
    95   47   49 1    
    96   47  170 1    
    97   48  171 1    
    98   48  172 1    
    99   48  173 1    
   100   49   50 am   BACKBONE|DICT|INTERRES
   101   49  174 1    
   102   50   51 2    
   103   50   52 1    
   104   52   53 1    
   105   52   54 1    
   106   52  175 1    
   107   53  176 1    
   108   53  177 1    
   109   53  178 1    
   110   54   55 am   BACKBONE|DICT|INTERRES
   111   54  179 1    
   112   55   56 2    
   113   55   57 1    
   114   57   58 1    
   115   57   59 1    
   116   57  180 1    
   117   58  181 1    
   118   58  182 1    
   119   58  183 1    
   120   59   60 am   BACKBONE|DICT|INTERRES
   121   59  184 1    
   122   60   61 2    
   123   60   62 1    
   124   62   63 1    
   125   62   64 1    
   126   62  185 1    
   127   63  186 1    
   128   63  187 1    
   129   63  188 1    
   130   64   65 am   BACKBONE|DICT|INTERRES
   131   64  189 1    
   132   65   66 2    
   133   67   68 2    
   134   67   69 am   BACKBONE|DICT|INTERRES
   135   69   70 1    
   136   69  190 1    
   137   70   71 1    
   138   70   72 1    
   139   70  191 1    
   140   71  192 1    
   141   71  193 1    
   142   71  194 1    
   143   72   73 2    
   144   72   74 am   BACKBONE|DICT|INTERRES
   145   74   75 1    
   146   74  195 1    
   147   75   76 1    
   148   75   77 1    
   149   75  196 1    
   150   76  197 1    
   151   76  198 1    
   152   76  199 1    
   153   77   78 2    
   154   77   79 am   BACKBONE|DICT|INTERRES
   155   79   80 1    
   156   79  200 1    
   157   80   81 1    
   158   80   82 1    
   159   80  201 1    
   160   81  202 1    
   161   81  203 1    
   162   81  204 1    
   163   82   83 2    
   164   82   84 am   BACKBONE|DICT|INTERRES
   165   84   85 1    
   166   84  205 1    
   167   85   86 1    
   168   85   87 1    
   169   85  206 1    
   170   86  207 1    
   171   86  208 1    
   172   86  209 1    
   173   87   88 2    
   174   87   89 am   BACKBONE|DICT|INTERRES
   175   89   90 1    
   176   89  210 1    
   177   90   91 1    
   178   90   92 1    
   179   90  211 1    
   180   91  212 1    
   181   91  213 1    
   182   91  214 1    
   183   92   93 2    
   184   92   94 am   BACKBONE|DICT|INTERRES
   185   94   95 1    
   186   94  215 1    
   187   95   96 1    
   188   95   97 1    
   189   95  216 1    
   190   96  217 1    
   191   96  218 1    
   192   96  219 1    
   193   97   98 2    
   194   97   99 am   BACKBONE|DICT|INTERRES
   195   99  100 1    
   196   99  220 1    
   197  100  101 1    
   198  100  102 1    
   199  100  221 1    
   200  101  222 1    
   201  101  223 1    
   202  101  224 1    
   203  102  103 2    
   204  102  104 am   BACKBONE|DICT|INTERRES
   205  104  105 1    
   206  104  225 1    
   207  105  106 1    
   208  105  107 1    
   209  105  226 1    
   210  106  227 1    
   211  106  228 1    
   212  106  229 1    
   213  107  108 2    
   214  107  109 am   BACKBONE|DICT|INTERRES
   215  109  110 1    
   216  109  230 1    
   217  110  111 1    
   218  110  112 1    
   219  110  231 1    
   220  111  232 1    
   221  111  233 1    
   222  111  234 1    
   223  112  113 2    
   224  112  114 am   BACKBONE|DICT|INTERRES
   225  114  115 1    
   226  114  235 1    
   227  115  116 1    
   228  115  117 1    
   229  115  236 1    
   230  116  237 1    
   231  116  238 1    
   232  116  239 1    
   233  117  118 2    
   234  117  119 am   BACKBONE|DICT|INTERRES
   235  119  120 1    
   236  119  240 1    
   237  120  121 1    
   238  120  124 1    
   239  120  241 1    
   240  121  122 am   BACKBONE|DICT|INTERRES
   241  121  123 2    
   242  122  242 1    
   243  122  243 1    
   244  124  125 1    
   245  124  244 1    
   246  124  245 1    
   247  125  126 1    
   248  126  246 1    
   249  126  247 1    
@<TRIPOS>SUBSTRUCTURE
     1 UNK         1 GROUP             0       ****    0 ROOT    
