@<TRIPOS>MOLECULE
3R540
247   249    1
SMALL
USER_CHARGES


@<TRIPOS>ATOM
      1 CA          0.1356  -11.2922  -45.7811 C.3       0 UNK        -0.1800 
      2 C           1.5436  -11.3475  -46.3531 C.2       0 UNK         0.5000 
      3 O           2.4500  -10.6981  -45.8317 O.2       0 UNK        -0.5000 
      4 N           1.7333  -12.1339  -47.4199 N.am      1 UNK        -0.5000 
      5 CA          3.0044  -12.3006  -48.1405 C.3       1 UNK         0.1400 
      6 C6          2.8016  -13.0109  -49.5004 C.3       23 UNK        -0.0398 
      7 S7          2.0286  -14.6628  -49.3677 S.3       23 UNK        -0.2404 
      8 C8          3.2578  -15.6863  -50.2362 C.3       23 UNK        -0.0205 
      9 C9          2.7857  -17.1244  -50.3883 C.ar      23 UNK        -0.0193 
     10 C10         1.6330  -17.4061  -51.1265 C.ar      23 UNK        -0.1150 
     11 C11         1.1807  -18.7182  -51.2858 C.ar      23 UNK        -0.0193 
     12 C12         1.9039  -19.7583  -50.6850 C.ar      23 UNK        -0.1150 
     13 C13         3.0744  -19.4966  -49.9642 C.ar      23 UNK        -0.0193 
     14 C14         3.5090  -18.1753  -49.8186 C.ar      23 UNK        -0.1150 
     15 C15         3.8846  -20.6544  -49.3891 C.3       23 UNK        -0.0205 
     16 S16         4.3285  -20.4692  -47.6273 S.3       23 UNK        -0.2404 
     17 C17         2.7150  -20.2193  -46.8162 C.3       23 UNK        -0.0398 
     18 CA          2.0303  -21.5349  -46.3625 C.3       11 UNK         0.1400 
     19 N           1.1592  -21.3167  -45.2023 N.am      11 UNK        -0.5000 
     20 C           0.5234  -22.2773  -44.5171 C.2       10 UNK         0.5000 
     21 O           0.6820  -23.4791  -44.7273 O.2       10 UNK        -0.5000 
     22 CA         -0.4876  -21.8232  -43.4473 C.3       10 UNK         0.1400 
     23 CB          0.2148  -21.5526  -42.1086 C.3       10 UNK        -0.1800 
     24 N          -1.2471  -20.6401  -43.8577 N.am      10 UNK        -0.5000 
     25 C          -2.1637  -20.6309  -44.8372 C.2       9 UNK         0.5000 
     26 O          -2.5203  -21.6369  -45.4482 O.2       9 UNK        -0.5000 
     27 CA         -2.7640  -19.2667  -45.2265 C.3       9 UNK         0.1400 
     28 CB         -3.9434  -18.9103  -44.3101 C.3       9 UNK        -0.1800 
     29 N          -1.7816  -18.1811  -45.2096 N.am      9 UNK        -0.5000 
     30 C          -0.7101  -18.1130  -46.0126 C.2       8 UNK         0.5000 
     31 O          -0.4608  -18.9428  -46.8855 O.2       8 UNK        -0.5000 
     32 CA          0.2875  -16.9695  -45.7495 C.3       8 UNK         0.1400 
     33 CB         -0.1923  -15.6503  -46.3719 C.3       8 UNK        -0.1800 
     34 N           0.5457  -16.7776  -44.3217 N.am      8 UNK        -0.5000 
     35 C           1.1262  -17.6920  -43.5309 C.2       7 UNK         0.5000 
     36 O           1.5390  -18.7774  -43.9337 O.2       7 UNK        -0.5000 
     37 CA          1.2172  -17.3632  -42.0324 C.3       7 UNK         0.1400 
     38 CB          2.4189  -16.4545  -41.7342 C.3       7 UNK        -0.1800 
     39 N          -0.0136  -16.7491  -41.5370 N.am      7 UNK        -0.5000 
     40 C          -1.1847  -17.3939  -41.4314 C.2       6 UNK         0.5000 
     41 O          -1.3352  -18.5868  -41.6934 O.2       6 UNK        -0.5000 
     42 CA         -2.3997  -16.5501  -41.0070 C.3       6 UNK         0.1400 
     43 CB         -2.4648  -16.4233  -39.4778 C.3       6 UNK        -0.1800 
     44 N          -2.3847  -15.2147  -41.6057 N.am      6 UNK        -0.5000 
     45 C          -2.5147  -14.9707  -42.9177 C.2       5 UNK         0.5000 
     46 O          -2.7075  -15.8455  -43.7608 O.2       5 UNK        -0.5000 
     47 CA         -2.3410  -13.5085  -43.3644 C.3       5 UNK         0.1400 
     48 CB         -3.6665  -12.7421  -43.2495 C.3       5 UNK        -0.1800 
     49 N          -1.3031  -12.8099  -42.6012 N.am      5 UNK        -0.5000 
     50 C           0.0003  -13.1074  -42.6618 C.2       4 UNK         0.5000 
     51 O           0.4700  -13.9931  -43.3823 O.2       4 UNK        -0.5000 
     52 CA          0.9297  -12.3024  -41.7487 C.3       4 UNK         0.1400 
     53 CB          1.0612  -12.9745  -40.3702 C.3       4 UNK        -0.1800 
     54 N           2.2291  -12.2052  -42.4001 N.am      4 UNK        -0.5000 
     55 C           3.1777  -11.3027  -42.1306 C.2       3 UNK         0.5000 
     56 O           3.0835  -10.4765  -41.2212 O.2       3 UNK        -0.5000 
     57 CA          4.4165  -11.2698  -43.0496 C.3       3 UNK         0.1400 
     58 CB          5.7395  -11.2539  -42.2557 C.3       3 UNK        -0.1800 
     59 N           4.4177  -12.2904  -44.1067 N.am      3 UNK        -0.5000 
     60 C           4.6753  -13.6045  -44.0147 C.2       2 UNK         0.5000 
     61 O           4.9631  -14.1715  -42.9610 O.2       2 UNK        -0.5000 
     62 CA          4.5689  -14.4266  -45.3197 C.3       2 UNK         0.1400 
     63 CB          4.0295  -15.8430  -45.0686 C.3       2 UNK        -0.1800 
     64 N           3.7028  -13.7748  -46.3029 N.am      2 UNK        -0.5000 
     65 C           4.1099  -12.9769  -47.2982 C.2       1 UNK         0.5000 
     66 O           5.2926  -12.7351  -47.5406 O.2       1 UNK        -0.5000 
     67 C           1.2484  -22.1844  -47.5235 C.2       11 UNK         0.5000 
     68 O           1.6918  -23.1807  -48.0952 O.2       11 UNK        -0.5000 
     69 N           0.0677  -21.6257  -47.8105 N.am      12 UNK        -0.5000 
     70 CA         -0.8442  -22.0482  -48.8675 C.3       12 UNK         0.1400 
     71 CB         -1.6769  -20.8323  -49.2909 C.3       12 UNK        -0.1800 
     72 C          -1.7573  -23.2270  -48.4761 C.2       12 UNK         0.5000 
     73 O          -2.7320  -23.4811  -49.1865 O.2       12 UNK        -0.5000 
     74 N          -1.4642  -23.9350  -47.3748 N.am      13 UNK        -0.5000 
     75 CA         -2.2492  -25.0703  -46.8747 C.3       13 UNK         0.1400 
     76 CB         -1.6885  -25.5365  -45.5252 C.3       13 UNK        -0.1800 
     77 C          -2.3291  -26.2480  -47.8654 C.2       13 UNK         0.5000 
     78 O          -3.3582  -26.9207  -47.9272 O.2       13 UNK        -0.5000 
     79 N          -1.2743  -26.4278  -48.6736 N.am      14 UNK        -0.5000 
     80 CA         -1.2146  -27.3815  -49.7863 C.3       14 UNK         0.1400 
     81 CB          0.2319  -27.4525  -50.2985 C.3       14 UNK        -0.1800 
     82 C          -2.1794  -27.0403  -50.9433 C.2       14 UNK         0.5000 
     83 O          -2.5337  -27.9282  -51.7188 O.2       14 UNK        -0.5000 
     84 N          -2.6017  -25.7722  -51.0204 N.am      15 UNK        -0.5000 
     85 CA         -3.5950  -25.2406  -51.9505 C.3       15 UNK         0.1400 
     86 CB         -3.0140  -23.9744  -52.6032 C.3       15 UNK        -0.1800 
     87 C          -4.9263  -24.9527  -51.2245 C.2       15 UNK         0.5000 
     88 O          -5.6791  -24.0815  -51.6612 O.2       15 UNK        -0.5000 
     89 N          -5.1792  -25.6645  -50.1137 N.am      16 UNK        -0.5000 
     90 CA         -6.3664  -25.5934  -49.2547 C.3       16 UNK         0.1400 
     91 CB         -7.5996  -26.1594  -49.9874 C.3       16 UNK        -0.1800 
     92 C          -6.6005  -24.1919  -48.6522 C.2       16 UNK         0.5000 
     93 O          -7.7356  -23.7152  -48.6128 O.2       16 UNK        -0.5000 
     94 N          -5.5044  -23.5660  -48.1991 N.am      17 UNK        -0.5000 
     95 CA         -5.4142  -22.2089  -47.6510 C.3       17 UNK         0.1400 
     96 CB         -6.2476  -22.0534  -46.3619 C.3       17 UNK        -0.1800 
     97 C          -5.7162  -21.1457  -48.7239 C.2       17 UNK         0.5000 
     98 O          -6.5042  -20.2273  -48.4926 O.2       17 UNK        -0.5000 
     99 N          -5.0609  -21.3110  -49.8817 N.am      18 UNK        -0.5000 
    100 CA        -5.1332  -20.4655  -51.0754 C.3       18 UNK         0.1400 
    101 CB        -4.5753  -19.0517  -50.7997 C.3       18 UNK        -0.1800 
    102 C         -6.5315  -20.4438  -51.7214 C.2       18 UNK         0.5000 
    103 O         -7.0542  -19.3741  -52.0430 O.2       18 UNK        -0.5000 
    104 N         -7.1013  -21.6330  -51.9523 N.am      19 UNK        -0.5000 
    105 CA        -8.3566  -21.8363  -52.6775 C.3       19 UNK         0.1400 
    106 CB        -8.9563  -23.1906  -52.2635 C.3       19 UNK        -0.1800 
    107 C         -8.1288  -21.7302  -54.2006 C.2       19 UNK         0.5000 
    108 O         -8.2706  -22.7184  -54.9227 O.2       19 UNK        -0.5000 
    109 N         -7.7134  -20.5371  -54.6497 N.am      20 UNK        -0.5000 
    110 CA        -7.3642  -20.1131  -56.0147 C.3       20 UNK         0.1400 
    111 CB        -8.5596  -20.2693  -56.9732 C.3       20 UNK        -0.1800 
    112 C         -6.0967  -20.7696  -56.6024 C.2       20 UNK         0.5000 
    113 O         -5.3480  -20.0983  -57.3139 O.2       20 UNK        -0.5000 
    114 N         -5.8536  -22.0463  -56.2803 N.am      21 UNK        -0.5000 
    115 CA        -4.7524  -22.8802  -56.7737 C.3       21 UNK         0.1400 
    116 CB        -4.9386  -24.3073  -56.2342 C.3       21 UNK        -0.1800 
    117 C         -3.3378  -22.3557  -56.4494 C.2       21 UNK         0.5000 
    118 O         -2.3922  -22.7001  -57.1593 O.2       21 UNK        -0.5000 
    119 N         -3.2197  -21.5266  -55.4043 N.am      22 UNK        -0.5000 
    120 CA        -1.9859  -20.8132  -55.0337 C.3       22 UNK         0.1400 
    121 C         -1.6933  -19.5509  -55.9027 C.2       22 UNK         0.5000 
    122 N         -2.5951  -19.1091  -56.7731 N.am      22 UNK        -0.7600 
    123 O         -0.6215  -18.9625  -55.7963 O.2       22 UNK        -0.5000 
    124 C124       -1.9678  -20.4923  -53.5150 C.3       23 UNK        -0.0398 
    125 S125       -0.3136  -20.6338  -52.7596 S.3       23 UNK        -0.2404 
    126 C126       -0.0990  -18.9483  -52.0929 C.3       23 UNK        -0.0205 
    127 H127       -0.4746  -10.5913  -46.3503 H         1 UNK         0.0600 
    128 H128        0.1573  -10.9583  -44.7441 H         1 UNK         0.0600 
    129 H129       -0.3391  -12.2729  -45.8138 H         1 UNK         0.0600 
    130 H130        0.9529  -12.6494  -47.8024 H         1 UNK         0.3000 
    131 H131        3.3702  -11.2952  -48.3602 H         1 UNK         0.0600 
    132 H132        3.7506  -13.0809  -50.0350 H         1 UNK         0.0800 
    133 H133        2.1597  -12.3979  -50.1344 H         1 UNK         0.0800 
    134 H134        3.4430  -15.2706  -51.2277 H         1 UNK         0.0800 
    135 H135        4.2042  -15.6428  -49.6945 H         1 UNK         0.0800 
    136 H136        1.0805  -16.5918  -51.5746 H         1 UNK         0.1150 
    137 H137        1.5685  -20.7799  -50.7855 H         1 UNK         0.1150 
    138 H138        4.4140  -17.9686  -49.2648 H         1 UNK         0.1150 
    139 H139        3.3577  -21.5994  -49.5229 H         1 UNK         0.0800 
    140 H140        4.8059  -20.7445  -49.9658 H         1 UNK         0.0800 
    141 H141        2.0619  -19.6069  -47.4393 H         1 UNK         0.0800 
    142 H142        2.9324  -19.6025  -45.9445 H         1 UNK         0.0800 
    143 H143        2.8019  -22.2390  -46.0438 H         1 UNK         0.0600 
    144 H144        1.0345  -20.3527  -44.9060 H         1 UNK         0.3000 
    145 H145       -1.1960  -22.6401  -43.2950 H         1 UNK         0.0600 
    146 H146       -0.5050  -21.2955  -41.3314 H         1 UNK         0.0600 
    147 H147        0.7594  -22.4344  -41.7691 H         1 UNK         0.0600 
    148 H148        0.9307  -20.7345  -42.1848 H         1 UNK         0.0600 
    149 H149       -1.0589  -19.7802  -43.3542 H         1 UNK         0.3000 
    150 H150       -3.1433  -19.3544  -46.2468 H         1 UNK         0.0600 
    151 H151       -4.4328  -17.9928  -44.6373 H         1 UNK         0.0600 
    152 H152       -4.6954  -19.7001  -44.3139 H         1 UNK         0.0600 
    153 H153       -3.6221  -18.7680  -43.2782 H         1 UNK         0.0600 
    154 H154       -1.9471  -17.4272  -44.5483 H         1 UNK         0.3000 
    155 H155        1.2328  -17.2398  -46.2254 H         1 UNK         0.0600 
    156 H156       -1.1347  -15.3169  -45.9379 H         1 UNK         0.0600 
    157 H157       -0.3456  -15.7614  -47.4460 H         1 UNK         0.0600 
    158 H158        0.5415  -14.8576  -46.2277 H         1 UNK         0.0600 
    159 H159        0.2783  -15.8831  -43.9233 H         1 UNK         0.3000 
    160 H160        1.3667  -18.3022  -41.4952 H         1 UNK         0.0600 
    161 H161        2.5233  -16.2772  -40.6639 H         1 UNK         0.0600 
    162 H162        2.3345  -15.4871  -42.2285 H         1 UNK         0.0600 
    163 H163        3.3473  -16.9128  -42.0772 H         1 UNK         0.0600 
    164 H164        0.0161  -15.7613  -41.3390 H         1 UNK         0.3000 
    165 H165       -3.3002  -17.0660  -41.3471 H         1 UNK         0.0600 
    166 H166       -3.3619  -15.8888  -39.1646 H         1 UNK         0.0600 
    167 H167       -2.4926  -17.4066  -39.0063 H         1 UNK         0.0600 
    168 H168       -1.6001  -15.8918  -39.0785 H         1 UNK         0.0600 
    169 H169       -2.2346  -14.4354  -40.9825 H         1 UNK         0.3000 
    170 H170       -2.0438  -13.5168  -44.4149 H         1 UNK         0.0600 
    171 H171       -4.4523  -13.2344  -43.8242 H         1 UNK         0.0600 
    172 H172       -4.0078  -12.6760  -42.2157 H         1 UNK         0.0600 
    173 H173       -3.5695  -11.7278  -43.6372 H         1 UNK         0.0600 
    174 H174       -1.6141  -12.0685  -41.9899 H         1 UNK         0.3000 
    175 H175        0.5163  -11.2987  -41.6297 H         1 UNK         0.0600 
    176 H176        1.5155  -13.9620  -40.4444 H         1 UNK         0.0600 
    177 H177        1.6758  -12.3780  -39.6960 H         1 UNK         0.0600 
    178 H178        0.0868  -13.0937  -39.8951 H         1 UNK         0.0600 
    179 H179        2.3594  -12.8467  -43.1709 H         1 UNK         0.3000 
    180 H180        4.3539  -10.3184  -43.5798 H         1 UNK         0.0600 
    181 H181        5.8369  -12.1240  -41.6063 H         1 UNK         0.0600 
    182 H182        5.7996  -10.3705  -41.6192 H         1 UNK         0.0600 
    183 H183        6.6015  -11.2308  -42.9224 H         1 UNK         0.0600 
    184 H184        4.1314  -11.9396  -45.0125 H         1 UNK         0.3000 
    185 H185        5.5801  -14.5210  -45.7202 H         1 UNK         0.0600 
    186 H186        4.6786  -16.4046  -44.3959 H         1 UNK         0.0600 
    187 H187        3.0407  -15.8028  -44.6181 H         1 UNK         0.0600 
    188 H188        3.9537  -16.4111  -45.9963 H         1 UNK         0.0600 
    189 H189        2.7089  -13.9000  -46.1785 H         1 UNK         0.3000 
    190 H190       -0.2061  -20.7879  -47.3026 H         1 UNK         0.3000 
    191 H191       -0.2553  -22.3683  -49.7293 H         1 UNK         0.0600 
    192 H192       -1.0424  -19.9675  -49.4803 H         1 UNK         0.0600 
    193 H193       -2.2233  -21.0415  -50.2101 H         1 UNK         0.0600 
    194 H194       -2.3984  -20.5502  -48.5231 H         1 UNK         0.0600 
    195 H195       -0.6666  -23.6557  -46.8203 H         1 UNK         0.3000 
    196 H196       -3.2677  -24.7158  -46.7064 H         1 UNK         0.0600 
    197 H197       -2.2477  -26.3905  -45.1409 H         1 UNK         0.0600 
    198 H198       -1.7583  -24.7445  -44.7796 H         1 UNK         0.0600 
    199 H199       -0.6426  -25.8352  -45.6049 H         1 UNK         0.0600 
    200 H200       -0.4738  -25.8240  -48.5516 H         1 UNK         0.3000 
    201 H201       -1.4943  -28.3657  -49.4049 H         1 UNK         0.0600 
    202 H202        0.9156  -27.7647  -49.5088 H         1 UNK         0.0600 
    203 H203        0.5724  -26.4876  -50.6765 H         1 UNK         0.0600 
    204 H204        0.3246  -28.1748  -51.1107 H         1 UNK         0.0600 
    205 H205       -2.3015  -25.1179  -50.3071 H         1 UNK         0.3000 
    206 H206       -3.8111  -25.9641  -52.7387 H         1 UNK         0.0600 
    207 H207       -2.1046  -24.1994  -53.1604 H         1 UNK         0.0600 
    208 H208       -3.7180  -23.5253  -53.3029 H         1 UNK         0.0600 
    209 H209       -2.7678  -23.2219  -51.8545 H         1 UNK         0.0600 
    210 H210       -4.4716  -26.3193  -49.8059 H         1 UNK         0.3000 
    211 H211       -6.1651  -26.2497  -48.4068 H         1 UNK         0.0600 
    212 H212       -7.8754  -25.5490  -50.8455 H         1 UNK         0.0600 
    213 H213       -8.4647  -26.2038  -49.3248 H         1 UNK         0.0600 
    214 H214       -7.4138  -27.1723  -50.3443 H         1 UNK         0.0600 
    215 H215       -4.6112  -24.0098  -48.3739 H         1 UNK         0.3000 
    216 H216       -4.3704  -22.0635  -47.3721 H         1 UNK         0.0600 
    217 H217       -6.0695  -21.0807  -45.9028 H         1 UNK         0.0600 
    218 H218       -5.9789  -22.8120  -45.6269 H         1 UNK         0.0600 
    219 H219       -7.3181  -22.1305  -46.5519 H         1 UNK         0.0600 
    220 H220       -4.4622  -22.1238  -49.9568 H         1 UNK         0.3000 
    221 H221       -4.4822  -20.9371  -51.8091 H         1 UNK         0.0600 
    222 H222       -5.2034  -18.4965  -50.1027 H         1 UNK         0.0600 
    223 H223       -3.5701  -19.0868  -50.3840 H         1 UNK         0.0600 
    224 H224       -4.5194  -18.4693  -51.7200 H         1 UNK         0.0600 
    225 H225       -6.5905  -22.4809  -51.7108 H         1 UNK         0.3000 
    226 H226       -9.0666  -21.0575  -52.3914 H         1 UNK         0.0600 
    227 H227       -9.0989  -23.2464  -51.1841 H         1 UNK         0.0600 
    228 H228       -9.9294  -23.3460  -52.7307 H         1 UNK         0.0600 
    229 H229       -8.3134  -24.0195  -52.5607 H         1 UNK         0.0600 
    230 H230       -7.5751  -19.8264  -53.9372 H         1 UNK         0.3000 
    231 H231       -7.1472  -19.0465  -55.9386 H         1 UNK         0.0600 
    232 H232       -8.8268  -21.3150  -57.1271 H         1 UNK         0.0600 
    233 H233       -8.3297  -19.8465  -57.9520 H         1 UNK         0.0600 
    234 H234       -9.4396  -19.7498  -56.5940 H         1 UNK         0.0600 
    235 H235       -6.5621  -22.5144  -55.7220 H         1 UNK         0.3000 
    236 H236       -4.8346  -22.9151  -57.8617 H         1 UNK         0.0600 
    237 H237       -5.8726  -24.7421  -56.5907 H         1 UNK         0.0600 
    238 H238       -4.1306  -24.9626  -56.5625 H         1 UNK         0.0600 
    239 H239       -4.9584  -24.3276  -55.1446 H         1 UNK         0.0600 
    240 H240       -4.0575  -21.2800  -54.9008 H         1 UNK         0.3000 
    241 H241       -1.1612  -21.5002  -55.2336 H         1 UNK         0.0600 
    242 H242       -2.3808  -18.2959  -57.3281 H         1 UNK         0.3800 
    243 H243       -3.4892  -19.5726  -56.8987 H         1 UNK         0.3800 
    244 H244       -2.4110  -19.5167  -53.3071 H         1 UNK         0.0800 
    245 H245       -2.5851  -21.2083  -52.9792 H         1 UNK         0.0800 
    246 H246       -0.9530  -18.7002  -51.4622 H         1 UNK         0.0800 
    247 H247       -0.1231  -18.2533  -52.9341 H         1 UNK         0.0800 
@<TRIPOS>BOND
     1    1    2 1    
     2    1  127 1    
     3    1  128 1    
     4    1  129 1    
     5    2    3 2    
     6    2    4 am   BACKBONE|DICT|INTERRES
     7    4    5 1    
     8    4  130 1    
     9    5    6 1    
    10    5   65 1    
    11    5  131 1    
    12    6    7 1    
    13    6  132 1    
    14    6  133 1    
    15    7    8 1    
    16    8    9 1    
    17    8  134 1    
    18    8  135 1    
    19    9   10 ar   
    20    9   14 ar   
    21   10   11 ar   
    22   10  136 1    
    23   11   12 ar   
    24   11  126 1    
    25   12   13 ar   
    26   12  137 1    
    27   13   14 ar   
    28   13   15 1    
    29   14  138 1    
    30   15   16 1    
    31   15  139 1    
    32   15  140 1    
    33   16   17 1    
    34   17   18 1    
    35   17  141 1    
    36   17  142 1    
    37   18   19 1    
    38   18   67 1    
    39   18  143 1    
    40   19   20 am   BACKBONE|DICT|INTERRES
    41   19  144 1    
    42   20   21 2    
    43   20   22 1    
    44   22   23 1    
    45   22   24 1    
    46   22  145 1    
    47   23  146 1    
    48   23  147 1    
    49   23  148 1    
    50   24   25 am   BACKBONE|DICT|INTERRES
    51   24  149 1    
    52   25   26 2    
    53   25   27 1    
    54   27   28 1    
    55   27   29 1    
    56   27  150 1    
    57   28  151 1    
    58   28  152 1    
    59   28  153 1    
    60   29   30 am   BACKBONE|DICT|INTERRES
    61   29  154 1    
    62   30   31 2    
    63   30   32 1    
    64   32   33 1    
    65   32   34 1    
    66   32  155 1    
    67   33  156 1    
    68   33  157 1    
    69   33  158 1    
    70   34   35 am   BACKBONE|DICT|INTERRES
    71   34  159 1    
    72   35   36 2    
    73   35   37 1    
    74   37   38 1    
    75   37   39 1    
    76   37  160 1    
    77   38  161 1    
    78   38  162 1    
    79   38  163 1    
    80   39   40 am   BACKBONE|DICT|INTERRES
    81   39  164 1    
    82   40   41 2    
    83   40   42 1    
    84   42   43 1    
    85   42   44 1    
    86   42  165 1    
    87   43  166 1    
    88   43  167 1    
    89   43  168 1    
    90   44   45 am   BACKBONE|DICT|INTERRES
    91   44  169 1    
    92   45   46 2    
    93   45   47 1    
    94   47   48 1    
    95   47   49 1    
    96   47  170 1    
    97   48  171 1    
    98   48  172 1    
    99   48  173 1    
   100   49   50 am   BACKBONE|DICT|INTERRES
   101   49  174 1    
   102   50   51 2    
   103   50   52 1    
   104   52   53 1    
   105   52   54 1    
   106   52  175 1    
   107   53  176 1    
   108   53  177 1    
   109   53  178 1    
   110   54   55 am   BACKBONE|DICT|INTERRES
   111   54  179 1    
   112   55   56 2    
   113   55   57 1    
   114   57   58 1    
   115   57   59 1    
   116   57  180 1    
   117   58  181 1    
   118   58  182 1    
   119   58  183 1    
   120   59   60 am   BACKBONE|DICT|INTERRES
   121   59  184 1    
   122   60   61 2    
   123   60   62 1    
   124   62   63 1    
   125   62   64 1    
   126   62  185 1    
   127   63  186 1    
   128   63  187 1    
   129   63  188 1    
   130   64   65 am   BACKBONE|DICT|INTERRES
   131   64  189 1    
   132   65   66 2    
   133   67   68 2    
   134   67   69 am   BACKBONE|DICT|INTERRES
   135   69   70 1    
   136   69  190 1    
   137   70   71 1    
   138   70   72 1    
   139   70  191 1    
   140   71  192 1    
   141   71  193 1    
   142   71  194 1    
   143   72   73 2    
   144   72   74 am   BACKBONE|DICT|INTERRES
   145   74   75 1    
   146   74  195 1    
   147   75   76 1    
   148   75   77 1    
   149   75  196 1    
   150   76  197 1    
   151   76  198 1    
   152   76  199 1    
   153   77   78 2    
   154   77   79 am   BACKBONE|DICT|INTERRES
   155   79   80 1    
   156   79  200 1    
   157   80   81 1    
   158   80   82 1    
   159   80  201 1    
   160   81  202 1    
   161   81  203 1    
   162   81  204 1    
   163   82   83 2    
   164   82   84 am   BACKBONE|DICT|INTERRES
   165   84   85 1    
   166   84  205 1    
   167   85   86 1    
   168   85   87 1    
   169   85  206 1    
   170   86  207 1    
   171   86  208 1    
   172   86  209 1    
   173   87   88 2    
   174   87   89 am   BACKBONE|DICT|INTERRES
   175   89   90 1    
   176   89  210 1    
   177   90   91 1    
   178   90   92 1    
   179   90  211 1    
   180   91  212 1    
   181   91  213 1    
   182   91  214 1    
   183   92   93 2    
   184   92   94 am   BACKBONE|DICT|INTERRES
   185   94   95 1    
   186   94  215 1    
   187   95   96 1    
   188   95   97 1    
   189   95  216 1    
   190   96  217 1    
   191   96  218 1    
   192   96  219 1    
   193   97   98 2    
   194   97   99 am   BACKBONE|DICT|INTERRES
   195   99  100 1    
   196   99  220 1    
   197  100  101 1    
   198  100  102 1    
   199  100  221 1    
   200  101  222 1    
   201  101  223 1    
   202  101  224 1    
   203  102  103 2    
   204  102  104 am   BACKBONE|DICT|INTERRES
   205  104  105 1    
   206  104  225 1    
   207  105  106 1    
   208  105  107 1    
   209  105  226 1    
   210  106  227 1    
   211  106  228 1    
   212  106  229 1    
   213  107  108 2    
   214  107  109 am   BACKBONE|DICT|INTERRES
   215  109  110 1    
   216  109  230 1    
   217  110  111 1    
   218  110  112 1    
   219  110  231 1    
   220  111  232 1    
   221  111  233 1    
   222  111  234 1    
   223  112  113 2    
   224  112  114 am   BACKBONE|DICT|INTERRES
   225  114  115 1    
   226  114  235 1    
   227  115  116 1    
   228  115  117 1    
   229  115  236 1    
   230  116  237 1    
   231  116  238 1    
   232  116  239 1    
   233  117  118 2    
   234  117  119 am   BACKBONE|DICT|INTERRES
   235  119  120 1    
   236  119  240 1    
   237  120  121 1    
   238  120  124 1    
   239  120  241 1    
   240  121  122 am   BACKBONE|DICT|INTERRES
   241  121  123 2    
   242  122  242 1    
   243  122  243 1    
   244  124  125 1    
   245  124  244 1    
   246  124  245 1    
   247  125  126 1    
   248  126  246 1    
   249  126  247 1    
@<TRIPOS>SUBSTRUCTURE
     1 UNK         1 GROUP             0       ****    0 ROOT    
