@<TRIPOS>MOLECULE
3R540
247   249    1
SMALL
USER_CHARGES


@<TRIPOS>ATOM
      1 CA         -2.4552  -12.3809  -51.5906 C.3       0 UNK        -0.1800 
      2 C          -1.8039  -13.1364  -50.4405 C.2       0 UNK         0.5000 
      3 O          -0.7690  -13.7744  -50.6354 O.2       0 UNK        -0.5000 
      4 N          -2.4084  -13.0718  -49.2476 N.am      1 UNK        -0.5000 
      5 CA         -1.8980  -13.6870  -48.0197 C.3       1 UNK         0.1400 
      6 C6         -3.0181  -13.8082  -46.9543 C.3       23 UNK        -0.0398 
      7 S7         -2.5714  -14.8936  -45.5551 S.3       23 UNK        -0.2404 
      8 C8         -3.6622  -16.3450  -45.7664 C.3       23 UNK        -0.0205 
      9 C9         -3.4255  -17.1663  -47.0336 C.ar      23 UNK        -0.0193 
     10 C10        -4.4916  -17.8808  -47.5885 C.ar      23 UNK        -0.1150 
     11 C11        -4.3196  -18.6506  -48.7438 C.ar      23 UNK        -0.0193 
     12 C12        -3.0648  -18.6794  -49.3613 C.ar      23 UNK        -0.1150 
     13 C13        -1.9898  -17.9665  -48.8248 C.ar      23 UNK        -0.0193 
     14 C14        -2.1694  -17.2438  -47.6437 C.ar      23 UNK        -0.1150 
     15 C15        -0.6474  -17.9266  -49.5433 C.3       23 UNK        -0.0205 
     16 S16         0.3040  -19.4706  -49.3954 S.3       23 UNK        -0.2404 
     17 C17         0.5607  -19.6113  -47.5941 C.3       23 UNK        -0.0398 
     18 CA          0.2099  -21.0186  -47.0623 C.3       11 UNK         0.1400 
     19 N           0.7507  -21.2458  -45.7232 N.am      11 UNK        -0.5000 
     20 C           0.8246  -22.4449  -45.1307 C.2       10 UNK         0.5000 
     21 O           0.4461  -23.4927  -45.6555 O.2       10 UNK        -0.5000 
     22 CA          1.3795  -22.4717  -43.6964 C.3       10 UNK         0.1400 
     23 CB          2.9093  -22.3348  -43.7010 C.3       10 UNK        -0.1800 
     24 N           0.7926  -21.4358  -42.8456 N.am      10 UNK        -0.5000 
     25 C          -0.5085  -21.3697  -42.5276 C.2       9 UNK         0.5000 
     26 O          -1.3493  -22.1846  -42.9075 O.2       9 UNK        -0.5000 
     27 CA         -0.9558  -20.1731  -41.6713 C.3       9 UNK         0.1400 
     28 CB         -0.5752  -20.3844  -40.1984 C.3       9 UNK        -0.1800 
     29 N          -0.4122  -18.9004  -42.1432 N.am      9 UNK        -0.5000 
     30 C          -0.6565  -18.3677  -43.3494 C.2       8 UNK         0.5000 
     31 O          -1.3711  -18.8906  -44.2028 O.2       8 UNK        -0.5000 
     32 CA          0.0654  -17.0519  -43.6774 C.3       8 UNK         0.1400 
     33 CB         -0.5343  -15.8871  -42.8766 C.3       8 UNK        -0.1800 
     34 N           1.5020  -17.1278  -43.4226 N.am      8 UNK        -0.5000 
     35 C           2.3438  -18.0069  -43.9841 C.2       7 UNK         0.5000 
     36 O           2.0145  -18.8346  -44.8324 O.2       7 UNK        -0.5000 
     37 CA          3.7912  -17.9896  -43.4705 C.3       7 UNK         0.1400 
     38 CB          4.5899  -16.8551  -44.1285 C.3       7 UNK        -0.1800 
     39 N           3.8484  -17.8577  -42.0149 N.am      7 UNK        -0.5000 
     40 C           3.4332  -18.7975  -41.1531 C.2       6 UNK         0.5000 
     41 O           2.9811  -19.8914  -41.4925 O.2       6 UNK        -0.5000 
     42 CA          3.4960  -18.4301  -39.6604 C.3       6 UNK         0.1400 
     43 CB          4.9255  -18.5838  -39.1194 C.3       6 UNK        -0.1800 
     44 N           3.0192  -17.0704  -39.4030 N.am      6 UNK        -0.5000 
     45 C           1.7485  -16.6771  -39.5659 C.2       5 UNK         0.5000 
     46 O           0.8423  -17.4261  -39.9298 O.2       5 UNK        -0.5000 
     47 CA          1.4449  -15.1896  -39.3108 C.3       5 UNK         0.1400 
     48 CB          1.1726  -14.9446  -37.8191 C.3       5 UNK        -0.1800 
     49 N           2.4991  -14.2791  -39.7676 N.am      5 UNK        -0.5000 
     50 C           2.9059  -14.1526  -41.0373 C.2       4 UNK         0.5000 
     51 O           2.5076  -14.8619  -41.9634 O.2       4 UNK        -0.5000 
     52 CA          3.9530  -13.0652  -41.3206 C.3       4 UNK         0.1400 
     53 CB          5.3144  -13.6916  -41.6594 C.3       4 UNK        -0.1800 
     54 N           3.5148  -12.2256  -42.4332 N.am      4 UNK        -0.5000 
     55 C           2.6211  -11.2327  -42.3255 C.2       3 UNK         0.5000 
     56 O           2.1240  -10.8746  -41.2568 O.2       3 UNK        -0.5000 
     57 CA          2.2185  -10.5117  -43.6264 C.3       3 UNK         0.1400 
     58 CB          3.1463   -9.3147  -43.8866 C.3       3 UNK        -0.1800 
     59 N           2.2342  -11.3941  -44.7954 N.am      3 UNK        -0.5000 
     60 C           1.2896  -12.3055  -45.0604 C.2       2 UNK         0.5000 
     61 O           0.2948  -12.4860  -44.3550 O.2       2 UNK        -0.5000 
     62 CA          1.5256  -13.1776  -46.3088 C.3       2 UNK         0.1400 
     63 CB          2.4159  -14.3787  -45.9520 C.3       2 UNK        -0.1800 
     64 N           0.2826  -13.6792  -46.8946 N.am      2 UNK        -0.5000 
     65 C          -0.6517  -12.9318  -47.4975 C.2       1 UNK         0.5000 
     66 O          -0.5582  -11.7108  -47.6540 O.2       1 UNK        -0.5000 
     67 C          -1.2992  -21.3277  -47.1360 C.2       11 UNK         0.5000 
     68 O          -1.7268  -21.9607  -48.1008 O.2       11 UNK        -0.5000 
     69 N          -2.0654  -20.9412  -46.1051 N.am      12 UNK        -0.5000 
     70 CA         -3.4882  -21.2566  -45.9778 C.3       12 UNK         0.1400 
     71 CB         -4.0951  -20.4839  -44.7982 C.3       12 UNK        -0.1800 
     72 C          -3.7527  -22.7656  -45.8341 C.2       12 UNK         0.5000 
     73 O          -4.6634  -23.2788  -46.4838 O.2       12 UNK        -0.5000 
     74 N          -2.9363  -23.4548  -45.0227 N.am      13 UNK        -0.5000 
     75 CA         -2.9959  -24.9047  -44.8186 C.3       13 UNK         0.1400 
     76 CB         -2.0709  -25.3023  -43.6585 C.3       13 UNK        -0.1800 
     77 C          -2.6513  -25.7038  -46.0892 C.2       13 UNK         0.5000 
     78 O          -3.3166  -26.6978  -46.3821 O.2       13 UNK        -0.5000 
     79 N          -1.6414  -25.2381  -46.8362 N.am      14 UNK        -0.5000 
     80 CA         -1.2408  -25.7910  -48.1324 C.3       14 UNK         0.1400 
     81 CB          0.1952  -25.3342  -48.4354 C.3       14 UNK        -0.1800 
     82 C          -2.1750  -25.3797  -49.2886 C.2       14 UNK         0.5000 
     83 O          -2.0602  -25.9357  -50.3820 O.2       14 UNK        -0.5000 
     84 N          -3.0271  -24.3707  -49.0538 N.am      15 UNK        -0.5000 
     85 CA         -3.8855  -23.6681  -50.0136 C.3       15 UNK         0.1400 
     86 CB         -5.0464  -24.5769  -50.4643 C.3       15 UNK        -0.1800 
     87 C          -3.0935  -23.0794  -51.2012 C.2       15 UNK         0.5000 
     88 O          -3.5989  -23.0578  -52.3222 O.2       15 UNK        -0.5000 
     89 N          -1.8431  -22.6679  -50.9407 N.am      16 UNK        -0.5000 
     90 CA         -0.8123  -22.2503  -51.9018 C.3       16 UNK         0.1400 
     91 CB         -1.1674  -20.8805  -52.5111 C.3       16 UNK        -0.1800 
     92 C          -0.5074  -23.2982  -53.0006 C.2       16 UNK         0.5000 
     93 O          -0.0695  -22.9211  -54.0880 O.2       16 UNK        -0.5000 
     94 N          -0.7622  -24.5864  -52.7136 N.am      17 UNK        -0.5000 
     95 CA         -0.7680  -25.7117  -53.6571 C.3       17 UNK         0.1400 
     96 CB          0.6426  -25.9898  -54.2176 C.3       17 UNK        -0.1800 
     97 C          -1.8455  -25.5365  -54.7512 C.2       17 UNK         0.5000 
     98 O          -1.5809  -25.7518  -55.9357 O.2       17 UNK        -0.5000 
     99 N          -3.0402  -25.1110  -54.3169 N.am      18 UNK        -0.5000 
    100 CA        -4.2499  -24.7662  -55.0707 C.3       18 UNK         0.1400 
    101 CB        -4.7267  -25.9155  -55.9791 C.3       18 UNK        -0.1800 
    102 C         -4.1326  -23.4380  -55.8378 C.2       18 UNK         0.5000 
    103 O         -5.0112  -22.5854  -55.6933 O.2       18 UNK        -0.5000 
    104 N         -3.0536  -23.2814  -56.6188 N.am      19 UNK        -0.5000 
    105 CA        -2.7012  -22.1124  -57.4317 C.3       19 UNK         0.1400 
    106 CB        -2.1486  -20.9938  -56.5189 C.3       19 UNK        -0.1800 
    107 C         -3.8698  -21.6660  -58.3410 C.2       19 UNK         0.5000 
    108 O         -4.3810  -22.4824  -59.1105 O.2       19 UNK        -0.5000 
    109 N         -4.2892  -20.4035  -58.2119 N.am      20 UNK        -0.5000 
    110 CA        -5.5089  -19.8488  -58.7839 C.3       20 UNK         0.1400 
    111 CB        -5.1416  -18.7018  -59.7422 C.3       20 UNK        -0.1800 
    112 C         -6.3686  -19.3809  -57.6011 C.2       20 UNK         0.5000 
    113 O         -6.2807  -18.2182  -57.2012 O.2       20 UNK        -0.5000 
    114 N         -7.1110  -20.3257  -57.0038 N.am      21 UNK        -0.5000 
    115 CA        -7.9456  -20.1642  -55.8024 C.3       21 UNK         0.1400 
    116 CB        -9.1854  -19.3017  -56.1188 C.3       21 UNK        -0.1800 
    117 C         -7.1397  -19.6463  -54.5897 C.2       21 UNK         0.5000 
    118 O         -7.5711  -18.7218  -53.9007 O.2       21 UNK        -0.5000 
    119 N         -5.9529  -20.2356  -54.4093 N.am      22 UNK        -0.5000 
    120 CA        -4.8846  -19.8718  -53.4685 C.3       22 UNK         0.1400 
    121 C         -4.1920  -18.4937  -53.7018 C.2       22 UNK         0.5000 
    122 N         -4.5001  -17.7567  -54.7636 N.am      22 UNK        -0.7600 
    123 O         -3.3113  -18.1080  -52.9396 O.2       22 UNK        -0.5000 
    124 C124       -5.1998  -20.2234  -51.9856 C.3       23 UNK        -0.0398 
    125 S125       -6.0167  -18.9522  -50.9560 S.3       23 UNK        -0.2404 
    126 C126       -5.4852  -19.4700  -49.2890 C.3       23 UNK        -0.0205 
    127 H127       -1.7657  -11.6361  -51.9881 H         1 UNK         0.0600 
    128 H128       -3.3649  -11.8687  -51.2765 H         1 UNK         0.0600 
    129 H129       -2.7138  -13.0709  -52.3937 H         1 UNK         0.0600 
    130 H130       -3.2357  -12.5021  -49.1441 H         1 UNK         0.3000 
    131 H131       -1.5804  -14.6926  -48.2941 H         1 UNK         0.0600 
    132 H132       -3.2832  -12.8255  -46.5608 H         1 UNK         0.0800 
    133 H133       -3.9257  -14.2016  -47.4146 H         1 UNK         0.0800 
    134 H134       -3.5212  -17.0011  -44.9068 H         1 UNK         0.0800 
    135 H135       -4.6978  -16.0038  -45.7280 H         1 UNK         0.0800 
    136 H136       -5.4595  -17.8474  -47.1083 H         1 UNK         0.1150 
    137 H137       -2.9195  -19.2480  -50.2654 H         1 UNK         0.1150 
    138 H138       -1.3283  -16.7217  -47.2142 H         1 UNK         0.1150 
    139 H139       -0.8215  -17.7264  -50.6017 H         1 UNK         0.0800 
    140 H140       -0.0387  -17.0979  -49.1780 H         1 UNK         0.0800 
    141 H141        0.0110  -18.8439  -47.0492 H         1 UNK         0.0800 
    142 H142        1.6161  -19.4036  -47.4140 H         1 UNK         0.0800 
    143 H143        0.7075  -21.7407  -47.7137 H         1 UNK         0.0600 
    144 H144        1.0991  -20.4253  -45.2327 H         1 UNK         0.3000 
    145 H145        1.1272  -23.4415  -43.2625 H         1 UNK         0.0600 
    146 H146        3.3171  -22.4507  -42.6968 H         1 UNK         0.0600 
    147 H147        3.3690  -23.0988  -44.3291 H         1 UNK         0.0600 
    148 H148        3.2258  -21.3621  -44.0792 H         1 UNK         0.0600 
    149 H149        1.4292  -20.7378  -42.4736 H         1 UNK         0.3000 
    150 H150       -2.0441  -20.1105  -41.7350 H         1 UNK         0.0600 
    151 H151       -0.9692  -21.3298  -39.8234 H         1 UNK         0.0600 
    152 H152       -0.9806  -19.5911  -39.5702 H         1 UNK         0.0600 
    153 H153        0.5066  -20.3990  -40.0600 H         1 UNK         0.0600 
    154 H154        0.1753  -18.3901  -41.4897 H         1 UNK         0.3000 
    155 H155       -0.0777  -16.8489  -44.7405 H         1 UNK         0.0600 
    156 H156       -1.6180  -15.8485  -42.9861 H         1 UNK         0.0600 
    157 H157       -0.1347  -14.9314  -43.2150 H         1 UNK         0.0600 
    158 H158       -0.3254  -15.9772  -41.8128 H         1 UNK         0.0600 
    159 H159        1.8774  -16.4478  -42.7660 H         1 UNK         0.3000 
    160 H160        4.2572  -18.9386  -43.7442 H         1 UNK         0.0600 
    161 H161        4.1578  -15.8793  -43.9086 H         1 UNK         0.0600 
    162 H162        4.6028  -16.9680  -45.2132 H         1 UNK         0.0600 
    163 H163        5.6256  -16.8502  -43.7888 H         1 UNK         0.0600 
    164 H164        4.1532  -16.9678  -41.6506 H         1 UNK         0.3000 
    165 H165        2.8505  -19.1254  -39.1193 H         1 UNK         0.0600 
    166 H166        4.9614  -18.4021  -38.0451 H         1 UNK         0.0600 
    167 H167        5.2998  -19.5941  -39.2896 H         1 UNK         0.0600 
    168 H168        5.6177  -17.8916  -39.6004 H         1 UNK         0.0600 
    169 H169        3.7014  -16.3906  -39.1015 H         1 UNK         0.3000 
    170 H170        0.5368  -14.9404  -39.8626 H         1 UNK         0.0600 
    171 H171        0.3764  -15.5958  -37.4556 H         1 UNK         0.0600 
    172 H172        2.0571  -15.1363  -37.2104 H         1 UNK         0.0600 
    173 H173        0.8566  -13.9169  -37.6391 H         1 UNK         0.0600 
    174 H174        2.8847  -13.6594  -39.0697 H         1 UNK         0.3000 
    175 H175        4.0781  -12.4437  -40.4312 H         1 UNK         0.0600 
    176 H176        5.2723  -14.2884  -42.5701 H         1 UNK         0.0600 
    177 H177        6.0745  -12.9230  -41.8010 H         1 UNK         0.0600 
    178 H178        5.6576  -14.3425  -40.8543 H         1 UNK         0.0600 
    179 H179        3.8374  -12.4874  -43.3520 H         1 UNK         0.3000 
    180 H180        1.2043  -10.1290  -43.4926 H         1 UNK         0.0600 
    181 H181        4.1787   -9.6301  -44.0431 H         1 UNK         0.0600 
    182 H182        3.1386   -8.6244  -43.0420 H         1 UNK         0.0600 
    183 H183        2.8290   -8.7535  -44.7657 H         1 UNK         0.0600 
    184 H184        3.0200  -11.2992  -45.4226 H         1 UNK         0.3000 
    185 H185        2.0338  -12.5755  -47.0648 H         1 UNK         0.0600 
    186 H186        3.3833  -14.0514  -45.5696 H         1 UNK         0.0600 
    187 H187        1.9555  -15.0001  -45.1839 H         1 UNK         0.0600 
    188 H188        2.6078  -15.0062  -46.8226 H         1 UNK         0.0600 
    189 H189        0.0977  -14.6605  -46.7563 H         1 UNK         0.3000 
    190 H190       -1.6597  -20.3776  -45.3622 H         1 UNK         0.3000 
    191 H191       -3.9835  -20.9209  -46.8906 H         1 UNK         0.0600 
    192 H192       -4.0005  -19.4087  -44.9443 H         1 UNK         0.0600 
    193 H193       -5.1578  -20.7041  -44.6904 H         1 UNK         0.0600 
    194 H194       -3.6072  -20.7374  -43.8565 H         1 UNK         0.0600 
    195 H195       -2.2377  -22.9501  -44.4841 H         1 UNK         0.3000 
    196 H196       -4.0196  -25.1590  -44.5364 H         1 UNK         0.0600 
    197 H197       -2.1020  -26.3784  -43.4836 H         1 UNK         0.0600 
    198 H198       -2.3709  -24.8137  -42.7313 H         1 UNK         0.0600 
    199 H199       -1.0339  -25.0307  -43.8584 H         1 UNK         0.0600 
    200 H200       -1.0990  -24.4515  -46.4902 H         1 UNK         0.3000 
    201 H201       -1.2502  -26.8811  -48.0709 H         1 UNK         0.0600 
    202 H202        0.8841  -25.6562  -47.6542 H         1 UNK         0.0600 
    203 H203        0.2623  -24.2480  -48.5121 H         1 UNK         0.0600 
    204 H204        0.5527  -25.7537  -49.3767 H         1 UNK         0.0600 
    205 H205       -2.9966  -23.9538  -48.1326 H         1 UNK         0.3000 
    206 H206       -4.3115  -22.8191  -49.4780 H         1 UNK         0.0600 
    207 H207       -5.5939  -24.9679  -49.6066 H         1 UNK         0.0600 
    208 H208       -5.7592  -24.0266  -51.0797 H         1 UNK         0.0600 
    209 H209       -4.6922  -25.4248  -51.0515 H         1 UNK         0.0600 
    210 H210       -1.5681  -22.6481  -49.9626 H         1 UNK         0.3000 
    211 H211        0.1058  -22.1310  -51.3253 H         1 UNK         0.0600 
    212 H212       -1.9768  -20.9652  -53.2332 H         1 UNK         0.0600 
    213 H213       -0.3119  -20.4519  -53.0339 H         1 UNK         0.0600 
    214 H214       -1.4681  -20.1655  -51.7482 H         1 UNK         0.0600 
    215 H215       -1.1305  -24.8078  -51.7942 H         1 UNK         0.3000 
    216 H216       -1.0654  -26.5878  -53.0789 H         1 UNK         0.0600 
    217 H217        0.6528  -26.9120  -54.7997 H         1 UNK         0.0600 
    218 H218        1.3699  -26.1055  -53.4142 H         1 UNK         0.0600 
    219 H219        0.9893  -25.1904  -54.8726 H         1 UNK         0.0600 
    220 H220       -3.0953  -24.8411  -53.3420 H         1 UNK         0.3000 
    221 H221       -5.0214  -24.6161  -54.3136 H         1 UNK         0.0600 
    222 H222       -4.0350  -26.1077  -56.7993 H         1 UNK         0.0600 
    223 H223       -4.8457  -26.8404  -55.4150 H         1 UNK         0.0600 
    224 H224       -5.6941  -25.6782  -56.4233 H         1 UNK         0.0600 
    225 H225       -2.4068  -24.0625  -56.6595 H         1 UNK         0.3000 
    226 H226       -1.8970  -22.4275  -58.0977 H         1 UNK         0.0600 
    227 H227       -1.3048  -21.3549  -55.9315 H         1 UNK         0.0600 
    228 H228       -1.7865  -20.1462  -57.1020 H         1 UNK         0.0600 
    229 H229       -2.8988  -20.6263  -55.8193 H         1 UNK         0.0600 
    230 H230       -3.8228  -19.8149  -57.5361 H         1 UNK         0.3000 
    231 H231       -6.0703  -20.6010  -59.3423 H         1 UNK         0.0600 
    232 H232       -4.5564  -17.9265  -59.2459 H         1 UNK         0.0600 
    233 H233       -6.0380  -18.2308  -60.1470 H         1 UNK         0.0600 
    234 H234       -4.5573  -19.0699  -60.5856 H         1 UNK         0.0600 
    235 H235       -7.0515  -21.2688  -57.3629 H         1 UNK         0.3000 
    236 H236       -8.2969  -21.1610  -55.5317 H         1 UNK         0.0600 
    237 H237       -9.7451  -19.7102  -56.9601 H         1 UNK         0.0600 
    238 H238       -9.8639  -19.2652  -55.2658 H         1 UNK         0.0600 
    239 H239       -8.9130  -18.2748  -56.3644 H         1 UNK         0.0600 
    240 H240       -5.7108  -21.0080  -55.0272 H         1 UNK         0.3000 
    241 H241       -4.1085  -20.5782  -53.7572 H         1 UNK         0.0600 
    242 H242       -4.0252  -16.8790  -54.9000 H         1 UNK         0.3800 
    243 H243       -5.2296  -18.0329  -55.4096 H         1 UNK         0.3800 
    244 H244       -5.7935  -21.1372  -51.9385 H         1 UNK         0.0800 
    245 H245       -4.2577  -20.4730  -51.5021 H         1 UNK         0.0800 
    246 H246       -6.3466  -19.3852  -48.6250 H         1 UNK         0.0800 
    247 H247       -5.2153  -20.5263  -49.2862 H         1 UNK         0.0800 
@<TRIPOS>BOND
     1    1    2 1    
     2    1  127 1    
     3    1  128 1    
     4    1  129 1    
     5    2    3 2    
     6    2    4 am   BACKBONE|DICT|INTERRES
     7    4    5 1    
     8    4  130 1    
     9    5    6 1    
    10    5   65 1    
    11    5  131 1    
    12    6    7 1    
    13    6  132 1    
    14    6  133 1    
    15    7    8 1    
    16    8    9 1    
    17    8  134 1    
    18    8  135 1    
    19    9   10 ar   
    20    9   14 ar   
    21   10   11 ar   
    22   10  136 1    
    23   11   12 ar   
    24   11  126 1    
    25   12   13 ar   
    26   12  137 1    
    27   13   14 ar   
    28   13   15 1    
    29   14  138 1    
    30   15   16 1    
    31   15  139 1    
    32   15  140 1    
    33   16   17 1    
    34   17   18 1    
    35   17  141 1    
    36   17  142 1    
    37   18   19 1    
    38   18   67 1    
    39   18  143 1    
    40   19   20 am   BACKBONE|DICT|INTERRES
    41   19  144 1    
    42   20   21 2    
    43   20   22 1    
    44   22   23 1    
    45   22   24 1    
    46   22  145 1    
    47   23  146 1    
    48   23  147 1    
    49   23  148 1    
    50   24   25 am   BACKBONE|DICT|INTERRES
    51   24  149 1    
    52   25   26 2    
    53   25   27 1    
    54   27   28 1    
    55   27   29 1    
    56   27  150 1    
    57   28  151 1    
    58   28  152 1    
    59   28  153 1    
    60   29   30 am   BACKBONE|DICT|INTERRES
    61   29  154 1    
    62   30   31 2    
    63   30   32 1    
    64   32   33 1    
    65   32   34 1    
    66   32  155 1    
    67   33  156 1    
    68   33  157 1    
    69   33  158 1    
    70   34   35 am   BACKBONE|DICT|INTERRES
    71   34  159 1    
    72   35   36 2    
    73   35   37 1    
    74   37   38 1    
    75   37   39 1    
    76   37  160 1    
    77   38  161 1    
    78   38  162 1    
    79   38  163 1    
    80   39   40 am   BACKBONE|DICT|INTERRES
    81   39  164 1    
    82   40   41 2    
    83   40   42 1    
    84   42   43 1    
    85   42   44 1    
    86   42  165 1    
    87   43  166 1    
    88   43  167 1    
    89   43  168 1    
    90   44   45 am   BACKBONE|DICT|INTERRES
    91   44  169 1    
    92   45   46 2    
    93   45   47 1    
    94   47   48 1    
    95   47   49 1    
    96   47  170 1    
    97   48  171 1    
    98   48  172 1    
    99   48  173 1    
   100   49   50 am   BACKBONE|DICT|INTERRES
   101   49  174 1    
   102   50   51 2    
   103   50   52 1    
   104   52   53 1    
   105   52   54 1    
   106   52  175 1    
   107   53  176 1    
   108   53  177 1    
   109   53  178 1    
   110   54   55 am   BACKBONE|DICT|INTERRES
   111   54  179 1    
   112   55   56 2    
   113   55   57 1    
   114   57   58 1    
   115   57   59 1    
   116   57  180 1    
   117   58  181 1    
   118   58  182 1    
   119   58  183 1    
   120   59   60 am   BACKBONE|DICT|INTERRES
   121   59  184 1    
   122   60   61 2    
   123   60   62 1    
   124   62   63 1    
   125   62   64 1    
   126   62  185 1    
   127   63  186 1    
   128   63  187 1    
   129   63  188 1    
   130   64   65 am   BACKBONE|DICT|INTERRES
   131   64  189 1    
   132   65   66 2    
   133   67   68 2    
   134   67   69 am   BACKBONE|DICT|INTERRES
   135   69   70 1    
   136   69  190 1    
   137   70   71 1    
   138   70   72 1    
   139   70  191 1    
   140   71  192 1    
   141   71  193 1    
   142   71  194 1    
   143   72   73 2    
   144   72   74 am   BACKBONE|DICT|INTERRES
   145   74   75 1    
   146   74  195 1    
   147   75   76 1    
   148   75   77 1    
   149   75  196 1    
   150   76  197 1    
   151   76  198 1    
   152   76  199 1    
   153   77   78 2    
   154   77   79 am   BACKBONE|DICT|INTERRES
   155   79   80 1    
   156   79  200 1    
   157   80   81 1    
   158   80   82 1    
   159   80  201 1    
   160   81  202 1    
   161   81  203 1    
   162   81  204 1    
   163   82   83 2    
   164   82   84 am   BACKBONE|DICT|INTERRES
   165   84   85 1    
   166   84  205 1    
   167   85   86 1    
   168   85   87 1    
   169   85  206 1    
   170   86  207 1    
   171   86  208 1    
   172   86  209 1    
   173   87   88 2    
   174   87   89 am   BACKBONE|DICT|INTERRES
   175   89   90 1    
   176   89  210 1    
   177   90   91 1    
   178   90   92 1    
   179   90  211 1    
   180   91  212 1    
   181   91  213 1    
   182   91  214 1    
   183   92   93 2    
   184   92   94 am   BACKBONE|DICT|INTERRES
   185   94   95 1    
   186   94  215 1    
   187   95   96 1    
   188   95   97 1    
   189   95  216 1    
   190   96  217 1    
   191   96  218 1    
   192   96  219 1    
   193   97   98 2    
   194   97   99 am   BACKBONE|DICT|INTERRES
   195   99  100 1    
   196   99  220 1    
   197  100  101 1    
   198  100  102 1    
   199  100  221 1    
   200  101  222 1    
   201  101  223 1    
   202  101  224 1    
   203  102  103 2    
   204  102  104 am   BACKBONE|DICT|INTERRES
   205  104  105 1    
   206  104  225 1    
   207  105  106 1    
   208  105  107 1    
   209  105  226 1    
   210  106  227 1    
   211  106  228 1    
   212  106  229 1    
   213  107  108 2    
   214  107  109 am   BACKBONE|DICT|INTERRES
   215  109  110 1    
   216  109  230 1    
   217  110  111 1    
   218  110  112 1    
   219  110  231 1    
   220  111  232 1    
   221  111  233 1    
   222  111  234 1    
   223  112  113 2    
   224  112  114 am   BACKBONE|DICT|INTERRES
   225  114  115 1    
   226  114  235 1    
   227  115  116 1    
   228  115  117 1    
   229  115  236 1    
   230  116  237 1    
   231  116  238 1    
   232  116  239 1    
   233  117  118 2    
   234  117  119 am   BACKBONE|DICT|INTERRES
   235  119  120 1    
   236  119  240 1    
   237  120  121 1    
   238  120  124 1    
   239  120  241 1    
   240  121  122 am   BACKBONE|DICT|INTERRES
   241  121  123 2    
   242  122  242 1    
   243  122  243 1    
   244  124  125 1    
   245  124  244 1    
   246  124  245 1    
   247  125  126 1    
   248  126  246 1    
   249  126  247 1    
@<TRIPOS>SUBSTRUCTURE
     1 UNK         1 GROUP             0       ****    0 ROOT    
