@<TRIPOS>MOLECULE
3R540
247   249    1
SMALL
USER_CHARGES


@<TRIPOS>ATOM
      1 CA          0.7076  -11.1940  -49.4950 C.3       0 UNK        -0.1800 
      2 C           2.1550  -11.6609  -49.5464 C.2       0 UNK         0.5000 
      3 O           2.9667  -11.2212  -48.7329 O.2       0 UNK        -0.5000 
      4 N           2.4766  -12.5542  -50.4923 N.am      1 UNK        -0.5000 
      5 CA          3.8272  -13.0477  -50.8094 C.3       1 UNK         0.1400 
      6 C6          3.8698  -13.9623  -52.0712 C.3       23 UNK        -0.0398 
      7 S7          2.6263  -13.5528  -53.3570 S.3       23 UNK        -0.2404 
      8 C8          1.6373  -15.0870  -53.5107 C.3       23 UNK        -0.0205 
      9 C9          1.2830  -15.7250  -52.1721 C.ar      23 UNK        -0.0193 
     10 C10         0.4851  -15.0456  -51.2476 C.ar      23 UNK        -0.1150 
     11 C11         0.2362  -15.5976  -49.9884 C.ar      23 UNK        -0.0193 
     12 C12         0.7516  -16.8573  -49.6745 C.ar      23 UNK        -0.1150 
     13 C13         1.5303  -17.5599  -50.5965 C.ar      23 UNK        -0.0193 
     14 C14         1.7920  -16.9863  -51.8441 C.ar      23 UNK        -0.1150 
     15 C15         2.1297  -18.9127  -50.2331 C.3       23 UNK        -0.0205 
     16 S16         0.8687  -20.2216  -50.1057 S.3       23 UNK        -0.2404 
     17 C17         0.3360  -20.0804  -48.3645 C.3       23 UNK        -0.0398 
     18 CA          0.0302  -21.4601  -47.7280 C.3       11 UNK         0.1400 
     19 N           0.1370  -21.4396  -46.2654 N.am      11 UNK        -0.5000 
     20 C           0.0366  -22.5149  -45.4692 C.2       10 UNK         0.5000 
     21 O          -0.0806  -23.6662  -45.8864 O.2       10 UNK        -0.5000 
     22 CA         -0.0023  -22.2618  -43.9503 C.3       10 UNK         0.1400 
     23 CB          1.4149  -22.1202  -43.3769 C.3       10 UNK        -0.1800 
     24 N          -0.8082  -21.0910  -43.5983 N.am      10 UNK        -0.5000 
     25 C          -2.1277  -20.9926  -43.8185 C.2       9 UNK         0.5000 
     26 O          -2.8109  -21.9081  -44.2764 O.2       9 UNK        -0.5000 
     27 CA         -2.7861  -19.6304  -43.5339 C.3       9 UNK         0.1400 
     28 CB         -3.1187  -19.4795  -42.0423 C.3       9 UNK        -0.1800 
     29 N          -1.9594  -18.5062  -43.9733 N.am      9 UNK        -0.5000 
     30 C          -1.6337  -18.2546  -45.2494 C.2       8 UNK         0.5000 
     31 O          -2.0470  -18.9102  -46.2069 O.2       8 UNK        -0.5000 
     32 CA         -0.6335  -17.1102  -45.4906 C.3       8 UNK         0.1400 
     33 CB         -1.3416  -15.7485  -45.4281 C.3       8 UNK        -0.1800 
     34 N           0.4814  -17.1341  -44.5421 N.am      8 UNK        -0.5000 
     35 C           1.3786  -18.1257  -44.4421 C.2       7 UNK         0.5000 
     36 O           1.4094  -19.0875  -45.2076 O.2       7 UNK        -0.5000 
     37 CA          2.3652  -18.0701  -43.2598 C.3       7 UNK         0.1400 
     38 CB          3.6174  -17.2470  -43.5883 C.3       7 UNK        -0.1800 
     39 N           1.7408  -17.5345  -42.0535 N.am      7 UNK        -0.5000 
     40 C           0.8420  -18.1969  -41.3138 C.2       6 UNK         0.5000 
     41 O           0.4698  -19.3447  -41.5560 O.2       6 UNK        -0.5000 
     42 CA          0.2282  -17.4238  -40.1333 C.3       6 UNK         0.1400 
     43 CB          1.1361  -17.5088  -38.8975 C.3       6 UNK        -0.1800 
     44 N          -0.0170  -16.0178  -40.4621 N.am      6 UNK        -0.5000 
     45 C          -0.9291  -15.6048  -41.3530 C.2       5 UNK         0.5000 
     46 O          -1.6833  -16.3666  -41.9577 O.2       5 UNK        -0.5000 
     47 CA         -0.9735  -14.0947  -41.6490 C.3       5 UNK         0.1400 
     48 CB         -1.8589  -13.3696  -40.6247 C.3       5 UNK        -0.1800 
     49 N           0.3533  -13.4704  -41.6760 N.am      5 UNK        -0.5000 
     50 C           1.2981  -13.7368  -42.5869 C.2       4 UNK         0.5000 
     51 O           1.1728  -14.5763  -43.4807 O.2       4 UNK        -0.5000 
     52 CA          2.6154  -12.9654  -42.4608 C.3       4 UNK         0.1400 
     53 CB          3.6077  -13.7266  -41.5629 C.3       4 UNK        -0.1800 
     54 N           3.1784  -12.7733  -43.7948 N.am      4 UNK        -0.5000 
     55 C           4.0743  -11.8365  -44.1265 C.2       3 UNK         0.5000 
     56 O           4.5414  -11.0412  -43.3086 O.2       3 UNK        -0.5000 
     57 CA          4.5008  -11.7245  -45.6090 C.3       3 UNK         0.1400 
     58 CB          6.0041  -11.4099  -45.7593 C.3       3 UNK        -0.1800 
     59 N           4.1264  -12.8501  -46.4752 N.am      3 UNK        -0.5000 
     60 C           4.5509  -14.1216  -46.4034 C.2       2 UNK         0.5000 
     61 O           5.2602  -14.5577  -45.4970 O.2       2 UNK        -0.5000 
     62 CA          4.1201  -15.0740  -47.5392 C.3       2 UNK         0.1400 
     63 CB          2.9777  -15.9889  -47.0807 C.3       2 UNK        -0.1800 
     64 N           3.6982  -14.3885  -48.7601 N.am      2 UNK        -0.5000 
     65 C           4.5109  -13.7575  -49.6193 C.2       1 UNK         0.5000 
     66 O           5.7360  -13.7151  -49.5018 O.2       1 UNK        -0.5000 
     67 C          -1.3408  -21.9988  -48.1834 C.2       11 UNK         0.5000 
     68 O          -1.3878  -22.9189  -48.9981 O.2       11 UNK        -0.5000 
     69 N          -2.4230  -21.4613  -47.5996 N.am      12 UNK        -0.5000 
     70 CA         -3.7989  -21.8879  -47.8566 C.3       12 UNK         0.1400 
     71 CB         -4.7759  -20.9535  -47.1296 C.3       12 UNK        -0.1800 
     72 C          -4.0655  -23.3598  -47.4925 C.2       12 UNK         0.5000 
     73 O          -4.7694  -24.0476  -48.2347 O.2       12 UNK        -0.5000 
     74 N          -3.4803  -23.8231  -46.3803 N.am      13 UNK        -0.5000 
     75 CA         -3.5136  -25.2188  -45.9484 C.3       13 UNK         0.1400 
     76 CB         -2.9756  -25.3331  -44.5142 C.3       13 UNK        -0.1800 
     77 C          -2.7423  -26.1426  -46.9084 C.2       13 UNK         0.5000 
     78 O          -3.2871  -27.1635  -47.3288 O.2       13 UNK        -0.5000 
     79 N          -1.5120  -25.7515  -47.2725 N.am      14 UNK        -0.5000 
     80 CA         -0.6409  -26.4740  -48.2055 C.3       14 UNK         0.1400 
     81 CB          0.7454  -25.8128  -48.2290 C.3       14 UNK        -0.1800 
     82 C          -1.2182  -26.5725  -49.6304 C.2       14 UNK         0.5000 
     83 O          -1.0476  -27.6003  -50.2868 O.2       14 UNK        -0.5000 
     84 N          -1.9235  -25.5206  -50.0647 N.am      15 UNK        -0.5000 
     85 CA         -2.6533  -25.4512  -51.3312 C.3       15 UNK         0.1400 
     86 CB         -2.9485  -23.9775  -51.6451 C.3       15 UNK        -0.1800 
     87 C          -3.9532  -26.2857  -51.3540 C.2       15 UNK         0.5000 
     88 O          -4.5522  -26.4142  -52.4217 O.2       15 UNK        -0.5000 
     89 N          -4.3520  -26.8436  -50.1996 N.am      16 UNK        -0.5000 
     90 CA         -5.5531  -27.6435  -49.9526 C.3       16 UNK         0.1400 
     91 CB         -5.5742  -28.9243  -50.8142 C.3       16 UNK        -0.1800 
     92 C          -6.8291  -26.7923  -50.0814 C.2       16 UNK         0.5000 
     93 O          -7.6015  -26.9589  -51.0269 O.2       16 UNK        -0.5000 
     94 N          -7.0066  -25.8940  -49.1029 N.am      17 UNK        -0.5000 
     95 CA         -8.1045  -24.9340  -48.9545 C.3       17 UNK         0.1400 
     96 CB         -9.4824  -25.6294  -48.9034 C.3       17 UNK        -0.1800 
     97 C          -8.0183  -23.7945  -49.9867 C.2       17 UNK         0.5000 
     98 O          -9.0069  -23.4686  -50.6468 O.2       17 UNK        -0.5000 
     99 N          -6.8242  -23.1931  -50.0660 N.am      18 UNK        -0.5000 
    100 CA        -6.4680  -22.0280  -50.8743 C.3       18 UNK         0.1400 
    101 CB        -7.1829  -20.7610  -50.3516 C.3       18 UNK        -0.1800 
    102 C         -6.6276  -22.2750  -52.3878 C.2       18 UNK         0.5000 
    103 O         -6.0144  -23.2059  -52.9097 O.2       18 UNK        -0.5000 
    104 N         -7.3904  -21.4105  -53.0720 N.am      19 UNK        -0.5000 
    105 CA        -7.6305  -21.3340  -54.5189 C.3       19 UNK         0.1400 
    106 CB        -8.2421  -22.6348  -55.0751 C.3       19 UNK        -0.1800 
    107 C         -6.3933  -20.8927  -55.3251 C.2       19 UNK         0.5000 
    108 O         -6.4853  -19.9283  -56.0854 O.2       19 UNK        -0.5000 
    109 N         -5.2610  -21.5815  -55.1367 N.am      20 UNK        -0.5000 
    110 CA        -3.9718  -21.2443  -55.7400 C.3       20 UNK         0.1400 
    111 CB        -3.0440  -22.4690  -55.6917 C.3       20 UNK        -0.1800 
    112 C         -3.3270  -20.0304  -55.0477 C.2       20 UNK         0.5000 
    113 O         -2.9598  -19.0658  -55.7194 O.2       20 UNK        -0.5000 
    114 N         -3.2289  -20.0980  -53.7157 N.am      21 UNK        -0.5000 
    115 CA        -2.6904  -19.0763  -52.8235 C.3       21 UNK         0.1400 
    116 CB        -1.1652  -18.9569  -53.0017 C.3       21 UNK        -0.1800 
    117 C         -3.0325  -19.4938  -51.3794 C.2       21 UNK         0.5000 
    118 O         -3.2043  -20.6883  -51.1438 O.2       21 UNK        -0.5000 
    119 N         -3.1228  -18.5809  -50.4024 N.am      22 UNK        -0.5000 
    120 CA        -3.1233  -17.1143  -50.5409 C.3       22 UNK         0.1400 
    121 C         -4.4248  -16.5530  -51.1922 C.2       22 UNK         0.5000 
    122 N         -5.5597  -17.2307  -51.0719 N.am      22 UNK        -0.7600 
    123 O         -4.3961  -15.5188  -51.8511 O.2       22 UNK        -0.5000 
    124 C124       -2.8418  -16.4473  -49.1694 C.3       23 UNK        -0.0398 
    125 S125       -2.3125  -14.7055  -49.3109 S.3       23 UNK        -0.2404 
    126 C126       -0.5371  -14.8112  -48.9437 C.3       23 UNK        -0.0205 
    127 H127        0.6555  -10.1216  -49.6820 H         1 UNK         0.0600 
    128 H128        0.2836  -11.3881  -48.5099 H         1 UNK         0.0600 
    129 H129        0.0906  -11.6981  -50.2394 H         1 UNK         0.0600 
    130 H130        1.7665  -12.8637  -51.1403 H         1 UNK         0.3000 
    131 H131        4.4231  -12.1596  -51.0296 H         1 UNK         0.0600 
    132 H132        4.8562  -13.8884  -52.5317 H         1 UNK         0.0800 
    133 H133        3.7716  -15.0135  -51.8009 H         1 UNK         0.0800 
    134 H134        0.7174  -14.8618  -54.0519 H         1 UNK         0.0800 
    135 H135        2.1904  -15.7911  -54.1341 H         1 UNK         0.0800 
    136 H136        0.0841  -14.0732  -51.4957 H         1 UNK         0.1150 
    137 H137        0.5671  -17.2838  -48.7010 H         1 UNK         0.1150 
    138 H138        2.4108  -17.5151  -52.5552 H         1 UNK         0.1150 
    139 H139        2.8514  -19.2165  -50.9927 H         1 UNK         0.0800 
    140 H140        2.6956  -18.8317  -49.3045 H         1 UNK         0.0800 
    141 H141       -0.5223  -19.4097  -48.3093 H         1 UNK         0.0800 
    142 H142        1.1339  -19.5938  -47.8036 H         1 UNK         0.0800 
    143 H143        0.7885  -22.1669  -48.0720 H         1 UNK         0.0600 
    144 H144        0.3041  -20.5350  -45.8345 H         1 UNK         0.3000 
    145 H145       -0.4664  -23.1322  -43.4821 H         1 UNK         0.0600 
    146 H146        1.3915  -21.9690  -42.2976 H         1 UNK         0.0600 
    147 H147        2.0012  -23.0199  -43.5672 H         1 UNK         0.0600 
    148 H148        1.9510  -21.2829  -43.8216 H         1 UNK         0.0600 
    149 H149       -0.3251  -20.3168  -43.1553 H         1 UNK         0.3000 
    150 H150       -3.7226  -19.5920  -44.0938 H         1 UNK         0.0600 
    151 H151       -3.7620  -20.2920  -41.7022 H         1 UNK         0.0600 
    152 H152       -3.6449  -18.5445  -41.8493 H         1 UNK         0.0600 
    153 H153       -2.2213  -19.4905  -41.4240 H         1 UNK         0.0600 
    154 H154       -1.6238  -17.8768  -43.2506 H         1 UNK         0.3000 
    155 H155       -0.2180  -17.2368  -46.4910 H         1 UNK         0.0600 
    156 H156       -1.8168  -15.5819  -44.4627 H         1 UNK         0.0600 
    157 H157       -2.1219  -15.6796  -46.1867 H         1 UNK         0.0600 
    158 H158       -0.6436  -14.9288  -45.5984 H         1 UNK         0.0600 
    159 H159        0.5751  -16.3281  -43.9310 H         1 UNK         0.3000 
    160 H160        2.6878  -19.0916  -43.0491 H         1 UNK         0.0600 
    161 H161        3.3703  -16.2186  -43.8529 H         1 UNK         0.0600 
    162 H162        4.1638  -17.6877  -44.4226 H         1 UNK         0.0600 
    163 H163        4.3024  -17.2171  -42.7410 H         1 UNK         0.0600 
    164 H164        1.9606  -16.5809  -41.8106 H         1 UNK         0.3000 
    165 H165       -0.7281  -17.8913  -39.8888 H         1 UNK         0.0600 
    166 H166        0.6761  -17.0235  -38.0365 H         1 UNK         0.0600 
    167 H167        1.3230  -18.5477  -38.6222 H         1 UNK         0.0600 
    168 H168        2.1035  -17.0363  -39.0725 H         1 UNK         0.0600 
    169 H169        0.5604  -15.3288  -40.0032 H         1 UNK         0.3000 
    170 H170       -1.4233  -13.9658  -42.6355 H         1 UNK         0.0600 
    171 H171       -2.8597  -13.8029  -40.5982 H         1 UNK         0.0600 
    172 H172       -1.4467  -13.4332  -39.6169 H         1 UNK         0.0600 
    173 H173       -1.9702  -12.3148  -40.8765 H         1 UNK         0.0600 
    174 H174        0.5364  -12.7743  -40.9674 H         1 UNK         0.3000 
    175 H175        2.4007  -11.9894  -42.0202 H         1 UNK         0.0600 
    176 H176        3.8841  -14.6887  -41.9942 H         1 UNK         0.0600 
    177 H177        4.5241  -13.1559  -41.4129 H         1 UNK         0.0600 
    178 H178        3.1820  -13.9163  -40.5768 H         1 UNK         0.0600 
    179 H179        2.8064  -13.3890  -44.5061 H         1 UNK         0.3000 
    180 H180        3.9533  -10.8665  -46.0014 H         1 UNK         0.0600 
    181 H181        6.6264  -12.1948  -45.3287 H         1 UNK         0.0600 
    182 H182        6.2641  -10.4762  -45.2594 H         1 UNK         0.0600 
    183 H183        6.2799  -11.3002  -46.8083 H         1 UNK         0.0600 
    184 H184        3.5680  -12.5850  -47.2792 H         1 UNK         0.3000 
    185 H185        4.9815  -15.7008  -47.7795 H         1 UNK         0.0600 
    186 H186        3.2529  -16.5262  -46.1787 H         1 UNK         0.0600 
    187 H187        2.0631  -15.4333  -46.8700 H         1 UNK         0.0600 
    188 H188        2.7596  -16.7442  -47.8326 H         1 UNK         0.0600 
    189 H189        2.7081  -14.3755  -48.9544 H         1 UNK         0.3000 
    190 H190       -2.2954  -20.6962  -46.9433 H         1 UNK         0.3000 
    191 H191       -3.9718  -21.7895  -48.9271 H         1 UNK         0.0600 
    192 H192       -4.6748  -19.9264  -47.4804 H         1 UNK         0.0600 
    193 H193       -5.8089  -21.2583  -47.2994 H         1 UNK         0.0600 
    194 H194       -4.6095  -20.9564  -46.0527 H         1 UNK         0.0600 
    195 H195       -2.9771  -23.1705  -45.7868 H         1 UNK         0.3000 
    196 H196       -4.5567  -25.5419  -45.9416 H         1 UNK         0.0600 
    197 H197       -3.0225  -26.3640  -44.1612 H         1 UNK         0.0600 
    198 H198       -3.5620  -24.7254  -43.8249 H         1 UNK         0.0600 
    199 H199       -1.9376  -25.0088  -44.4428 H         1 UNK         0.0600 
    200 H200       -1.1260  -24.9031  -46.8647 H         1 UNK         0.3000 
    201 H201       -0.5252  -27.4917  -47.8273 H         1 UNK         0.0600 
    202 H202        1.2026  -25.8212  -47.2395 H         1 UNK         0.0600 
    203 H203        0.6899  -24.7760  -48.5627 H         1 UNK         0.0600 
    204 H204        1.4203  -26.3407  -48.9039 H         1 UNK         0.0600 
    205 H205       -1.9353  -24.6781  -49.4944 H         1 UNK         0.3000 
    206 H206       -2.0063  -25.8411  -52.1194 H         1 UNK         0.0600 
    207 H207       -2.0323  -23.3891  -51.6978 H         1 UNK         0.0600 
    208 H208       -3.4537  -23.8754  -52.6048 H         1 UNK         0.0600 
    209 H209       -3.5893  -23.5296  -50.8854 H         1 UNK         0.0600 
    210 H210       -3.7821  -26.6732  -49.3798 H         1 UNK         0.3000 
    211 H211       -5.4933  -27.9654  -48.9117 H         1 UNK         0.0600 
    212 H212       -5.6744  -28.7080  -51.8779 H         1 UNK         0.0600 
    213 H213       -6.4138  -29.5617  -50.5349 H         1 UNK         0.0600 
    214 H214       -4.6633  -29.5065  -50.6749 H         1 UNK         0.0600 
    215 H215       -6.2571  -25.7832  -48.4317 H         1 UNK         0.3000 
    216 H216       -7.9532  -24.4634  -47.9817 H         1 UNK         0.0600 
    217 H217      -10.2633  -24.9183  -48.6320 H         1 UNK         0.0600 
    218 H218       -9.4959  -26.4253  -48.1589 H         1 UNK         0.0600 
    219 H219       -9.7614  -26.0619  -49.8642 H         1 UNK         0.0600 
    220 H220       -6.0715  -23.5771  -49.5000 H         1 UNK         0.3000 
    221 H221       -5.4020  -21.8824  -50.7201 H         1 UNK         0.0600 
    222 H222       -8.2662  -20.8251  -50.4590 H         1 UNK         0.0600 
    223 H223       -6.9689  -20.5998  -49.2958 H         1 UNK         0.0600 
    224 H224       -6.8462  -19.8706  -50.8820 H         1 UNK         0.0600 
    225 H225       -7.8359  -20.6785  -52.5370 H         1 UNK         0.3000 
    226 H226       -8.3796  -20.5507  -54.6457 H         1 UNK         0.0600 
    227 H227       -9.1400  -22.9141  -54.5237 H         1 UNK         0.0600 
    228 H228       -8.5269  -22.5114  -56.1206 H         1 UNK         0.0600 
    229 H229       -7.5463  -23.4726  -55.0272 H         1 UNK         0.0600 
    230 H230       -5.2866  -22.3495  -54.4716 H         1 UNK         0.3000 
    231 H231       -4.1340  -20.9880  -56.7893 H         1 UNK         0.0600 
    232 H232       -2.8481  -22.7920  -54.6693 H         1 UNK         0.0600 
    233 H233       -2.0819  -22.2463  -56.1548 H         1 UNK         0.0600 
    234 H234       -3.4769  -23.3117  -56.2310 H         1 UNK         0.0600 
    235 H235       -3.5541  -20.9232  -53.2273 H         1 UNK         0.3000 
    236 H236       -3.1671  -18.1294  -53.0730 H         1 UNK         0.0600 
    237 H237       -0.9008  -18.5978  -53.9959 H         1 UNK         0.0600 
    238 H238       -0.7420  -18.2537  -52.2856 H         1 UNK         0.0600 
    239 H239       -0.6688  -19.9156  -52.8480 H         1 UNK         0.0600 
    240 H240       -3.3049  -18.9191  -49.4707 H         1 UNK         0.3000 
    241 H241       -2.2972  -16.8491  -51.2022 H         1 UNK         0.0600 
    242 H242       -5.6033  -18.0723  -50.5224 H         1 UNK         0.3800 
    243 H243       -6.3958  -16.8679  -51.5027 H         1 UNK         0.3800 
    244 H244       -3.7234  -16.4935  -48.5277 H         1 UNK         0.0800 
    245 H245       -2.0665  -17.0001  -48.6372 H         1 UNK         0.0800 
    246 H246       -0.3939  -15.2455  -47.9568 H         1 UNK         0.0800 
    247 H247       -0.1332  -13.8024  -48.8832 H         1 UNK         0.0800 
@<TRIPOS>BOND
     1    1    2 1    
     2    1  127 1    
     3    1  128 1    
     4    1  129 1    
     5    2    3 2    
     6    2    4 am   BACKBONE|DICT|INTERRES
     7    4    5 1    
     8    4  130 1    
     9    5    6 1    
    10    5   65 1    
    11    5  131 1    
    12    6    7 1    
    13    6  132 1    
    14    6  133 1    
    15    7    8 1    
    16    8    9 1    
    17    8  134 1    
    18    8  135 1    
    19    9   10 ar   
    20    9   14 ar   
    21   10   11 ar   
    22   10  136 1    
    23   11   12 ar   
    24   11  126 1    
    25   12   13 ar   
    26   12  137 1    
    27   13   14 ar   
    28   13   15 1    
    29   14  138 1    
    30   15   16 1    
    31   15  139 1    
    32   15  140 1    
    33   16   17 1    
    34   17   18 1    
    35   17  141 1    
    36   17  142 1    
    37   18   19 1    
    38   18   67 1    
    39   18  143 1    
    40   19   20 am   BACKBONE|DICT|INTERRES
    41   19  144 1    
    42   20   21 2    
    43   20   22 1    
    44   22   23 1    
    45   22   24 1    
    46   22  145 1    
    47   23  146 1    
    48   23  147 1    
    49   23  148 1    
    50   24   25 am   BACKBONE|DICT|INTERRES
    51   24  149 1    
    52   25   26 2    
    53   25   27 1    
    54   27   28 1    
    55   27   29 1    
    56   27  150 1    
    57   28  151 1    
    58   28  152 1    
    59   28  153 1    
    60   29   30 am   BACKBONE|DICT|INTERRES
    61   29  154 1    
    62   30   31 2    
    63   30   32 1    
    64   32   33 1    
    65   32   34 1    
    66   32  155 1    
    67   33  156 1    
    68   33  157 1    
    69   33  158 1    
    70   34   35 am   BACKBONE|DICT|INTERRES
    71   34  159 1    
    72   35   36 2    
    73   35   37 1    
    74   37   38 1    
    75   37   39 1    
    76   37  160 1    
    77   38  161 1    
    78   38  162 1    
    79   38  163 1    
    80   39   40 am   BACKBONE|DICT|INTERRES
    81   39  164 1    
    82   40   41 2    
    83   40   42 1    
    84   42   43 1    
    85   42   44 1    
    86   42  165 1    
    87   43  166 1    
    88   43  167 1    
    89   43  168 1    
    90   44   45 am   BACKBONE|DICT|INTERRES
    91   44  169 1    
    92   45   46 2    
    93   45   47 1    
    94   47   48 1    
    95   47   49 1    
    96   47  170 1    
    97   48  171 1    
    98   48  172 1    
    99   48  173 1    
   100   49   50 am   BACKBONE|DICT|INTERRES
   101   49  174 1    
   102   50   51 2    
   103   50   52 1    
   104   52   53 1    
   105   52   54 1    
   106   52  175 1    
   107   53  176 1    
   108   53  177 1    
   109   53  178 1    
   110   54   55 am   BACKBONE|DICT|INTERRES
   111   54  179 1    
   112   55   56 2    
   113   55   57 1    
   114   57   58 1    
   115   57   59 1    
   116   57  180 1    
   117   58  181 1    
   118   58  182 1    
   119   58  183 1    
   120   59   60 am   BACKBONE|DICT|INTERRES
   121   59  184 1    
   122   60   61 2    
   123   60   62 1    
   124   62   63 1    
   125   62   64 1    
   126   62  185 1    
   127   63  186 1    
   128   63  187 1    
   129   63  188 1    
   130   64   65 am   BACKBONE|DICT|INTERRES
   131   64  189 1    
   132   65   66 2    
   133   67   68 2    
   134   67   69 am   BACKBONE|DICT|INTERRES
   135   69   70 1    
   136   69  190 1    
   137   70   71 1    
   138   70   72 1    
   139   70  191 1    
   140   71  192 1    
   141   71  193 1    
   142   71  194 1    
   143   72   73 2    
   144   72   74 am   BACKBONE|DICT|INTERRES
   145   74   75 1    
   146   74  195 1    
   147   75   76 1    
   148   75   77 1    
   149   75  196 1    
   150   76  197 1    
   151   76  198 1    
   152   76  199 1    
   153   77   78 2    
   154   77   79 am   BACKBONE|DICT|INTERRES
   155   79   80 1    
   156   79  200 1    
   157   80   81 1    
   158   80   82 1    
   159   80  201 1    
   160   81  202 1    
   161   81  203 1    
   162   81  204 1    
   163   82   83 2    
   164   82   84 am   BACKBONE|DICT|INTERRES
   165   84   85 1    
   166   84  205 1    
   167   85   86 1    
   168   85   87 1    
   169   85  206 1    
   170   86  207 1    
   171   86  208 1    
   172   86  209 1    
   173   87   88 2    
   174   87   89 am   BACKBONE|DICT|INTERRES
   175   89   90 1    
   176   89  210 1    
   177   90   91 1    
   178   90   92 1    
   179   90  211 1    
   180   91  212 1    
   181   91  213 1    
   182   91  214 1    
   183   92   93 2    
   184   92   94 am   BACKBONE|DICT|INTERRES
   185   94   95 1    
   186   94  215 1    
   187   95   96 1    
   188   95   97 1    
   189   95  216 1    
   190   96  217 1    
   191   96  218 1    
   192   96  219 1    
   193   97   98 2    
   194   97   99 am   BACKBONE|DICT|INTERRES
   195   99  100 1    
   196   99  220 1    
   197  100  101 1    
   198  100  102 1    
   199  100  221 1    
   200  101  222 1    
   201  101  223 1    
   202  101  224 1    
   203  102  103 2    
   204  102  104 am   BACKBONE|DICT|INTERRES
   205  104  105 1    
   206  104  225 1    
   207  105  106 1    
   208  105  107 1    
   209  105  226 1    
   210  106  227 1    
   211  106  228 1    
   212  106  229 1    
   213  107  108 2    
   214  107  109 am   BACKBONE|DICT|INTERRES
   215  109  110 1    
   216  109  230 1    
   217  110  111 1    
   218  110  112 1    
   219  110  231 1    
   220  111  232 1    
   221  111  233 1    
   222  111  234 1    
   223  112  113 2    
   224  112  114 am   BACKBONE|DICT|INTERRES
   225  114  115 1    
   226  114  235 1    
   227  115  116 1    
   228  115  117 1    
   229  115  236 1    
   230  116  237 1    
   231  116  238 1    
   232  116  239 1    
   233  117  118 2    
   234  117  119 am   BACKBONE|DICT|INTERRES
   235  119  120 1    
   236  119  240 1    
   237  120  121 1    
   238  120  124 1    
   239  120  241 1    
   240  121  122 am   BACKBONE|DICT|INTERRES
   241  121  123 2    
   242  122  242 1    
   243  122  243 1    
   244  124  125 1    
   245  124  244 1    
   246  124  245 1    
   247  125  126 1    
   248  126  246 1    
   249  126  247 1    
@<TRIPOS>SUBSTRUCTURE
     1 UNK         1 GROUP             0       ****    0 ROOT    
