@<TRIPOS>MOLECULE
3R540
247   249    1
SMALL
USER_CHARGES


@<TRIPOS>ATOM
      1 CA          4.0788  -10.7363  -54.8683 C.3       0 UNK        -0.1800 
      2 C           4.3980  -11.0928  -53.4232 C.2       0 UNK         0.5000 
      3 O           4.9798  -10.2783  -52.7060 O.2       0 UNK        -0.5000 
      4 N           4.0282  -12.3070  -52.9975 N.am      1 UNK        -0.5000 
      5 CA          4.1863  -12.7986  -51.6253 C.3       1 UNK         0.1400 
      6 C6          4.0615  -14.3425  -51.5710 C.3       23 UNK        -0.0398 
      7 S7          4.9844  -15.0604  -50.1708 S.3       23 UNK        -0.2404 
      8 C8          3.6385  -15.4494  -49.0143 C.3       23 UNK        -0.0205 
      9 C9          3.1826  -16.8934  -49.1284 C.ar      23 UNK        -0.0193 
     10 C10         2.2371  -17.2685  -50.0878 C.ar      23 UNK        -0.1150 
     11 C11         1.7866  -18.5898  -50.1601 C.ar      23 UNK        -0.0193 
     12 C12         2.3107  -19.5427  -49.2832 C.ar      23 UNK        -0.1150 
     13 C13         3.2271  -19.1707  -48.2960 C.ar      23 UNK        -0.0193 
     14 C14         3.6713  -17.8483  -48.2332 C.ar      23 UNK        -0.1150 
     15 C15         3.7012  -20.1854  -47.2679 C.3       23 UNK        -0.0205 
     16 S16         2.7936  -20.0300  -45.6916 S.3       23 UNK        -0.2404 
     17 C17         1.0967  -20.4845  -46.1890 C.3       23 UNK        -0.0398 
     18 CA          0.8996  -22.0163  -46.1562 C.3       11 UNK         0.1400 
     19 N           0.7368  -22.5264  -44.7937 N.am      11 UNK        -0.5000 
     20 C           0.8567  -23.8134  -44.4437 C.2       10 UNK         0.5000 
     21 O           1.1474  -24.7117  -45.2314 O.2       10 UNK        -0.5000 
     22 CA          0.5608  -24.1593  -42.9733 C.3       10 UNK         0.1400 
     23 CB          1.7953  -23.9011  -42.0969 C.3       10 UNK        -0.1800 
     24 N          -0.5782  -23.4102  -42.4415 N.am      10 UNK        -0.5000 
     25 C          -1.8415  -23.5516  -42.8670 C.2       9 UNK         0.5000 
     26 O          -2.1886  -24.3655  -43.7218 O.2       9 UNK        -0.5000 
     27 CA         -2.8816  -22.5830  -42.2750 C.3       9 UNK         0.1400 
     28 CB         -3.4568  -23.1421  -40.9655 C.3       9 UNK        -0.1800 
     29 N          -2.3563  -21.2339  -42.0406 N.am      9 UNK        -0.5000 
     30 C          -1.8828  -20.4268  -42.9991 C.2       8 UNK         0.5000 
     31 O          -1.7804  -20.7599  -44.1818 O.2       8 UNK        -0.5000 
     32 CA         -1.4015  -19.0347  -42.5506 C.3       8 UNK         0.1400 
     33 CB          0.1131  -19.0507  -42.2962 C.3       8 UNK        -0.1800 
     34 N          -1.7236  -18.0072  -43.5425 N.am      8 UNK        -0.5000 
     35 C          -2.9756  -17.6212  -43.8332 C.2       7 UNK         0.5000 
     36 O          -3.9612  -18.0382  -43.2220 O.2       7 UNK        -0.5000 
     37 CA         -3.1948  -16.5896  -44.9606 C.3       7 UNK         0.1400 
     38 CB         -3.7439  -15.2737  -44.3860 C.3       7 UNK        -0.1800 
     39 N          -2.0133  -16.2912  -45.7660 N.am      7 UNK        -0.5000 
     40 C          -1.4221  -17.1260  -46.6315 C.2       6 UNK         0.5000 
     41 O          -1.8129  -18.2694  -46.8613 O.2       6 UNK        -0.5000 
     42 CA         -0.1530  -16.5928  -47.3277 C.3       6 UNK         0.1400 
     43 CB         -0.5349  -15.8250  -48.6030 C.3       6 UNK        -0.1800 
     44 N           0.6603  -15.7207  -46.4718 N.am      6 UNK        -0.5000 
     45 C           1.1824  -16.0742  -45.2871 C.2       5 UNK         0.5000 
     46 O           1.0300  -17.1814  -44.7757 O.2       5 UNK        -0.5000 
     47 CA          1.9471  -14.9898  -44.5122 C.3       5 UNK         0.1400 
     48 CB          3.3703  -14.8033  -45.0567 C.3       5 UNK        -0.1800 
     49 N           1.2339  -13.7153  -44.5498 N.am      5 UNK        -0.5000 
     50 C           0.1972  -13.4109  -43.7568 C.2       4 UNK         0.5000 
     51 O          -0.2126  -14.1405  -42.8539 O.2       4 UNK        -0.5000 
     52 CA         -0.5155  -12.0717  -44.0275 C.3       4 UNK         0.1400 
     53 CB          0.1190  -10.9462  -43.1969 C.3       4 UNK        -0.1800 
     54 N          -0.5067  -11.6880  -45.4405 N.am      4 UNK        -0.5000 
     55 C          -1.1436  -12.3545  -46.4134 C.2       3 UNK         0.5000 
     56 O          -1.8234  -13.3606  -46.2199 O.2       3 UNK        -0.5000 
     57 CA         -0.9498  -11.8350  -47.8499 C.3       3 UNK         0.1400 
     58 CB         -2.0040  -10.7692  -48.1832 C.3       3 UNK        -0.1800 
     59 N           0.3873  -11.2919  -48.1062 N.am      3 UNK        -0.5000 
     60 C           1.5274  -11.9877  -48.0086 C.2       2 UNK         0.5000 
     61 O           1.5854  -13.1561  -47.6186 O.2       2 UNK        -0.5000 
     62 CA          2.8237  -11.2378  -48.3643 C.3       2 UNK         0.1400 
     63 CB          3.7045  -11.0731  -47.1162 C.3       2 UNK        -0.1800 
     64 N           3.5954  -11.9118  -49.4093 N.am      2 UNK        -0.5000 
     65 C           3.1886  -12.0985  -50.6722 C.2       1 UNK         0.5000 
     66 O           2.0857  -11.7413  -51.0951 O.2       1 UNK        -0.5000 
     67 C          -0.2578  -22.4600  -47.0677 C.2       11 UNK         0.5000 
     68 O          -0.0021  -22.8795  -48.1959 O.2       11 UNK        -0.5000 
     69 N          -1.4931  -22.4225  -46.5498 N.am      12 UNK        -0.5000 
     70 CA         -2.6894  -22.9294  -47.2236 C.3       12 UNK         0.1400 
     71 CB         -3.9247  -22.5941  -46.3750 C.3       12 UNK        -0.1800 
     72 C          -2.6000  -24.4418  -47.5102 C.2       12 UNK         0.5000 
     73 O          -2.8978  -24.8714  -48.6255 O.2       12 UNK        -0.5000 
     74 N          -2.1334  -25.2135  -46.5169 N.am      13 UNK        -0.5000 
     75 CA         -1.8765  -26.6494  -46.6265 C.3       13 UNK         0.1400 
     76 CB         -1.5665  -27.2279  -45.2379 C.3       13 UNK        -0.1800 
     77 C          -0.7513  -26.9865  -47.6222 C.2       13 UNK         0.5000 
     78 O          -0.9048  -27.9268  -48.4015 O.2       13 UNK        -0.5000 
     79 N           0.3396  -26.2058  -47.6030 N.am      14 UNK        -0.5000 
     80 CA          1.4700  -26.3324  -48.5273 C.3       14 UNK         0.1400 
     81 CB          2.6292  -25.4393  -48.0596 C.3       14 UNK        -0.1800 
     82 C           1.0894  -26.0089  -49.9835 C.2       14 UNK         0.5000 
     83 O           1.5278  -26.7103  -50.8961 O.2       14 UNK        -0.5000 
     84 N           0.2588  -24.9742  -50.1714 N.am      15 UNK        -0.5000 
     85 CA         -0.3256  -24.5994  -51.4597 C.3       15 UNK         0.1400 
     86 CB         -0.9489  -23.2007  -51.3371 C.3       15 UNK        -0.1800 
     87 C          -1.3812  -25.6038  -51.9622 C.2       15 UNK         0.5000 
     88 O          -1.6060  -25.6844  -53.1703 O.2       15 UNK        -0.5000 
     89 N          -2.0107  -26.3284  -51.0246 N.am      16 UNK        -0.5000 
     90 CA         -3.1506  -27.2323  -51.1984 C.3       16 UNK         0.1400 
     91 CB         -2.7606  -28.4650  -52.0399 C.3       16 UNK        -0.1800 
     92 C          -4.3806  -26.4761  -51.7393 C.2       16 UNK         0.5000 
     93 O          -5.0146  -26.9137  -52.7020 O.2       16 UNK        -0.5000 
     94 N          -4.6652  -25.3253  -51.1211 N.am      17 UNK        -0.5000 
     95 CA         -5.6901  -24.3726  -51.5315 C.3       17 UNK         0.1400 
     96 CB         -5.0452  -23.3298  -52.4636 C.3       17 UNK        -0.1800 
     97 C          -6.3011  -23.7013  -50.2941 C.2       17 UNK         0.5000 
     98 O          -5.8151  -23.8951  -49.1777 O.2       17 UNK        -0.5000 
     99 N          -7.3495  -22.8988  -50.5145 N.am      18 UNK        -0.5000 
    100 CA        -7.9205  -22.0087  -49.5045 C.3       18 UNK         0.1400 
    101 CB        -9.2268  -21.4073  -50.0448 C.3       18 UNK        -0.1800 
    102 C         -6.9273  -20.8887  -49.1492 C.2       18 UNK         0.5000 
    103 O         -6.2454  -20.3810  -50.0424 O.2       18 UNK        -0.5000 
    104 N         -6.8904  -20.4957  -47.8707 N.am      19 UNK        -0.5000 
    105 CA        -5.9747  -19.4868  -47.3246 C.3       19 UNK         0.1400 
    106 CB        -6.1833  -19.4137  -45.8046 C.3       19 UNK        -0.1800 
    107 C         -6.1202  -18.0881  -47.9578 C.2       19 UNK         0.5000 
    108 O         -5.1403  -17.3488  -48.0380 O.2       19 UNK        -0.5000 
    109 N         -7.3356  -17.7608  -48.4153 N.am      20 UNK        -0.5000 
    110 CA        -7.6478  -16.5210  -49.1261 C.3       20 UNK         0.1400 
    111 CB        -9.1660  -16.2901  -49.0661 C.3       20 UNK        -0.1800 
    112 C         -7.1628  -16.5158  -50.5907 C.2       20 UNK         0.5000 
    113 O         -7.0264  -15.4368  -51.1688 O.2       20 UNK        -0.5000 
    114 N         -6.9352  -17.7023  -51.1701 N.am      21 UNK        -0.5000 
    115 CA        -6.5096  -17.8836  -52.5563 C.3       21 UNK         0.1400 
    116 CB        -7.2988  -19.0480  -53.1800 C.3       21 UNK        -0.1800 
    117 C         -4.9976  -18.1408  -52.6378 C.2       21 UNK         0.5000 
    118 O         -4.3022  -17.4437  -53.3780 O.2       21 UNK        -0.5000 
    119 N         -4.5222  -19.1292  -51.8685 N.am      22 UNK        -0.5000 
    120 CA        -3.1456  -19.6450  -51.8689 C.3       22 UNK         0.1400 
    121 C         -2.7033  -20.2460  -53.2427 C.2       22 UNK         0.5000 
    122 N         -1.4101  -20.4044  -53.4887 N.am      22 UNK        -0.7600 
    123 O         -3.5238  -20.6161  -54.0798 O.2       22 UNK        -0.5000 
    124 C124       -2.1436  -18.6185  -51.2631 C.3       23 UNK        -0.0398 
    125 S125       -0.8378  -19.4184  -50.2676 S.3       23 UNK        -0.2404 
    126 C126        0.7005  -18.9841  -51.1481 C.3       23 UNK        -0.0205 
    127 H127        3.5804  -11.5551  -55.3874 H         1 UNK         0.0600 
    128 H128        4.9955  -10.4997  -55.4081 H         1 UNK         0.0600 
    129 H129        3.4262   -9.8641  -54.9039 H         1 UNK         0.0600 
    130 H130        3.5231  -12.9144  -53.6262 H         1 UNK         0.3000 
    131 H131        5.1969  -12.5255  -51.3126 H         1 UNK         0.0600 
    132 H132        4.4958  -14.7813  -52.4703 H         1 UNK         0.0800 
    133 H133        3.0190  -14.6628  -51.5649 H         1 UNK         0.0800 
    134 H134        2.7934  -14.7815  -49.1735 H         1 UNK         0.0800 
    135 H135        3.9942  -15.2527  -48.0044 H         1 UNK         0.0800 
    136 H136        1.8312  -16.5267  -50.7598 H         1 UNK         0.1150 
    137 H137        1.9538  -20.5625  -49.3309 H         1 UNK         0.1150 
    138 H138        4.3775  -17.5582  -47.4679 H         1 UNK         0.1150 
    139 H139        3.5978  -21.2006  -47.6537 H         1 UNK         0.0800 
    140 H140        4.7655  -20.0398  -47.0777 H         1 UNK         0.0800 
    141 H141        0.8785  -20.0693  -47.1712 H         1 UNK         0.0800 
    142 H142        0.3929  -19.9878  -45.5203 H         1 UNK         0.0800 
    143 H143        1.7969  -22.4798  -46.5711 H         1 UNK         0.0600 
    144 H144        0.4414  -21.8584  -44.0980 H         1 UNK         0.3000 
    145 H145        0.3211  -25.2235  -42.9226 H         1 UNK         0.0600 
    146 H146        1.6199  -24.2126  -41.0671 H         1 UNK         0.0600 
    147 H147        2.6566  -24.4618  -42.4628 H         1 UNK         0.0600 
    148 H148        2.0708  -22.8457  -42.0871 H         1 UNK         0.0600 
    149 H149       -0.3826  -22.7175  -41.7343 H         1 UNK         0.3000 
    150 H150       -3.6973  -22.4983  -42.9960 H         1 UNK         0.0600 
    151 H151       -3.8727  -24.1393  -41.1165 H         1 UNK         0.0600 
    152 H152       -4.2608  -22.5110  -40.5863 H         1 UNK         0.0600 
    153 H153       -2.6941  -23.2185  -40.1895 H         1 UNK         0.0600 
    154 H154       -2.4005  -20.8945  -41.0905 H         1 UNK         0.3000 
    155 H155       -1.9034  -18.7702  -41.6176 H         1 UNK         0.0600 
    156 H156        0.6702  -19.3420  -43.1870 H         1 UNK         0.0600 
    157 H157        0.3702  -19.7559  -41.5051 H         1 UNK         0.0600 
    158 H158        0.4715  -18.0689  -41.9860 H         1 UNK         0.0600 
    159 H159       -0.9533  -17.6545  -44.0989 H         1 UNK         0.3000 
    160 H160       -3.9488  -17.0037  -45.6299 H         1 UNK         0.0600 
    161 H161       -3.0074  -14.7743  -43.7551 H         1 UNK         0.0600 
    162 H162       -4.6348  -15.4460  -43.7809 H         1 UNK         0.0600 
    163 H163       -4.0269  -14.5852  -45.1823 H         1 UNK         0.0600 
    164 H164       -1.6557  -15.3444  -45.6994 H         1 UNK         0.3000 
    165 H165        0.4649  -17.4490  -47.6053 H         1 UNK         0.0600 
    166 H166        0.3343  -15.3681  -49.0743 H         1 UNK         0.0600 
    167 H167       -0.9910  -16.4922  -49.3337 H         1 UNK         0.0600 
    168 H168       -1.2537  -15.0336  -48.3931 H         1 UNK         0.0600 
    169 H169        0.8571  -14.7909  -46.8294 H         1 UNK         0.3000 
    170 H170        2.0317  -15.3232  -43.4754 H         1 UNK         0.0600 
    171 H171        3.8918  -15.7585  -45.1323 H         1 UNK         0.0600 
    172 H172        3.3652  -14.3482  -46.0449 H         1 UNK         0.0600 
    173 H173        3.9580  -14.1610  -44.4010 H         1 UNK         0.0600 
    174 H174        1.4682  -13.0881  -45.3066 H         1 UNK         0.3000 
    175 H175       -1.5561  -12.1834  -43.7154 H         1 UNK         0.0600 
    176 H176        1.1570  -10.7707  -43.4823 H         1 UNK         0.0600 
    177 H177       -0.4265  -10.0102  -43.3185 H         1 UNK         0.0600 
    178 H178        0.1076  -11.1916  -42.1340 H         1 UNK         0.0600 
    179 H179        0.0322  -10.8719  -45.6899 H         1 UNK         0.3000 
    180 H180       -1.0955  -12.6778  -48.5275 H         1 UNK         0.0600 
    181 H181       -1.8891   -9.8799  -47.5622 H         1 UNK         0.0600 
    182 H182       -3.0121  -11.1539  -48.0227 H         1 UNK         0.0600 
    183 H183       -1.9380  -10.4616  -49.2270 H         1 UNK         0.0600 
    184 H184        0.4258  -10.3371  -48.4325 H         1 UNK         0.3000 
    185 H185        2.5667  -10.2423  -48.7318 H         1 UNK         0.0600 
    186 H186        3.1604  -10.5708  -46.3155 H         1 UNK         0.0600 
    187 H187        4.0417  -12.0356  -46.7300 H         1 UNK         0.0600 
    188 H188        4.5877  -10.4721  -47.3335 H         1 UNK         0.0600 
    189 H189        4.4993  -12.2666  -49.1334 H         1 UNK         0.3000 
    190 H190       -1.6233  -22.0060  -45.6316 H         1 UNK         0.3000 
    191 H191       -2.7783  -22.4085  -48.1793 H         1 UNK         0.0600 
    192 H192       -3.9368  -23.1512  -45.4384 H         1 UNK         0.0600 
    193 H193       -4.8436  -22.8326  -46.9106 H         1 UNK         0.0600 
    194 H194       -3.9534  -21.5332  -46.1288 H         1 UNK         0.0600 
    195 H195       -1.9579  -24.7908  -45.6099 H         1 UNK         0.3000 
    196 H196       -2.7914  -27.1209  -46.9913 H         1 UNK         0.0600 
    197 H197       -1.3857  -28.3020  -45.2929 H         1 UNK         0.0600 
    198 H198       -2.3998  -27.0731  -44.5523 H         1 UNK         0.0600 
    199 H199       -0.6819  -26.7673  -44.7975 H         1 UNK         0.0600 
    200 H200        0.4207  -25.4922  -46.8851 H         1 UNK         0.3000 
    201 H201        1.8100  -27.3697  -48.4970 H         1 UNK         0.0600 
    202 H202        2.9643  -25.7189  -47.0607 H         1 UNK         0.0600 
    203 H203        2.3433  -24.3877  -48.0357 H         1 UNK         0.0600 
    204 H204        3.4870  -25.5310  -48.7268 H         1 UNK         0.0600 
    205 H205        0.0048  -24.3964  -49.3739 H         1 UNK         0.3000 
    206 H206        0.4736  -24.5563  -52.2025 H         1 UNK         0.0600 
    207 H207       -0.1967  -22.4527  -51.0863 H         1 UNK         0.0600 
    208 H208       -1.4117  -22.9004  -52.2770 H         1 UNK         0.0600 
    209 H209       -1.7217  -23.1687  -50.5682 H         1 UNK         0.0600 
    210 H210       -1.7751  -26.1261  -50.0611 H         1 UNK         0.3000 
    211 H211       -3.4168  -27.5838  -50.2005 H         1 UNK         0.0600 
    212 H212       -2.5270  -28.1992  -53.0711 H         1 UNK         0.0600 
    213 H213       -3.5746  -29.1902  -52.0664 H         1 UNK         0.0600 
    214 H214       -1.8907  -28.9681  -51.6175 H         1 UNK         0.0600 
    215 H215       -4.1484  -25.0676  -50.2836 H         1 UNK         0.3000 
    216 H216       -6.4940  -24.8899  -52.0591 H         1 UNK         0.0600 
    217 H217       -5.7740  -22.6005  -52.8188 H         1 UNK         0.0600 
    218 H218       -4.6077  -23.8021  -53.3434 H         1 UNK         0.0600 
    219 H219       -4.2526  -22.7790  -51.9557 H         1 UNK         0.0600 
    220 H220       -7.6794  -22.7726  -51.4597 H         1 UNK         0.3000 
    221 H221       -8.1421  -22.5930  -48.6088 H         1 UNK         0.0600 
    222 H222       -9.0568  -20.8122  -50.9433 H         1 UNK         0.0600 
    223 H223       -9.9477  -22.1871  -50.2908 H         1 UNK         0.0600 
    224 H224       -9.6941  -20.7567  -49.3045 H         1 UNK         0.0600 
    225 H225       -7.4959  -20.9523  -47.2039 H         1 UNK         0.3000 
    226 H226       -4.9540  -19.8222  -47.5200 H         1 UNK         0.0600 
    227 H227       -5.9937  -20.3761  -45.3294 H         1 UNK         0.0600 
    228 H228       -5.5058  -18.6934  -45.3501 H         1 UNK         0.0600 
    229 H229       -7.1996  -19.1090  -45.5520 H         1 UNK         0.0600 
    230 H230       -8.0882  -18.4231  -48.2996 H         1 UNK         0.3000 
    231 H231       -7.1566  -15.6911  -48.6134 H         1 UNK         0.0600 
    232 H232       -9.5151  -16.2259  -48.0353 H         1 UNK         0.0600 
    233 H233       -9.7152  -17.0937  -49.5586 H         1 UNK         0.0600 
    234 H234       -9.4393  -15.3560  -49.5587 H         1 UNK         0.0600 
    235 H235       -6.9871  -18.5406  -50.6047 H         1 UNK         0.3000 
    236 H236       -6.7292  -16.9874  -53.1407 H         1 UNK         0.0600 
    237 H237       -6.9979  -19.2109  -54.2157 H         1 UNK         0.0600 
    238 H238       -7.1413  -19.9841  -52.6431 H         1 UNK         0.0600 
    239 H239       -8.3690  -18.8406  -53.1807 H         1 UNK         0.0600 
    240 H240       -5.1746  -19.6386  -51.2755 H         1 UNK         0.3000 
    241 H241       -3.1982  -20.5035  -51.1982 H         1 UNK         0.0600 
    242 H242       -0.7194  -20.1508  -52.8024 H         1 UNK         0.3800 
    243 H243       -1.1246  -20.8023  -54.3696 H         1 UNK         0.3800 
    244 H244       -2.6684  -17.9522  -50.5764 H         1 UNK         0.0800 
    245 H245       -1.7271  -17.9665  -52.0319 H         1 UNK         0.0800 
    246 H246        0.5255  -18.1732  -51.8559 H         1 UNK         0.0800 
    247 H247        1.0408  -19.8409  -51.7307 H         1 UNK         0.0800 
@<TRIPOS>BOND
     1    1    2 1    
     2    1  127 1    
     3    1  128 1    
     4    1  129 1    
     5    2    3 2    
     6    2    4 am   BACKBONE|DICT|INTERRES
     7    4    5 1    
     8    4  130 1    
     9    5    6 1    
    10    5   65 1    
    11    5  131 1    
    12    6    7 1    
    13    6  132 1    
    14    6  133 1    
    15    7    8 1    
    16    8    9 1    
    17    8  134 1    
    18    8  135 1    
    19    9   10 ar   
    20    9   14 ar   
    21   10   11 ar   
    22   10  136 1    
    23   11   12 ar   
    24   11  126 1    
    25   12   13 ar   
    26   12  137 1    
    27   13   14 ar   
    28   13   15 1    
    29   14  138 1    
    30   15   16 1    
    31   15  139 1    
    32   15  140 1    
    33   16   17 1    
    34   17   18 1    
    35   17  141 1    
    36   17  142 1    
    37   18   19 1    
    38   18   67 1    
    39   18  143 1    
    40   19   20 am   BACKBONE|DICT|INTERRES
    41   19  144 1    
    42   20   21 2    
    43   20   22 1    
    44   22   23 1    
    45   22   24 1    
    46   22  145 1    
    47   23  146 1    
    48   23  147 1    
    49   23  148 1    
    50   24   25 am   BACKBONE|DICT|INTERRES
    51   24  149 1    
    52   25   26 2    
    53   25   27 1    
    54   27   28 1    
    55   27   29 1    
    56   27  150 1    
    57   28  151 1    
    58   28  152 1    
    59   28  153 1    
    60   29   30 am   BACKBONE|DICT|INTERRES
    61   29  154 1    
    62   30   31 2    
    63   30   32 1    
    64   32   33 1    
    65   32   34 1    
    66   32  155 1    
    67   33  156 1    
    68   33  157 1    
    69   33  158 1    
    70   34   35 am   BACKBONE|DICT|INTERRES
    71   34  159 1    
    72   35   36 2    
    73   35   37 1    
    74   37   38 1    
    75   37   39 1    
    76   37  160 1    
    77   38  161 1    
    78   38  162 1    
    79   38  163 1    
    80   39   40 am   BACKBONE|DICT|INTERRES
    81   39  164 1    
    82   40   41 2    
    83   40   42 1    
    84   42   43 1    
    85   42   44 1    
    86   42  165 1    
    87   43  166 1    
    88   43  167 1    
    89   43  168 1    
    90   44   45 am   BACKBONE|DICT|INTERRES
    91   44  169 1    
    92   45   46 2    
    93   45   47 1    
    94   47   48 1    
    95   47   49 1    
    96   47  170 1    
    97   48  171 1    
    98   48  172 1    
    99   48  173 1    
   100   49   50 am   BACKBONE|DICT|INTERRES
   101   49  174 1    
   102   50   51 2    
   103   50   52 1    
   104   52   53 1    
   105   52   54 1    
   106   52  175 1    
   107   53  176 1    
   108   53  177 1    
   109   53  178 1    
   110   54   55 am   BACKBONE|DICT|INTERRES
   111   54  179 1    
   112   55   56 2    
   113   55   57 1    
   114   57   58 1    
   115   57   59 1    
   116   57  180 1    
   117   58  181 1    
   118   58  182 1    
   119   58  183 1    
   120   59   60 am   BACKBONE|DICT|INTERRES
   121   59  184 1    
   122   60   61 2    
   123   60   62 1    
   124   62   63 1    
   125   62   64 1    
   126   62  185 1    
   127   63  186 1    
   128   63  187 1    
   129   63  188 1    
   130   64   65 am   BACKBONE|DICT|INTERRES
   131   64  189 1    
   132   65   66 2    
   133   67   68 2    
   134   67   69 am   BACKBONE|DICT|INTERRES
   135   69   70 1    
   136   69  190 1    
   137   70   71 1    
   138   70   72 1    
   139   70  191 1    
   140   71  192 1    
   141   71  193 1    
   142   71  194 1    
   143   72   73 2    
   144   72   74 am   BACKBONE|DICT|INTERRES
   145   74   75 1    
   146   74  195 1    
   147   75   76 1    
   148   75   77 1    
   149   75  196 1    
   150   76  197 1    
   151   76  198 1    
   152   76  199 1    
   153   77   78 2    
   154   77   79 am   BACKBONE|DICT|INTERRES
   155   79   80 1    
   156   79  200 1    
   157   80   81 1    
   158   80   82 1    
   159   80  201 1    
   160   81  202 1    
   161   81  203 1    
   162   81  204 1    
   163   82   83 2    
   164   82   84 am   BACKBONE|DICT|INTERRES
   165   84   85 1    
   166   84  205 1    
   167   85   86 1    
   168   85   87 1    
   169   85  206 1    
   170   86  207 1    
   171   86  208 1    
   172   86  209 1    
   173   87   88 2    
   174   87   89 am   BACKBONE|DICT|INTERRES
   175   89   90 1    
   176   89  210 1    
   177   90   91 1    
   178   90   92 1    
   179   90  211 1    
   180   91  212 1    
   181   91  213 1    
   182   91  214 1    
   183   92   93 2    
   184   92   94 am   BACKBONE|DICT|INTERRES
   185   94   95 1    
   186   94  215 1    
   187   95   96 1    
   188   95   97 1    
   189   95  216 1    
   190   96  217 1    
   191   96  218 1    
   192   96  219 1    
   193   97   98 2    
   194   97   99 am   BACKBONE|DICT|INTERRES
   195   99  100 1    
   196   99  220 1    
   197  100  101 1    
   198  100  102 1    
   199  100  221 1    
   200  101  222 1    
   201  101  223 1    
   202  101  224 1    
   203  102  103 2    
   204  102  104 am   BACKBONE|DICT|INTERRES
   205  104  105 1    
   206  104  225 1    
   207  105  106 1    
   208  105  107 1    
   209  105  226 1    
   210  106  227 1    
   211  106  228 1    
   212  106  229 1    
   213  107  108 2    
   214  107  109 am   BACKBONE|DICT|INTERRES
   215  109  110 1    
   216  109  230 1    
   217  110  111 1    
   218  110  112 1    
   219  110  231 1    
   220  111  232 1    
   221  111  233 1    
   222  111  234 1    
   223  112  113 2    
   224  112  114 am   BACKBONE|DICT|INTERRES
   225  114  115 1    
   226  114  235 1    
   227  115  116 1    
   228  115  117 1    
   229  115  236 1    
   230  116  237 1    
   231  116  238 1    
   232  116  239 1    
   233  117  118 2    
   234  117  119 am   BACKBONE|DICT|INTERRES
   235  119  120 1    
   236  119  240 1    
   237  120  121 1    
   238  120  124 1    
   239  120  241 1    
   240  121  122 am   BACKBONE|DICT|INTERRES
   241  121  123 2    
   242  122  242 1    
   243  122  243 1    
   244  124  125 1    
   245  124  244 1    
   246  124  245 1    
   247  125  126 1    
   248  126  246 1    
   249  126  247 1    
@<TRIPOS>SUBSTRUCTURE
     1 UNK         1 GROUP             0       ****    0 ROOT    
