@<TRIPOS>MOLECULE
3R540
247   249    1
SMALL
USER_CHARGES


@<TRIPOS>ATOM
      1 CA          3.0757  -20.9391  -44.6795 C.3       0 UNK        -0.1800 
      2 C           3.1495  -19.4304  -44.8596 C.2       0 UNK         0.5000 
      3 O           2.5069  -18.6939  -44.1112 O.2       0 UNK        -0.5000 
      4 N           3.9480  -18.9633  -45.8292 N.am      1 UNK        -0.5000 
      5 CA          4.1037  -17.5619  -46.2603 C.3       1 UNK         0.1400 
      6 C6          4.6902  -17.4972  -47.6961 C.3       23 UNK        -0.0398 
      7 S7          4.1525  -16.0464  -48.6723 S.3       23 UNK        -0.2404 
      8 C8          4.7371  -16.4724  -50.3522 C.3       23 UNK        -0.0205 
      9 C9          3.7775  -17.4184  -51.0613 C.ar      23 UNK        -0.0193 
     10 C10         2.8078  -16.9317  -51.9442 C.ar      23 UNK        -0.1150 
     11 C11         1.8882  -17.8049  -52.5372 C.ar      23 UNK        -0.0193 
     12 C12         1.9043  -19.1602  -52.1939 C.ar      23 UNK        -0.1150 
     13 C13         2.8597  -19.6515  -51.3016 C.ar      23 UNK        -0.0193 
     14 C14         3.8370  -18.7881  -50.8045 C.ar      23 UNK        -0.1150 
     15 C15         2.7936  -21.0920  -50.8113 C.3       23 UNK        -0.0205 
     16 S16         2.8978  -21.2028  -48.9879 S.3       23 UNK        -0.2404 
     17 C17         1.5363  -20.1044  -48.4441 C.3       23 UNK        -0.0398 
     18 CA          0.5259  -20.8522  -47.5490 C.3       11 UNK         0.1400 
     19 N          -0.1934  -19.9655  -46.6317 N.am      11 UNK        -0.5000 
     20 C          -0.9067  -20.4080  -45.5854 C.2       10 UNK         0.5000 
     21 O          -0.9910  -21.5962  -45.2733 O.2       10 UNK        -0.5000 
     22 CA         -1.7058  -19.3639  -44.7868 C.3       10 UNK         0.1400 
     23 CB         -0.7992  -18.5781  -43.8311 C.3       10 UNK        -0.1800 
     24 N          -2.4349  -18.4350  -45.6473 N.am      10 UNK        -0.5000 
     25 C          -3.4067  -18.7890  -46.4989 C.2       9 UNK         0.5000 
     26 O          -3.8189  -19.9406  -46.6301 O.2       9 UNK        -0.5000 
     27 CA         -3.9898  -17.6732  -47.3796 C.3       9 UNK         0.1400 
     28 CB         -5.0555  -16.8759  -46.6129 C.3       9 UNK        -0.1800 
     29 N          -2.9532  -16.7671  -47.8725 N.am      9 UNK        -0.5000 
     30 C          -2.0193  -17.1040  -48.7735 C.2       8 UNK         0.5000 
     31 O          -1.9377  -18.2174  -49.2909 O.2       8 UNK        -0.5000 
     32 CA         -0.9835  -16.0186  -49.1189 C.3       8 UNK         0.1400 
     33 CB         -1.6027  -14.9521  -50.0359 C.3       8 UNK        -0.1800 
     34 N          -0.4461  -15.3567  -47.9310 N.am      8 UNK        -0.5000 
     35 C           0.2462  -15.9617  -46.9568 C.2       7 UNK         0.5000 
     36 O           0.5489  -17.1549  -46.9665 O.2       7 UNK        -0.5000 
     37 CA          0.6068  -15.0885  -45.7399 C.3       7 UNK         0.1400 
     38 CB          1.8868  -14.2798  -45.9980 C.3       7 UNK        -0.1800 
     39 N          -0.4505  -14.1539  -45.3492 N.am      7 UNK        -0.5000 
     40 C          -1.7062  -14.4700  -45.0097 C.2       6 UNK         0.5000 
     41 O          -2.1593  -15.6138  -45.0627 O.2       6 UNK        -0.5000 
     42 CA         -2.5735  -13.3058  -44.4879 C.3       6 UNK         0.1400 
     43 CB         -4.0218  -13.7307  -44.1885 C.3       6 UNK        -0.1800 
     44 N          -1.9816  -12.7546  -43.2700 N.am      6 UNK        -0.5000 
     45 C          -0.9673  -11.8793  -43.2233 C.2       5 UNK         0.5000 
     46 O          -0.5013  -11.3217  -44.2177 O.2       5 UNK        -0.5000 
     47 CA         -0.3175  -11.6587  -41.8432 C.3       5 UNK         0.1400 
     48 CB         -1.0352  -10.5377  -41.0767 C.3       5 UNK        -0.1800 
     49 N          -0.3123  -12.8806  -41.0311 N.am      5 UNK        -0.5000 
     50 C           0.3691  -13.9924  -41.3416 C.2       4 UNK         0.5000 
     51 O           1.1470  -14.0812  -42.2963 O.2       4 UNK        -0.5000 
     52 CA          0.0961  -15.2200  -40.4634 C.3       4 UNK         0.1400 
     53 CB         -1.3025  -15.7978  -40.7491 C.3       4 UNK        -0.1800 
     54 N           1.1095  -16.2267  -40.7496 N.am      4 UNK        -0.5000 
     55 C           1.5545  -17.1557  -39.8989 C.2       3 UNK         0.5000 
     56 O           1.1014  -17.3131  -38.7641 O.2       3 UNK        -0.5000 
     57 CA          2.7014  -18.0637  -40.3859 C.3       3 UNK         0.1400 
     58 CB          2.1721  -19.4646  -40.7310 C.3       3 UNK        -0.1800 
     59 N           3.4298  -17.5396  -41.5455 N.am      3 UNK        -0.5000 
     60 C           4.2974  -16.5136  -41.5015 C.2       2 UNK         0.5000 
     61 O           4.5115  -15.8617  -40.4787 O.2       2 UNK        -0.5000 
     62 CA          5.0781  -16.1586  -42.7839 C.3       2 UNK         0.1400 
     63 CB          6.5633  -16.5403  -42.6059 C.3       2 UNK        -0.1800 
     64 N           4.5111  -16.8139  -43.9627 N.am      2 UNK        -0.5000 
     65 C           4.8740  -16.6803  -45.2408 C.2       1 UNK         0.5000 
     66 O           5.7675  -15.9205  -45.6169 O.2       1 UNK        -0.5000 
     67 C          -0.4328  -21.7257  -48.3797 C.2       11 UNK         0.5000 
     68 O          -0.1674  -22.9162  -48.5354 O.2       11 UNK        -0.5000 
     69 N          -1.5472  -21.1491  -48.8547 N.am      12 UNK        -0.5000 
     70 CA         -2.5921  -21.8753  -49.5790 C.3       12 UNK         0.1400 
     71 CB         -3.6499  -20.8932  -50.0994 C.3       12 UNK        -0.1800 
     72 C          -3.2457  -22.9861  -48.7359 C.2       12 UNK         0.5000 
     73 O          -3.4436  -24.0945  -49.2342 O.2       12 UNK        -0.5000 
     74 N          -3.5241  -22.6865  -47.4597 N.am      13 UNK        -0.5000 
     75 CA         -4.0315  -23.6407  -46.4749 C.3       13 UNK         0.1400 
     76 CB         -4.4425  -22.8924  -45.1979 C.3       13 UNK        -0.1800 
     77 C          -3.0226  -24.7592  -46.1543 C.2       13 UNK         0.5000 
     78 O          -3.4232  -25.9190  -46.0536 O.2       13 UNK        -0.5000 
     79 N          -1.7372  -24.3998  -46.0230 N.am      14 UNK        -0.5000 
     80 CA         -0.6353  -25.3337  -45.7828 C.3       14 UNK         0.1400 
     81 CB          0.6332  -24.5506  -45.4087 C.3       14 UNK        -0.1800 
     82 C          -0.3711  -26.2669  -46.9799 C.2       14 UNK         0.5000 
     83 O          -0.1740  -27.4667  -46.7829 O.2       14 UNK        -0.5000 
     84 N          -0.3844  -25.7045  -48.1958 N.am      15 UNK        -0.5000 
     85 CA         -0.2069  -26.4297  -49.4549 C.3       15 UNK         0.1400 
     86 CB          0.1029  -25.4215  -50.5734 C.3       15 UNK        -0.1800 
     87 C          -1.4285  -27.2831  -49.8428 C.2       15 UNK         0.5000 
     88 O          -1.2657  -28.2730  -50.5572 O.2       15 UNK        -0.5000 
     89 N          -2.6194  -26.8678  -49.3861 N.am      16 UNK        -0.5000 
     90 CA         -3.9438  -27.3920  -49.7329 C.3       16 UNK         0.1400 
     91 CB         -4.1191  -28.8430  -49.2386 C.3       16 UNK        -0.1800 
     92 C          -4.2586  -27.2069  -51.2331 C.2       16 UNK         0.5000 
     93 O          -4.8209  -28.0998  -51.8703 O.2       16 UNK        -0.5000 
     94 N          -3.8731  -26.0444  -51.7702 N.am      17 UNK        -0.5000 
     95 CA         -4.0136  -25.6507  -53.1672 C.3       17 UNK         0.1400 
     96 CB         -2.8772  -26.2684  -54.0012 C.3       17 UNK        -0.1800 
     97 C          -3.9800  -24.1192  -53.2415 C.2       17 UNK         0.5000 
     98 O          -3.3947  -23.4871  -52.3616 O.2       17 UNK        -0.5000 
     99 N          -4.6022  -23.5535  -54.2864 N.am      18 UNK        -0.5000 
    100 CA        -4.7774  -22.1113  -54.5187 C.3       18 UNK         0.1400 
    101 CB        -3.4240  -21.4213  -54.7881 C.3       18 UNK        -0.1800 
    102 C         -5.5853  -21.4333  -53.3904 C.2       18 UNK         0.5000 
    103 O         -5.2322  -20.3441  -52.9310 O.2       18 UNK        -0.5000 
    104 N         -6.6646  -22.1123  -52.9694 N.am      19 UNK        -0.5000 
    105 CA        -7.5288  -21.8044  -51.8215 C.3       19 UNK         0.1400 
    106 CB        -8.5623  -22.9321  -51.6741 C.3       19 UNK        -0.1800 
    107 C         -8.2273  -20.4283  -51.8487 C.2       19 UNK         0.5000 
    108 O         -8.7506  -19.9969  -50.8212 O.2       19 UNK        -0.5000 
    109 N         -8.1862  -19.7426  -52.9980 N.am      20 UNK        -0.5000 
    110 CA        -8.5601  -18.3366  -53.1695 C.3       20 UNK         0.1400 
    111 CB        -8.7041  -18.0573  -54.6747 C.3       20 UNK        -0.1800 
    112 C         -7.5639  -17.3434  -52.5222 C.2       20 UNK         0.5000 
    113 O         -7.8178  -16.1394  -52.5667 O.2       20 UNK        -0.5000 
    114 N         -6.4656  -17.8612  -51.9481 N.am      21 UNK        -0.5000 
    115 CA        -5.3131  -17.1654  -51.3754 C.3       21 UNK         0.1400 
    116 CB        -5.7148  -16.1316  -50.3014 C.3       21 UNK        -0.1800 
    117 C         -4.4382  -16.5950  -52.5004 C.2       21 UNK         0.5000 
    118 O         -4.2833  -15.3779  -52.6180 O.2       21 UNK        -0.5000 
    119 N         -3.8986  -17.5151  -53.3109 N.am      22 UNK        -0.5000 
    120 CA        -3.0438  -17.2549  -54.4823 C.3       22 UNK         0.1400 
    121 C         -3.8330  -16.6763  -55.6982 C.2       22 UNK         0.5000 
    122 N         -3.1583  -16.2999  -56.7773 N.am      22 UNK        -0.7600 
    123 O         -5.0602  -16.6033  -55.7047 O.2       22 UNK        -0.5000 
    124 C124       -1.7574  -16.4421  -54.1413 C.3       23 UNK        -0.0398 
    125 S125       -0.7841  -17.1800  -52.7827 S.3       23 UNK        -0.2404 
    126 C126        0.8641  -17.2896  -53.5346 C.3       23 UNK        -0.0205 
    127 H127        2.0362  -21.2553  -44.5917 H         1 UNK         0.0600 
    128 H128        3.5985  -21.2334  -43.7697 H         1 UNK         0.0600 
    129 H129        3.5210  -21.4692  -45.5217 H         1 UNK         0.0600 
    130 H130        4.4899  -19.6313  -46.3585 H         1 UNK         0.3000 
    131 H131        3.0922  -17.1597  -46.3038 H         1 UNK         0.0600 
    132 H132        4.3474  -18.3769  -48.2305 H         1 UNK         0.0800 
    133 H133        5.7798  -17.5586  -47.6933 H         1 UNK         0.0800 
    134 H134        4.8422  -15.5522  -50.9286 H         1 UNK         0.0800 
    135 H135        5.7339  -16.9127  -50.2985 H         1 UNK         0.0800 
    136 H136        2.7661  -15.8745  -52.1658 H         1 UNK         0.1150 
    137 H137        1.1558  -19.8234  -52.6048 H         1 UNK         0.1150 
    138 H138        4.6042  -19.1824  -50.1560 H         1 UNK         0.1150 
    139 H139        1.8686  -21.5710  -51.1369 H         1 UNK         0.0800 
    140 H140        3.6141  -21.6587  -51.2529 H         1 UNK         0.0800 
    141 H141        1.0360  -19.6335  -49.2923 H         1 UNK         0.0800 
    142 H142        1.9939  -19.2865  -47.8878 H         1 UNK         0.0800 
    143 H143        1.0973  -21.5321  -46.9137 H         1 UNK         0.0600 
    144 H144       -0.1349  -18.9662  -46.8103 H         1 UNK         0.3000 
    145 H145       -2.4407  -19.9032  -44.1857 H         1 UNK         0.0600 
    146 H146       -0.2363  -19.2524  -43.1860 H         1 UNK         0.0600 
    147 H147       -0.0805  -17.9633  -44.3719 H         1 UNK         0.0600 
    148 H148       -1.3841  -17.9218  -43.1883 H         1 UNK         0.0600 
    149 H149       -2.1936  -17.4504  -45.5687 H         1 UNK         0.3000 
    150 H150       -4.4703  -18.1391  -48.2419 H         1 UNK         0.0600 
    151 H151       -5.8889  -17.5195  -46.3291 H         1 UNK         0.0600 
    152 H152       -5.4614  -16.0655  -47.2179 H         1 UNK         0.0600 
    153 H153       -4.6544  -16.4421  -45.6970 H         1 UNK         0.0600 
    154 H154       -2.9013  -15.8594  -47.4347 H         1 UNK         0.3000 
    155 H155       -0.1576  -16.4993  -49.6483 H         1 UNK         0.0600 
    156 H156       -2.3605  -14.3619  -49.5194 H         1 UNK         0.0600 
    157 H157       -2.0854  -15.4067  -50.9000 H         1 UNK         0.0600 
    158 H158       -0.8422  -14.2684  -50.4131 H         1 UNK         0.0600 
    159 H159       -0.6492  -14.3737  -47.8279 H         1 UNK         0.3000 
    160 H160        0.7879  -15.7561  -44.8952 H         1 UNK         0.0600 
    161 H161        1.7403  -13.5326  -46.7787 H         1 UNK         0.0600 
    162 H162        2.7086  -14.9177  -46.3139 H         1 UNK         0.0600 
    163 H163        2.2112  -13.7623  -45.0946 H         1 UNK         0.0600 
    164 H164       -0.1707  -13.1873  -45.2307 H         1 UNK         0.3000 
    165 H165       -2.6017  -12.5360  -45.2617 H         1 UNK         0.0600 
    166 H166       -4.6093  -12.8914  -43.8162 H         1 UNK         0.0600 
    167 H167       -4.5146  -14.0933  -45.0909 H         1 UNK         0.0600 
    168 H168       -4.0658  -14.5269  -43.4442 H         1 UNK         0.0600 
    169 H169       -2.2725  -13.1831  -42.4042 H         1 UNK         0.3000 
    170 H170        0.7185  -11.3548  -42.0075 H         1 UNK         0.0600 
    171 H171       -1.0355   -9.6108  -41.6520 H         1 UNK         0.0600 
    172 H172       -2.0743  -10.7933  -40.8654 H         1 UNK         0.0600 
    173 H173       -0.5404  -10.3293  -40.1279 H         1 UNK         0.0600 
    174 H174       -0.9172  -12.8851  -40.2223 H         1 UNK         0.3000 
    175 H175        0.1669  -14.9163  -39.4168 H         1 UNK         0.0600 
    176 H176       -1.4355  -16.0162  -41.8092 H         1 UNK         0.0600 
    177 H177       -1.4744  -16.7192  -40.1927 H         1 UNK         0.0600 
    178 H178       -2.0852  -15.0963  -40.4594 H         1 UNK         0.0600 
    179 H179        1.5699  -16.1111  -41.6434 H         1 UNK         0.3000 
    180 H180        3.4063  -18.1648  -39.5580 H         1 UNK         0.0600 
    181 H181        1.4706  -19.4337  -41.5644 H         1 UNK         0.0600 
    182 H182        1.6531  -19.9091  -39.8809 H         1 UNK         0.0600 
    183 H183        2.9849  -20.1382  -41.0032 H         1 UNK         0.0600 
    184 H184        3.2569  -18.0317  -42.4129 H         1 UNK         0.3000 
    185 H185        4.9997  -15.0790  -42.9245 H         1 UNK         0.0600 
    186 H186        7.1793  -16.1709  -43.4250 H         1 UNK         0.0600 
    187 H187        6.9734  -16.1136  -41.6896 H         1 UNK         0.0600 
    188 H188        6.6926  -17.6217  -42.5502 H         1 UNK         0.0600 
    189 H189        3.7296  -17.4427  -43.8017 H         1 UNK         0.3000 
    190 H190       -1.6909  -20.1521  -48.7296 H         1 UNK         0.3000 
    191 H191       -2.1161  -22.3509  -50.4376 H         1 UNK         0.0600 
    192 H192       -4.1015  -20.3152  -49.2946 H         1 UNK         0.0600 
    193 H193       -4.4517  -21.4300  -50.6050 H         1 UNK         0.0600 
    194 H194       -3.2210  -20.1956  -50.8191 H         1 UNK         0.0600 
    195 H195       -3.3867  -21.7313  -47.1394 H         1 UNK         0.3000 
    196 H196       -4.9239  -24.1094  -46.8948 H         1 UNK         0.0600 
    197 H197       -4.8383  -23.5813  -44.4507 H         1 UNK         0.0600 
    198 H198       -5.2192  -22.1564  -45.4063 H         1 UNK         0.0600 
    199 H199       -3.5988  -22.3679  -44.7486 H         1 UNK         0.0600 
    200 H200       -1.4974  -23.4148  -46.0694 H         1 UNK         0.3000 
    201 H201       -0.9079  -25.9582  -44.9295 H         1 UNK         0.0600 
    202 H202        0.4710  -23.9357  -44.5231 H         1 UNK         0.0600 
    203 H203        0.9558  -23.8937  -46.2164 H         1 UNK         0.0600 
    204 H204        1.4589  -25.2280  -45.1878 H         1 UNK         0.0600 
    205 H205       -0.4856  -24.6933  -48.2679 H         1 UNK         0.3000 
    206 H206        0.6490  -27.0994  -49.3495 H         1 UNK         0.0600 
    207 H207        1.0001  -24.8445  -50.3479 H         1 UNK         0.0600 
    208 H208        0.2716  -25.9290  -51.5239 H         1 UNK         0.0600 
    209 H209       -0.7190  -24.7183  -50.7182 H         1 UNK         0.0600 
    210 H210       -2.6359  -25.9969  -48.8677 H         1 UNK         0.3000 
    211 H211       -4.6624  -26.7734  -49.1933 H         1 UNK         0.0600 
    212 H212       -3.4795  -29.5396  -49.7810 H         1 UNK         0.0600 
    213 H213       -5.1489  -29.1767  -49.3703 H         1 UNK         0.0600 
    214 H214       -3.8840  -28.9272  -48.1775 H         1 UNK         0.0600 
    215 H215       -3.4804  -25.3242  -51.1707 H         1 UNK         0.3000 
    216 H216       -4.9786  -25.9964  -53.5436 H         1 UNK         0.0600 
    217 H217       -2.9504  -25.9699  -55.0476 H         1 UNK         0.0600 
    218 H218       -2.9103  -27.3576  -53.9717 H         1 UNK         0.0600 
    219 H219       -1.8984  -25.9546  -53.6359 H         1 UNK         0.0600 
    220 H220       -5.0384  -24.1587  -54.9684 H         1 UNK         0.3000 
    221 H221       -5.3782  -22.0158  -55.4242 H         1 UNK         0.0600 
    222 H222       -2.8592  -21.9454  -55.5589 H         1 UNK         0.0600 
    223 H223       -2.8042  -21.3714  -53.8921 H         1 UNK         0.0600 
    224 H224       -3.5778  -20.4009  -55.1377 H         1 UNK         0.0600 
    225 H225       -6.8651  -22.9854  -53.4343 H         1 UNK         0.3000 
    226 H226       -6.8940  -21.8115  -50.9335 H         1 UNK         0.0600 
    227 H227       -8.0762  -23.8982  -51.5366 H         1 UNK         0.0600 
    228 H228       -9.2030  -22.7686  -50.8064 H         1 UNK         0.0600 
    229 H229       -9.2080  -23.0009  -52.5504 H         1 UNK         0.0600 
    230 H230       -7.7288  -20.1804  -53.7837 H         1 UNK         0.3000 
    231 H231       -9.5309  -18.1783  -52.6957 H         1 UNK         0.0600 
    232 H232       -9.0434  -17.0363  -54.8542 H         1 UNK         0.0600 
    233 H233       -9.4336  -18.7248  -55.1337 H         1 UNK         0.0600 
    234 H234       -7.7548  -18.1827  -55.1977 H         1 UNK         0.0600 
    235 H235       -6.3293  -18.8594  -52.0625 H         1 UNK         0.3000 
    236 H236       -4.7161  -17.9288  -50.8733 H         1 UNK         0.0600 
    237 H237       -6.3448  -16.5842  -49.5361 H         1 UNK         0.0600 
    238 H238       -4.8305  -15.7318  -49.8053 H         1 UNK         0.0600 
    239 H239       -6.2531  -15.2823  -50.7213 H         1 UNK         0.0600 
    240 H240       -4.1465  -18.4863  -53.1610 H         1 UNK         0.3000 
    241 H241       -2.7179  -18.2412  -54.8105 H         1 UNK         0.0600 
    242 H242       -3.6729  -15.9423  -57.5675 H         1 UNK         0.3800 
    243 H243       -2.1554  -16.3746  -56.8390 H         1 UNK         0.3800 
    244 H244       -2.0059  -15.4163  -53.8673 H         1 UNK         0.0800 
    245 H245       -1.1157  -16.3644  -55.0190 H         1 UNK         0.0800 
    246 H246        1.1583  -16.3076  -53.9084 H         1 UNK         0.0800 
    247 H247        0.8274  -17.9555  -54.3980 H         1 UNK         0.0800 
@<TRIPOS>BOND
     1    1    2 1    
     2    1  127 1    
     3    1  128 1    
     4    1  129 1    
     5    2    3 2    
     6    2    4 am   BACKBONE|DICT|INTERRES
     7    4    5 1    
     8    4  130 1    
     9    5    6 1    
    10    5   65 1    
    11    5  131 1    
    12    6    7 1    
    13    6  132 1    
    14    6  133 1    
    15    7    8 1    
    16    8    9 1    
    17    8  134 1    
    18    8  135 1    
    19    9   10 ar   
    20    9   14 ar   
    21   10   11 ar   
    22   10  136 1    
    23   11   12 ar   
    24   11  126 1    
    25   12   13 ar   
    26   12  137 1    
    27   13   14 ar   
    28   13   15 1    
    29   14  138 1    
    30   15   16 1    
    31   15  139 1    
    32   15  140 1    
    33   16   17 1    
    34   17   18 1    
    35   17  141 1    
    36   17  142 1    
    37   18   19 1    
    38   18   67 1    
    39   18  143 1    
    40   19   20 am   BACKBONE|DICT|INTERRES
    41   19  144 1    
    42   20   21 2    
    43   20   22 1    
    44   22   23 1    
    45   22   24 1    
    46   22  145 1    
    47   23  146 1    
    48   23  147 1    
    49   23  148 1    
    50   24   25 am   BACKBONE|DICT|INTERRES
    51   24  149 1    
    52   25   26 2    
    53   25   27 1    
    54   27   28 1    
    55   27   29 1    
    56   27  150 1    
    57   28  151 1    
    58   28  152 1    
    59   28  153 1    
    60   29   30 am   BACKBONE|DICT|INTERRES
    61   29  154 1    
    62   30   31 2    
    63   30   32 1    
    64   32   33 1    
    65   32   34 1    
    66   32  155 1    
    67   33  156 1    
    68   33  157 1    
    69   33  158 1    
    70   34   35 am   BACKBONE|DICT|INTERRES
    71   34  159 1    
    72   35   36 2    
    73   35   37 1    
    74   37   38 1    
    75   37   39 1    
    76   37  160 1    
    77   38  161 1    
    78   38  162 1    
    79   38  163 1    
    80   39   40 am   BACKBONE|DICT|INTERRES
    81   39  164 1    
    82   40   41 2    
    83   40   42 1    
    84   42   43 1    
    85   42   44 1    
    86   42  165 1    
    87   43  166 1    
    88   43  167 1    
    89   43  168 1    
    90   44   45 am   BACKBONE|DICT|INTERRES
    91   44  169 1    
    92   45   46 2    
    93   45   47 1    
    94   47   48 1    
    95   47   49 1    
    96   47  170 1    
    97   48  171 1    
    98   48  172 1    
    99   48  173 1    
   100   49   50 am   BACKBONE|DICT|INTERRES
   101   49  174 1    
   102   50   51 2    
   103   50   52 1    
   104   52   53 1    
   105   52   54 1    
   106   52  175 1    
   107   53  176 1    
   108   53  177 1    
   109   53  178 1    
   110   54   55 am   BACKBONE|DICT|INTERRES
   111   54  179 1    
   112   55   56 2    
   113   55   57 1    
   114   57   58 1    
   115   57   59 1    
   116   57  180 1    
   117   58  181 1    
   118   58  182 1    
   119   58  183 1    
   120   59   60 am   BACKBONE|DICT|INTERRES
   121   59  184 1    
   122   60   61 2    
   123   60   62 1    
   124   62   63 1    
   125   62   64 1    
   126   62  185 1    
   127   63  186 1    
   128   63  187 1    
   129   63  188 1    
   130   64   65 am   BACKBONE|DICT|INTERRES
   131   64  189 1    
   132   65   66 2    
   133   67   68 2    
   134   67   69 am   BACKBONE|DICT|INTERRES
   135   69   70 1    
   136   69  190 1    
   137   70   71 1    
   138   70   72 1    
   139   70  191 1    
   140   71  192 1    
   141   71  193 1    
   142   71  194 1    
   143   72   73 2    
   144   72   74 am   BACKBONE|DICT|INTERRES
   145   74   75 1    
   146   74  195 1    
   147   75   76 1    
   148   75   77 1    
   149   75  196 1    
   150   76  197 1    
   151   76  198 1    
   152   76  199 1    
   153   77   78 2    
   154   77   79 am   BACKBONE|DICT|INTERRES
   155   79   80 1    
   156   79  200 1    
   157   80   81 1    
   158   80   82 1    
   159   80  201 1    
   160   81  202 1    
   161   81  203 1    
   162   81  204 1    
   163   82   83 2    
   164   82   84 am   BACKBONE|DICT|INTERRES
   165   84   85 1    
   166   84  205 1    
   167   85   86 1    
   168   85   87 1    
   169   85  206 1    
   170   86  207 1    
   171   86  208 1    
   172   86  209 1    
   173   87   88 2    
   174   87   89 am   BACKBONE|DICT|INTERRES
   175   89   90 1    
   176   89  210 1    
   177   90   91 1    
   178   90   92 1    
   179   90  211 1    
   180   91  212 1    
   181   91  213 1    
   182   91  214 1    
   183   92   93 2    
   184   92   94 am   BACKBONE|DICT|INTERRES
   185   94   95 1    
   186   94  215 1    
   187   95   96 1    
   188   95   97 1    
   189   95  216 1    
   190   96  217 1    
   191   96  218 1    
   192   96  219 1    
   193   97   98 2    
   194   97   99 am   BACKBONE|DICT|INTERRES
   195   99  100 1    
   196   99  220 1    
   197  100  101 1    
   198  100  102 1    
   199  100  221 1    
   200  101  222 1    
   201  101  223 1    
   202  101  224 1    
   203  102  103 2    
   204  102  104 am   BACKBONE|DICT|INTERRES
   205  104  105 1    
   206  104  225 1    
   207  105  106 1    
   208  105  107 1    
   209  105  226 1    
   210  106  227 1    
   211  106  228 1    
   212  106  229 1    
   213  107  108 2    
   214  107  109 am   BACKBONE|DICT|INTERRES
   215  109  110 1    
   216  109  230 1    
   217  110  111 1    
   218  110  112 1    
   219  110  231 1    
   220  111  232 1    
   221  111  233 1    
   222  111  234 1    
   223  112  113 2    
   224  112  114 am   BACKBONE|DICT|INTERRES
   225  114  115 1    
   226  114  235 1    
   227  115  116 1    
   228  115  117 1    
   229  115  236 1    
   230  116  237 1    
   231  116  238 1    
   232  116  239 1    
   233  117  118 2    
   234  117  119 am   BACKBONE|DICT|INTERRES
   235  119  120 1    
   236  119  240 1    
   237  120  121 1    
   238  120  124 1    
   239  120  241 1    
   240  121  122 am   BACKBONE|DICT|INTERRES
   241  121  123 2    
   242  122  242 1    
   243  122  243 1    
   244  124  125 1    
   245  124  244 1    
   246  124  245 1    
   247  125  126 1    
   248  126  246 1    
   249  126  247 1    
@<TRIPOS>SUBSTRUCTURE
     1 UNK         1 GROUP             0       ****    0 ROOT    
