@<TRIPOS>MOLECULE
3R540
247   249    1
SMALL
USER_CHARGES


@<TRIPOS>ATOM
      1 CA          4.2989  -14.6693  -50.9569 C.3       0 UNK        -0.1800 
      2 C           3.5114  -14.2343  -49.7291 C.2       0 UNK         0.5000 
      3 O           3.0083  -13.1121  -49.7023 O.2       0 UNK        -0.5000 
      4 N           3.4128  -15.1281  -48.7331 N.am      1 UNK        -0.5000 
      5 CA          2.7009  -14.9988  -47.4521 C.3       1 UNK         0.1400 
      6 C6          1.2109  -15.4449  -47.5010 C.3       23 UNK        -0.0398 
      7 S7          0.0626  -14.4497  -48.5194 S.3       23 UNK        -0.2404 
      8 C8          0.0026  -15.3546  -50.1026 C.3       23 UNK        -0.0205 
      9 C9         -0.5123  -16.7806  -49.9682 C.ar      23 UNK        -0.0193 
     10 C10        -1.8491  -17.0247  -49.6348 C.ar      23 UNK        -0.1150 
     11 C11        -2.3290  -18.3347  -49.5323 C.ar      23 UNK        -0.0193 
     12 C12        -1.4546  -19.3992  -49.7653 C.ar      23 UNK        -0.1150 
     13 C13        -0.1283  -19.1705  -50.1345 C.ar      23 UNK        -0.0193 
     14 C14         0.3430  -17.8584  -50.2194 C.ar      23 UNK        -0.1150 
     15 C15         0.7836  -20.3474  -50.4469 C.3       23 UNK        -0.0205 
     16 S16         2.0873  -20.5873  -49.2001 S.3       23 UNK        -0.2404 
     17 C17         1.1594  -20.5541  -47.6303 C.3       23 UNK        -0.0398 
     18 CA          0.8056  -21.9492  -47.0728 C.3       11 UNK         0.1400 
     19 N           0.6208  -21.8796  -45.6238 N.am      11 UNK        -0.5000 
     20 C           0.5283  -22.9280  -44.7996 C.2       10 UNK         0.5000 
     21 O           0.5999  -24.0967  -45.1738 O.2       10 UNK        -0.5000 
     22 CA          0.2681  -22.6093  -43.3180 C.3       10 UNK         0.1400 
     23 CB          1.5701  -22.2194  -42.6023 C.3       10 UNK        -0.1800 
     24 N          -0.7161  -21.5378  -43.1617 N.am      10 UNK        -0.5000 
     25 C          -2.0255  -21.6790  -43.4093 C.2       9 UNK         0.5000 
     26 O          -2.5435  -22.7421  -43.7534 O.2       9 UNK        -0.5000 
     27 CA         -2.8928  -20.4111  -43.2844 C.3       9 UNK         0.1400 
     28 CB         -3.2622  -20.1516  -41.8165 C.3       9 UNK        -0.1800 
     29 N          -2.2519  -19.2187  -43.8464 N.am      9 UNK        -0.5000 
     30 C          -1.9550  -19.0722  -45.1463 C.2       8 UNK         0.5000 
     31 O          -2.2116  -19.9161  -45.9994 O.2       8 UNK        -0.5000 
     32 CA         -1.1998  -17.8032  -45.5715 C.3       8 UNK         0.1400 
     33 CB         -2.1823  -16.6581  -45.8495 C.3       8 UNK        -0.1800 
     34 N          -0.1869  -17.3741  -44.6067 N.am      8 UNK        -0.5000 
     35 C           0.8637  -18.1117  -44.2189 C.2       7 UNK         0.5000 
     36 O           1.0565  -19.2708  -44.5816 O.2       7 UNK        -0.5000 
     37 CA          1.8605  -17.4531  -43.2575 C.3       7 UNK         0.1400 
     38 CB          2.8084  -16.5172  -44.0207 C.3       7 UNK        -0.1800 
     39 N           1.1648  -16.7170  -42.2052 N.am      7 UNK        -0.5000 
     40 C           0.7820  -17.2642  -41.0435 C.2       6 UNK         0.5000 
     41 O           1.0515  -18.4177  -40.7071 O.2       6 UNK        -0.5000 
     42 CA         -0.0634  -16.3843  -40.1036 C.3       6 UNK         0.1400 
     43 CB          0.8431  -15.5803  -39.1597 C.3       6 UNK        -0.1800 
     44 N          -0.9546  -15.4647  -40.8120 N.am      6 UNK        -0.5000 
     45 C          -1.9765  -15.8401  -41.5947 C.2       5 UNK         0.5000 
     46 O          -2.2794  -17.0128  -41.8159 O.2       5 UNK        -0.5000 
     47 CA         -2.7668  -14.7127  -42.2859 C.3       5 UNK         0.1400 
     48 CB         -3.8964  -14.2154  -41.3719 C.3       5 UNK        -0.1800 
     49 N          -1.9528  -13.5687  -42.7089 N.am      5 UNK        -0.5000 
     50 C          -0.8516  -13.6199  -43.4719 C.2       4 UNK         0.5000 
     51 O          -0.3454  -14.6705  -43.8726 O.2       4 UNK        -0.5000 
     52 CA         -0.1787  -12.2858  -43.8435 C.3       4 UNK         0.1400 
     53 CB         -0.8174  -11.0334  -43.2003 C.3       4 UNK        -0.1800 
     54 N           1.2585  -12.3442  -43.5773 N.am      4 UNK        -0.5000 
     55 C           1.8634  -12.5018  -42.3899 C.2       3 UNK         0.5000 
     56 O           1.2526  -12.5697  -41.3219 O.2       3 UNK        -0.5000 
     57 CA          3.4032  -12.6314  -42.3832 C.3       3 UNK         0.1400 
     58 CB          3.8571  -13.8051  -41.4979 C.3       3 UNK        -0.1800 
     59 N           3.9738  -12.7864  -43.7273 N.am      3 UNK        -0.5000 
     60 C           4.3053  -11.7686  -44.5348 C.2       2 UNK         0.5000 
     61 O           4.2164  -10.5848  -44.2073 O.2       2 UNK        -0.5000 
     62 CA          4.7936  -12.1188  -45.9564 C.3       2 UNK         0.1400 
     63 CB          6.3290  -12.1585  -45.9984 C.3       2 UNK        -0.1800 
     64 N           4.2721  -13.3728  -46.5138 N.am      2 UNK        -0.5000 
     65 C           2.9776  -13.6723  -46.7028 C.2       1 UNK         0.5000 
     66 O           2.0538  -12.9566  -46.3161 O.2       1 UNK        -0.5000 
     67 C          -0.4093  -22.5902  -47.7862 C.2       11 UNK         0.5000 
     68 O          -0.2278  -23.3453  -48.7446 O.2       11 UNK        -0.5000 
     69 N          -1.6247  -22.3268  -47.2837 N.am      12 UNK        -0.5000 
     70 CA         -2.8694  -22.9593  -47.7209 C.3       12 UNK         0.1400 
     71 CB         -4.0783  -22.2443  -47.1011 C.3       12 UNK        -0.1800 
     72 C          -2.9143  -24.4648  -47.4106 C.2       12 UNK         0.5000 
     73 O          -3.3894  -25.2414  -48.2380 O.2       12 UNK        -0.5000 
     74 N          -2.3950  -24.8588  -46.2403 N.am      13 UNK        -0.5000 
     75 CA         -2.2385  -26.2623  -45.8580 C.3       13 UNK         0.1400 
     76 CB         -1.9425  -26.3585  -44.3534 C.3       13 UNK        -0.1800 
     77 C          -1.1499  -26.9720  -46.6871 C.2       13 UNK         0.5000 
     78 O          -1.3138  -28.1449  -47.0253 O.2       13 UNK        -0.5000 
     79 N          -0.0679  -26.2472  -47.0035 N.am      14 UNK        -0.5000 
     80 CA          1.0631  -26.7338  -47.7888 C.3       14 UNK         0.1400 
     81 CB          2.2491  -25.7682  -47.6422 C.3       14 UNK        -0.1800 
     82 C           0.7281  -26.9559  -49.2744 C.2       14 UNK         0.5000 
     83 O           1.1043  -27.9969  -49.8162 O.2       14 UNK        -0.5000 
     84 N           0.0538  -25.9875  -49.9137 N.am      15 UNK        -0.5000 
     85 CA         -0.2230  -26.0256  -51.3527 C.3       15 UNK         0.1400 
     86 CB          1.0230  -25.5789  -52.1412 C.3       15 UNK        -0.1800 
     87 C          -1.4429  -25.1970  -51.7822 C.2       15 UNK         0.5000 
     88 O          -2.1875  -25.6534  -52.6499 O.2       15 UNK        -0.5000 
     89 N          -1.6031  -23.9866  -51.2226 N.am      16 UNK        -0.5000 
     90 CA         -2.6215  -22.9828  -51.5868 C.3       16 UNK         0.1400 
     91 CB         -4.0475  -23.5106  -51.3200 C.3       16 UNK        -0.1800 
     92 C          -2.4945  -22.4289  -53.0253 C.2       16 UNK         0.5000 
     93 O          -3.4551  -21.8629  -53.5460 O.2       16 UNK        -0.5000 
     94 N          -1.3204  -22.6001  -53.6477 N.am      17 UNK        -0.5000 
     95 CA         -1.0753  -22.3569  -55.0728 C.3       17 UNK         0.1400 
     96 CB          0.2662  -23.0049  -55.4504 C.3       17 UNK        -0.1800 
     97 C          -1.0956  -20.8759  -55.5021 C.2       17 UNK         0.5000 
     98 O          -1.2140  -20.5978  -56.6960 O.2       17 UNK        -0.5000 
     99 N          -0.9621  -19.9542  -54.5404 N.am      18 UNK        -0.5000 
    100 CA        -0.9238  -18.5082  -54.7724 C.3       18 UNK         0.1400 
    101 CB        -0.3019  -17.8348  -53.5423 C.3       18 UNK        -0.1800 
    102 C         -2.3015  -17.8818  -55.0689 C.2       18 UNK         0.5000 
    103 O         -2.3517  -16.7352  -55.5164 O.2       18 UNK        -0.5000 
    104 N         -3.3856  -18.6148  -54.7967 N.am      19 UNK        -0.5000 
    105 CA        -4.7658  -18.1630  -54.9368 C.3       19 UNK         0.1400 
    106 CB        -5.2589  -17.6683  -53.5636 C.3       19 UNK        -0.1800 
    107 C         -5.6365  -19.3073  -55.4779 C.2       19 UNK         0.5000 
    108 O         -5.1372  -20.4052  -55.7347 O.2       19 UNK        -0.5000 
    109 N         -6.9423  -19.0481  -55.6173 N.am      20 UNK        -0.5000 
    110 CA        -7.9630  -20.0267  -56.0016 C.3       20 UNK         0.1400 
    111 CB        -9.1761  -19.2747  -56.5780 C.3       20 UNK        -0.1800 
    112 C         -8.3351  -20.9398  -54.8128 C.2       20 UNK         0.5000 
    113 O         -9.4768  -20.9244  -54.3513 O.2       20 UNK        -0.5000 
    114 N         -7.3355  -21.6813  -54.3154 N.am      21 UNK        -0.5000 
    115 CA        -7.3573  -22.5723  -53.1488 C.3       21 UNK         0.1400 
    116 CB        -8.3718  -23.7194  -53.3371 C.3       21 UNK        -0.1800 
    117 C         -7.5238  -21.8436  -51.7952 C.2       21 UNK         0.5000 
    118 O         -7.8312  -22.4930  -50.7941 O.2       21 UNK        -0.5000 
    119 N         -7.2769  -20.5258  -51.7801 N.am      22 UNK        -0.5000 
    120 CA        -7.3436  -19.6255  -50.6136 C.3       22 UNK         0.1400 
    121 C         -8.7773  -19.4809  -50.0087 C.2       22 UNK         0.5000 
    122 N         -8.9249  -18.8427  -48.8514 N.am      22 UNK        -0.7600 
    123 O         -9.7789  -19.8899  -50.5988 O.2       22 UNK        -0.5000 
    124 C124       -6.2506  -19.9470  -49.5500 C.3       23 UNK        -0.0398 
    125 S125       -4.5630  -19.8481  -50.2388 S.3       23 UNK        -0.2404 
    126 C126       -3.7828  -18.6001  -49.1581 C.3       23 UNK        -0.0205 
    127 H127        5.1453  -14.0012  -51.1163 H         1 UNK         0.0600 
    128 H128        3.6627  -14.6329  -51.8415 H         1 UNK         0.0600 
    129 H129        4.6819  -15.6854  -50.8566 H         1 UNK         0.0600 
    130 H130        3.8791  -16.0156  -48.8586 H         1 UNK         0.3000 
    131 H131        3.1904  -15.7452  -46.8273 H         1 UNK         0.0600 
    132 H132        0.8075  -15.4460  -46.4877 H         1 UNK         0.0800 
    133 H133        1.1595  -16.4853  -47.8205 H         1 UNK         0.0800 
    134 H134       -0.6487  -14.8106  -50.7878 H         1 UNK         0.0800 
    135 H135        0.9910  -15.3456  -50.5611 H         1 UNK         0.0800 
    136 H136       -2.5117  -16.1906  -49.4517 H         1 UNK         0.1150 
    137 H137       -1.8148  -20.4110  -49.6632 H         1 UNK         0.1150 
    138 H138        1.3725  -17.6800  -50.4960 H         1 UNK         0.1150 
    139 H139        0.2080  -21.2690  -50.5390 H         1 UNK         0.0800 
    140 H140        1.2529  -20.1873  -51.4184 H         1 UNK         0.0800 
    141 H141        0.2792  -19.9156  -47.6806 H         1 UNK         0.0800 
    142 H142        1.8290  -20.0488  -46.9339 H         1 UNK         0.0800 
    143 H143        1.6616  -22.6046  -47.2417 H         1 UNK         0.0600 
    144 H144        0.5980  -20.9465  -45.2184 H         1 UNK         0.3000 
    145 H145       -0.1233  -23.5124  -42.8445 H         1 UNK         0.0600 
    146 H146        1.3987  -22.0472  -41.5396 H         1 UNK         0.0600 
    147 H147        2.3137  -23.0128  -42.6877 H         1 UNK         0.0600 
    148 H148        2.0083  -21.3126  -43.0207 H         1 UNK         0.0600 
    149 H149       -0.3610  -20.6212  -42.9298 H         1 UNK         0.3000 
    150 H150       -3.8159  -20.5878  -43.8405 H         1 UNK         0.0600 
    151 H151       -3.7409  -21.0251  -41.3719 H         1 UNK         0.0600 
    152 H152       -3.9602  -19.3188  -41.7287 H         1 UNK         0.0600 
    153 H153       -2.3830  -19.9145  -41.2159 H         1 UNK         0.0600 
    154 H154       -2.0412  -18.4644  -43.2000 H         1 UNK         0.3000 
    155 H155       -0.6808  -18.0267  -46.5055 H         1 UNK         0.0600 
    156 H156       -2.7666  -16.4113  -44.9654 H         1 UNK         0.0600 
    157 H157       -2.8836  -16.9313  -46.6385 H         1 UNK         0.0600 
    158 H158       -1.6644  -15.7565  -46.1757 H         1 UNK         0.0600 
    159 H159       -0.2677  -16.4174  -44.2674 H         1 UNK         0.3000 
    160 H160        2.4674  -18.2481  -42.8184 H         1 UNK         0.0600 
    161 H161        2.3000  -15.6155  -44.3630 H         1 UNK         0.0600 
    162 H162        3.2285  -17.0221  -44.8909 H         1 UNK         0.0600 
    163 H163        3.6509  -16.2205  -43.3984 H         1 UNK         0.0600 
    164 H164        0.8324  -15.7896  -42.4379 H         1 UNK         0.3000 
    165 H165       -0.6831  -17.0497  -39.4989 H         1 UNK         0.0600 
    166 H166        0.2566  -15.0160  -38.4345 H         1 UNK         0.0600 
    167 H167        1.5063  -16.2397  -38.5983 H         1 UNK         0.0600 
    168 H168        1.4684  -14.8744  -39.7073 H         1 UNK         0.0600 
    169 H169       -0.7563  -14.4781  -40.7197 H         1 UNK         0.3000 
    170 H170       -3.2251  -15.1331  -43.1806 H         1 UNK         0.0600 
    171 H171       -4.5347  -15.0412  -41.0546 H         1 UNK         0.0600 
    172 H172       -3.5058  -13.7378  -40.4724 H         1 UNK         0.0600 
    173 H173       -4.5328  -13.4949  -41.8861 H         1 UNK         0.0600 
    174 H174       -2.2761  -12.6603  -42.4100 H         1 UNK         0.3000 
    175 H175       -0.2834  -12.1898  -44.9250 H         1 UNK         0.0600 
    176 H176       -0.8008  -11.0707  -42.1106 H         1 UNK         0.0600 
    177 H177       -0.2885  -10.1304  -43.5052 H         1 UNK         0.0600 
    178 H178       -1.8548  -10.9141  -43.5150 H         1 UNK         0.0600 
    179 H179        1.8303  -12.3825  -44.4147 H         1 UNK         0.3000 
    180 H180        3.7962  -11.7163  -41.9357 H         1 UNK         0.0600 
    181 H181        3.3398  -14.7289  -41.7505 H         1 UNK         0.0600 
    182 H182        3.6455  -13.5993  -40.4479 H         1 UNK         0.0600 
    183 H183        4.9300  -13.9796  -41.5812 H         1 UNK         0.0600 
    184 H184        4.0741  -13.7281  -44.0753 H         1 UNK         0.3000 
    185 H185        4.4584  -11.3141  -46.6143 H         1 UNK         0.0600 
    186 H186        6.7559  -11.2293  -45.6183 H         1 UNK         0.0600 
    187 H187        6.7264  -12.9743  -45.3929 H         1 UNK         0.0600 
    188 H188        6.6936  -12.2868  -47.0179 H         1 UNK         0.0600 
    189 H189        4.9636  -14.0160  -46.8714 H         1 UNK         0.3000 
    190 H190       -1.7174  -21.6141  -46.5639 H         1 UNK         0.3000 
    191 H191       -2.9332  -22.8372  -48.7988 H         1 UNK         0.0600 
    192 H192       -4.1169  -21.2003  -47.4074 H         1 UNK         0.0600 
    193 H193       -5.0126  -22.7074  -47.4209 H         1 UNK         0.0600 
    194 H194       -4.0504  -22.2731  -46.0118 H         1 UNK         0.0600 
    195 H195       -2.0466  -24.1617  -45.5949 H         1 UNK         0.3000 
    196 H196       -3.1851  -26.7737  -46.0454 H         1 UNK         0.0600 
    197 H197       -1.8810  -27.4000  -44.0358 H         1 UNK         0.0600 
    198 H198       -2.7292  -25.8842  -43.7661 H         1 UNK         0.0600 
    199 H199       -0.9983  -25.8816  -44.0921 H         1 UNK         0.0600 
    200 H200        0.0205  -25.3179  -46.6051 H         1 UNK         0.3000 
    201 H201        1.3660  -27.6958  -47.3697 H         1 UNK         0.0600 
    202 H202        2.5218  -25.6306  -46.5957 H         1 UNK         0.0600 
    203 H203        2.0263  -24.7887  -48.0638 H         1 UNK         0.0600 
    204 H204        3.1289  -26.1524  -48.1598 H         1 UNK         0.0600 
    205 H205       -0.2163  -25.1513  -49.4039 H         1 UNK         0.3000 
    206 H206       -0.4494  -27.0565  -51.6336 H         1 UNK         0.0600 
    207 H207        1.8631  -26.2522  -51.9720 H         1 UNK         0.0600 
    208 H208        0.8287  -25.5727  -53.2144 H         1 UNK         0.0600 
    209 H209        1.3383  -24.5748  -51.8564 H         1 UNK         0.0600 
    210 H210       -0.9562  -23.7036  -50.4922 H         1 UNK         0.3000 
    211 H211       -2.4532  -22.1322  -50.9301 H         1 UNK         0.0600 
    212 H212       -4.3711  -24.2114  -52.0900 H         1 UNK         0.0600 
    213 H213       -4.7612  -22.6885  -51.3040 H         1 UNK         0.0600 
    214 H214       -4.1280  -24.0200  -50.3636 H         1 UNK         0.0600 
    215 H215       -0.5812  -23.0608  -53.1399 H         1 UNK         0.3000 
    216 H216       -1.8649  -22.8602  -55.6348 H         1 UNK         0.0600 
    217 H217        1.0950  -22.5661  -54.8936 H         1 UNK         0.0600 
    218 H218        0.2566  -24.0767  -55.2520 H         1 UNK         0.0600 
    219 H219        0.4798  -22.8765  -56.5124 H         1 UNK         0.0600 
    220 H220       -0.8848  -20.2666  -53.5847 H         1 UNK         0.3000 
    221 H221       -0.2795  -18.3114  -55.6319 H         1 UNK         0.0600 
    222 H222       -0.9466  -17.9504  -52.6711 H         1 UNK         0.0600 
    223 H223        0.6751  -18.2557  -53.3041 H         1 UNK         0.0600 
    224 H224       -0.1644  -16.7652  -53.7056 H         1 UNK         0.0600 
    225 H225       -3.2750  -19.5811  -54.5131 H         1 UNK         0.3000 
    226 H226       -4.8252  -17.3460  -55.6587 H         1 UNK         0.0600 
    227 H227       -5.2522  -18.4718  -52.8274 H         1 UNK         0.0600 
    228 H228       -4.6235  -16.8683  -53.1829 H         1 UNK         0.0600 
    229 H229       -6.2735  -17.2727  -53.6153 H         1 UNK         0.0600 
    230 H230       -7.2836  -18.1278  -55.3805 H         1 UNK         0.3000 
    231 H231       -7.5644  -20.6661  -56.7919 H         1 UNK         0.0600 
    232 H232       -8.8931  -18.6757  -57.4430 H         1 UNK         0.0600 
    233 H233       -9.6265  -18.6084  -55.8419 H         1 UNK         0.0600 
    234 H234       -9.9477  -19.9715  -56.9066 H         1 UNK         0.0600 
    235 H235       -6.4257  -21.5689  -54.7553 H         1 UNK         0.3000 
    236 H236       -6.3661  -23.0248  -53.1200 H         1 UNK         0.0600 
    237 H237       -8.2514  -24.4777  -52.5630 H         1 UNK         0.0600 
    238 H238       -9.4010  -23.3640  -53.2847 H         1 UNK         0.0600 
    239 H239       -8.2344  -24.2151  -54.2979 H         1 UNK         0.0600 
    240 H240       -7.0506  -20.0880  -52.6586 H         1 UNK         0.3000 
    241 H241       -7.1244  -18.6356  -51.0140 H         1 UNK         0.0600 
    242 H242       -9.8551  -18.7359  -48.4773 H         1 UNK         0.3800 
    243 H243       -8.1443  -18.4474  -48.3463 H         1 UNK         0.3800 
    244 H244       -6.3116  -19.2621  -48.7048 H         1 UNK         0.0800 
    245 H245       -6.3973  -20.9449  -49.1354 H         1 UNK         0.0800 
    246 H246       -4.3635  -17.6780  -49.2107 H         1 UNK         0.0800 
    247 H247       -3.8192  -18.9391  -48.1225 H         1 UNK         0.0800 
@<TRIPOS>BOND
     1    1    2 1    
     2    1  127 1    
     3    1  128 1    
     4    1  129 1    
     5    2    3 2    
     6    2    4 am   BACKBONE|DICT|INTERRES
     7    4    5 1    
     8    4  130 1    
     9    5    6 1    
    10    5   65 1    
    11    5  131 1    
    12    6    7 1    
    13    6  132 1    
    14    6  133 1    
    15    7    8 1    
    16    8    9 1    
    17    8  134 1    
    18    8  135 1    
    19    9   10 ar   
    20    9   14 ar   
    21   10   11 ar   
    22   10  136 1    
    23   11   12 ar   
    24   11  126 1    
    25   12   13 ar   
    26   12  137 1    
    27   13   14 ar   
    28   13   15 1    
    29   14  138 1    
    30   15   16 1    
    31   15  139 1    
    32   15  140 1    
    33   16   17 1    
    34   17   18 1    
    35   17  141 1    
    36   17  142 1    
    37   18   19 1    
    38   18   67 1    
    39   18  143 1    
    40   19   20 am   BACKBONE|DICT|INTERRES
    41   19  144 1    
    42   20   21 2    
    43   20   22 1    
    44   22   23 1    
    45   22   24 1    
    46   22  145 1    
    47   23  146 1    
    48   23  147 1    
    49   23  148 1    
    50   24   25 am   BACKBONE|DICT|INTERRES
    51   24  149 1    
    52   25   26 2    
    53   25   27 1    
    54   27   28 1    
    55   27   29 1    
    56   27  150 1    
    57   28  151 1    
    58   28  152 1    
    59   28  153 1    
    60   29   30 am   BACKBONE|DICT|INTERRES
    61   29  154 1    
    62   30   31 2    
    63   30   32 1    
    64   32   33 1    
    65   32   34 1    
    66   32  155 1    
    67   33  156 1    
    68   33  157 1    
    69   33  158 1    
    70   34   35 am   BACKBONE|DICT|INTERRES
    71   34  159 1    
    72   35   36 2    
    73   35   37 1    
    74   37   38 1    
    75   37   39 1    
    76   37  160 1    
    77   38  161 1    
    78   38  162 1    
    79   38  163 1    
    80   39   40 am   BACKBONE|DICT|INTERRES
    81   39  164 1    
    82   40   41 2    
    83   40   42 1    
    84   42   43 1    
    85   42   44 1    
    86   42  165 1    
    87   43  166 1    
    88   43  167 1    
    89   43  168 1    
    90   44   45 am   BACKBONE|DICT|INTERRES
    91   44  169 1    
    92   45   46 2    
    93   45   47 1    
    94   47   48 1    
    95   47   49 1    
    96   47  170 1    
    97   48  171 1    
    98   48  172 1    
    99   48  173 1    
   100   49   50 am   BACKBONE|DICT|INTERRES
   101   49  174 1    
   102   50   51 2    
   103   50   52 1    
   104   52   53 1    
   105   52   54 1    
   106   52  175 1    
   107   53  176 1    
   108   53  177 1    
   109   53  178 1    
   110   54   55 am   BACKBONE|DICT|INTERRES
   111   54  179 1    
   112   55   56 2    
   113   55   57 1    
   114   57   58 1    
   115   57   59 1    
   116   57  180 1    
   117   58  181 1    
   118   58  182 1    
   119   58  183 1    
   120   59   60 am   BACKBONE|DICT|INTERRES
   121   59  184 1    
   122   60   61 2    
   123   60   62 1    
   124   62   63 1    
   125   62   64 1    
   126   62  185 1    
   127   63  186 1    
   128   63  187 1    
   129   63  188 1    
   130   64   65 am   BACKBONE|DICT|INTERRES
   131   64  189 1    
   132   65   66 2    
   133   67   68 2    
   134   67   69 am   BACKBONE|DICT|INTERRES
   135   69   70 1    
   136   69  190 1    
   137   70   71 1    
   138   70   72 1    
   139   70  191 1    
   140   71  192 1    
   141   71  193 1    
   142   71  194 1    
   143   72   73 2    
   144   72   74 am   BACKBONE|DICT|INTERRES
   145   74   75 1    
   146   74  195 1    
   147   75   76 1    
   148   75   77 1    
   149   75  196 1    
   150   76  197 1    
   151   76  198 1    
   152   76  199 1    
   153   77   78 2    
   154   77   79 am   BACKBONE|DICT|INTERRES
   155   79   80 1    
   156   79  200 1    
   157   80   81 1    
   158   80   82 1    
   159   80  201 1    
   160   81  202 1    
   161   81  203 1    
   162   81  204 1    
   163   82   83 2    
   164   82   84 am   BACKBONE|DICT|INTERRES
   165   84   85 1    
   166   84  205 1    
   167   85   86 1    
   168   85   87 1    
   169   85  206 1    
   170   86  207 1    
   171   86  208 1    
   172   86  209 1    
   173   87   88 2    
   174   87   89 am   BACKBONE|DICT|INTERRES
   175   89   90 1    
   176   89  210 1    
   177   90   91 1    
   178   90   92 1    
   179   90  211 1    
   180   91  212 1    
   181   91  213 1    
   182   91  214 1    
   183   92   93 2    
   184   92   94 am   BACKBONE|DICT|INTERRES
   185   94   95 1    
   186   94  215 1    
   187   95   96 1    
   188   95   97 1    
   189   95  216 1    
   190   96  217 1    
   191   96  218 1    
   192   96  219 1    
   193   97   98 2    
   194   97   99 am   BACKBONE|DICT|INTERRES
   195   99  100 1    
   196   99  220 1    
   197  100  101 1    
   198  100  102 1    
   199  100  221 1    
   200  101  222 1    
   201  101  223 1    
   202  101  224 1    
   203  102  103 2    
   204  102  104 am   BACKBONE|DICT|INTERRES
   205  104  105 1    
   206  104  225 1    
   207  105  106 1    
   208  105  107 1    
   209  105  226 1    
   210  106  227 1    
   211  106  228 1    
   212  106  229 1    
   213  107  108 2    
   214  107  109 am   BACKBONE|DICT|INTERRES
   215  109  110 1    
   216  109  230 1    
   217  110  111 1    
   218  110  112 1    
   219  110  231 1    
   220  111  232 1    
   221  111  233 1    
   222  111  234 1    
   223  112  113 2    
   224  112  114 am   BACKBONE|DICT|INTERRES
   225  114  115 1    
   226  114  235 1    
   227  115  116 1    
   228  115  117 1    
   229  115  236 1    
   230  116  237 1    
   231  116  238 1    
   232  116  239 1    
   233  117  118 2    
   234  117  119 am   BACKBONE|DICT|INTERRES
   235  119  120 1    
   236  119  240 1    
   237  120  121 1    
   238  120  124 1    
   239  120  241 1    
   240  121  122 am   BACKBONE|DICT|INTERRES
   241  121  123 2    
   242  122  242 1    
   243  122  243 1    
   244  124  125 1    
   245  124  244 1    
   246  124  245 1    
   247  125  126 1    
   248  126  246 1    
   249  126  247 1    
@<TRIPOS>SUBSTRUCTURE
     1 UNK         1 GROUP             0       ****    0 ROOT    
