@<TRIPOS>MOLECULE
3R540
247   249    1
SMALL
USER_CHARGES


@<TRIPOS>ATOM
      1 CA          1.3861  -15.3126  -48.4119 C.3       0 UNK        -0.1800 
      2 C          -0.1068  -15.4623  -48.6673 C.2       0 UNK         0.5000 
      3 O          -0.7204  -14.5527  -49.2237 O.2       0 UNK        -0.5000 
      4 N          -0.6836  -16.6085  -48.2770 N.am      1 UNK        -0.5000 
      5 CA         -2.1008  -16.9675  -48.4474 C.3       1 UNK         0.1400 
      6 C6         -2.5484  -17.1069  -49.9303 C.3       23 UNK        -0.0398 
      7 S7         -1.6997  -18.4850  -50.7717 S.3       23 UNK        -0.2404 
      8 C8         -0.4232  -17.6248  -51.7423 C.3       23 UNK        -0.0205 
      9 C9          0.8298  -18.4780  -51.7902 C.ar      23 UNK        -0.0193 
     10 C10         1.0411  -19.3844  -52.8312 C.ar      23 UNK        -0.1150 
     11 C11         2.1499  -20.2418  -52.8181 C.ar      23 UNK        -0.0193 
     12 C12         3.0322  -20.1932  -51.7323 C.ar      23 UNK        -0.1150 
     13 C13         2.8212  -19.2976  -50.6802 C.ar      23 UNK        -0.0193 
     14 C14         1.7411  -18.4162  -50.7371 C.ar      23 UNK        -0.1150 
     15 C15         3.7026  -19.3273  -49.4397 C.3       23 UNK        -0.0205 
     16 S16         3.2112  -20.6545  -48.2830 S.3       23 UNK        -0.2404 
     17 C17         1.4413  -20.2978  -48.0041 C.3       23 UNK        -0.0398 
     18 CA          0.7124  -21.4313  -47.2510 C.3       11 UNK         0.1400 
     19 N           1.0623  -21.4964  -45.8300 N.am      11 UNK        -0.5000 
     20 C           0.6923  -22.4913  -45.0105 C.2       10 UNK         0.5000 
     21 O           0.0950  -23.4991  -45.3878 O.2       10 UNK        -0.5000 
     22 CA          0.9678  -22.2972  -43.5089 C.3       10 UNK         0.1400 
     23 CB          2.4177  -22.6615  -43.1580 C.3       10 UNK        -0.1800 
     24 N           0.6653  -20.9346  -43.0657 N.am      10 UNK        -0.5000 
     25 C          -0.5620  -20.3938  -43.0852 C.2       9 UNK         0.5000 
     26 O          -1.5725  -21.0203  -43.4019 O.2       9 UNK        -0.5000 
     27 CA         -0.6804  -18.8990  -42.7386 C.3       9 UNK         0.1400 
     28 CB         -0.7490  -18.7012  -41.2172 C.3       9 UNK        -0.1800 
     29 N           0.4227  -18.1118  -43.2845 N.am      9 UNK        -0.5000 
     30 C           0.6471  -17.8937  -44.5880 C.2       8 UNK         0.5000 
     31 O          -0.0912  -18.2847  -45.4938 O.2       8 UNK        -0.5000 
     32 CA          1.9537  -17.1633  -44.9454 C.3       8 UNK         0.1400 
     33 CB          1.7952  -15.6393  -44.8510 C.3       8 UNK        -0.1800 
     34 N           3.0727  -17.5919  -44.1083 N.am      8 UNK        -0.5000 
     35 C           3.6224  -18.8128  -44.1569 C.2       7 UNK         0.5000 
     36 O           3.2508  -19.6965  -44.9277 O.2       7 UNK        -0.5000 
     37 CA          4.7454  -19.1024  -43.1449 C.3       7 UNK         0.1400 
     38 CB          6.0914  -18.5764  -43.6648 C.3       7 UNK        -0.1800 
     39 N           4.4713  -18.5230  -41.8284 N.am      7 UNK        -0.5000 
     40 C           3.4968  -18.9431  -41.0091 C.2       6 UNK         0.5000 
     41 O           2.7498  -19.8866  -41.2647 O.2       6 UNK        -0.5000 
     42 CA          3.2896  -18.1386  -39.7116 C.3       6 UNK         0.1400 
     43 CB          4.2637  -18.6076  -38.6207 C.3       6 UNK        -0.1800 
     44 N           3.4265  -16.6904  -39.9014 N.am      6 UNK        -0.5000 
     45 C           2.6411  -15.9597  -40.7022 C.2       5 UNK         0.5000 
     46 O           1.7237  -16.4360  -41.3765 O.2       5 UNK        -0.5000 
     47 CA          2.9521  -14.4610  -40.8044 C.3       5 UNK         0.1400 
     48 CB          4.2167  -14.2243  -41.6522 C.3       5 UNK        -0.1800 
     49 N           1.8040  -13.8168  -41.4285 N.am      5 UNK        -0.5000 
     50 C           1.5231  -12.5109  -41.4546 C.2       4 UNK         0.5000 
     51 O           2.2223  -11.6480  -40.9223 O.2       4 UNK        -0.5000 
     52 CA          0.2455  -12.0979  -42.2103 C.3       4 UNK         0.1400 
     53 CB          0.5934  -11.6431  -43.6365 C.3       4 UNK        -0.1800 
     54 N          -0.7370  -13.1794  -42.2966 N.am      4 UNK        -0.5000 
     55 C          -1.5758  -13.5505  -41.3225 C.2       3 UNK         0.5000 
     56 O          -1.6235  -12.9902  -40.2261 O.2       3 UNK        -0.5000 
     57 CA         -2.5220  -14.7359  -41.6357 C.3       3 UNK         0.1400 
     58 CB         -3.6588  -14.8764  -40.6076 C.3       3 UNK        -0.1800 
     59 N          -3.1080  -14.6797  -42.9814 N.am      3 UNK        -0.5000 
     60 C          -2.4646  -14.9890  -44.1121 C.2       2 UNK         0.5000 
     61 O          -1.2788  -15.3227  -44.1403 O.2       2 UNK        -0.5000 
     62 CA         -3.2410  -14.8531  -45.4271 C.3       2 UNK         0.1400 
     63 CB         -3.2957  -13.3809  -45.8750 C.3       2 UNK        -0.1800 
     64 N          -2.5513  -15.6578  -46.4274 N.am      2 UNK        -0.5000 
     65 C          -3.0376  -16.0702  -47.6026 C.2       1 UNK         0.5000 
     66 O          -4.1679  -15.7895  -48.0041 O.2       1 UNK        -0.5000 
     67 C          -0.8132  -21.3324  -47.4677 C.2       11 UNK         0.5000 
     68 O          -1.3293  -22.0110  -48.3530 O.2       11 UNK        -0.5000 
     69 N          -1.5154  -20.5343  -46.6482 N.am      12 UNK        -0.5000 
     70 CA         -2.9771  -20.4118  -46.6710 C.3       12 UNK         0.1400 
     71 CB         -3.4326  -19.3159  -45.6918 C.3       12 UNK        -0.1800 
     72 C          -3.6840  -21.7433  -46.3583 C.2       12 UNK         0.5000 
     73 O          -4.6263  -22.1115  -47.0599 O.2       12 UNK        -0.5000 
     74 N          -3.1876  -22.4564  -45.3385 N.am      13 UNK        -0.5000 
     75 CA         -3.6541  -23.7853  -44.9446 C.3       13 UNK         0.1400 
     76 CB         -3.0077  -24.1770  -43.6073 C.3       13 UNK        -0.1800 
     77 C          -3.3883  -24.8574  -46.0184 C.2       13 UNK         0.5000 
     78 O          -4.2371  -25.7246  -46.2258 O.2       13 UNK        -0.5000 
     79 N          -2.2312  -24.7713  -46.6899 N.am      14 UNK        -0.5000 
     80 CA         -1.8562  -25.6383  -47.8073 C.3       14 UNK         0.1400 
     81 CB         -0.3581  -25.4766  -48.1074 C.3       14 UNK        -0.1800 
     82 C          -2.7004  -25.3770  -49.0689 C.2       14 UNK         0.5000 
     83 O          -3.1012  -26.3331  -49.7339 O.2       14 UNK        -0.5000 
     84 N          -2.9605  -24.0962  -49.3694 N.am      15 UNK        -0.5000 
     85 CA         -3.8084  -23.6483  -50.4740 C.3       15 UNK         0.1400 
     86 CB         -3.6709  -22.1267  -50.6489 C.3       15 UNK        -0.1800 
     87 C          -5.2800  -24.0509  -50.2764 C.2       15 UNK         0.5000 
     88 O          -5.8810  -24.6126  -51.1932 O.2       15 UNK        -0.5000 
     89 N          -5.8148  -23.7863  -49.0749 N.am      16 UNK        -0.5000 
     90 CA         -7.1709  -24.0940  -48.6171 C.3       16 UNK         0.1400 
     91 CB         -7.3389  -25.6159  -48.4128 C.3       16 UNK        -0.1800 
     92 C          -8.2475  -23.4680  -49.5279 C.2       16 UNK         0.5000 
     93 O          -8.5543  -22.2851  -49.3752 O.2       16 UNK        -0.5000 
     94 N          -8.7971  -24.2659  -50.4527 N.am      17 UNK        -0.5000 
     95 CA         -9.7757  -23.8414  -51.4531 C.3       17 UNK         0.1400 
     96 CB        -10.5150  -25.0822  -51.9778 C.3       17 UNK        -0.1800 
     97 C          -9.1524  -23.0518  -52.6222 C.2       17 UNK         0.5000 
     98 O          -9.8717  -22.3032  -53.2862 O.2       17 UNK        -0.5000 
     99 N          -7.8468  -23.2313  -52.8703 N.am      18 UNK        -0.5000 
    100 CA        -7.0933  -22.4972  -53.8875 C.3       18 UNK         0.1400 
    101 CB        -5.8030  -23.2668  -54.2159 C.3       18 UNK        -0.1800 
    102 C         -6.7652  -21.0656  -53.4247 C.2       18 UNK         0.5000 
    103 O         -6.7816  -20.7822  -52.2250 O.2       18 UNK        -0.5000 
    104 N         -6.4502  -20.1978  -54.3951 N.am      19 UNK        -0.5000 
    105 CA        -6.0555  -18.8029  -54.1863 C.3       19 UNK         0.1400 
    106 CB        -5.9076  -18.0822  -55.5360 C.3       19 UNK        -0.1800 
    107 C         -4.8332  -18.5911  -53.2579 C.2       19 UNK         0.5000 
    108 O         -4.9472  -17.7804  -52.3416 O.2       19 UNK        -0.5000 
    109 N         -3.6962  -19.2944  -53.4047 N.am      20 UNK        -0.5000 
    110 CA        -3.2317  -20.0865  -54.5505 C.3       20 UNK         0.1400 
    111 CB        -2.2845  -21.1852  -54.0429 C.3       20 UNK        -0.1800 
    112 C         -2.5474  -19.2243  -55.6315 C.2       20 UNK         0.5000 
    113 O         -2.4433  -19.6760  -56.7714 O.2       20 UNK        -0.5000 
    114 N         -2.1450  -17.9951  -55.2676 N.am      21 UNK        -0.5000 
    115 CA        -1.6184  -16.9322  -56.1359 C.3       21 UNK         0.1400 
    116 CB        -2.7602  -16.3343  -56.9844 C.3       21 UNK        -0.1800 
    117 C         -0.3961  -17.3505  -56.9844 C.2       21 UNK         0.5000 
    118 O         -0.3556  -17.0880  -58.1886 O.2       21 UNK        -0.5000 
    119 N          0.5744  -18.0073  -56.3381 N.am      22 UNK        -0.5000 
    120 CA         1.8370  -18.4538  -56.9494 C.3       22 UNK         0.1400 
    121 C          2.7425  -17.2727  -57.4004 C.2       22 UNK         0.5000 
    122 N          3.4705  -17.4253  -58.4983 N.am      22 UNK        -0.7600 
    123 O          2.8241  -16.2378  -56.7418 O.2       22 UNK        -0.5000 
    124 C124        2.6273  -19.4019  -56.0135 C.3       23 UNK        -0.0398 
    125 S125        1.6695  -20.8841  -55.5470 S.3       23 UNK        -0.2404 
    126 C126        2.3928  -21.2780  -53.9165 C.3       23 UNK        -0.0205 
    127 H127        1.8134  -16.2049  -47.9566 H         1 UNK         0.0600 
    128 H128        1.5726  -14.4653  -47.7523 H         1 UNK         0.0600 
    129 H129        1.9082  -15.1323  -49.3516 H         1 UNK         0.0600 
    130 H130       -0.1333  -17.2991  -47.7867 H         1 UNK         0.3000 
    131 H131       -2.1930  -17.9566  -48.0022 H         1 UNK         0.0600 
    132 H132       -2.4111  -16.1766  -50.4822 H         1 UNK         0.0800 
    133 H133       -3.6148  -17.3307  -49.9858 H         1 UNK         0.0800 
    134 H134       -0.1892  -16.6559  -51.3014 H         1 UNK         0.0800 
    135 H135       -0.7947  -17.4227  -52.7464 H         1 UNK         0.0800 
    136 H136        0.3206  -19.4395  -53.6320 H         1 UNK         0.1150 
    137 H137        3.8653  -20.8807  -51.6848 H         1 UNK         0.1150 
    138 H138        1.5613  -17.7377  -49.9174 H         1 UNK         0.1150 
    139 H139        4.7429  -19.4765  -49.7317 H         1 UNK         0.0800 
    140 H140        3.6652  -18.3685  -48.9201 H         1 UNK         0.0800 
    141 H141        0.9699  -20.1708  -48.9779 H         1 UNK         0.0800 
    142 H142        1.3431  -19.3461  -47.4821 H         1 UNK         0.0800 
    143 H143        1.0232  -22.3775  -47.6992 H         1 UNK         0.0600 
    144 H144        1.6175  -20.7318  -45.4586 H         1 UNK         0.3000 
    145 H145        0.3106  -22.9765  -42.9621 H         1 UNK         0.0600 
    146 H146        2.5955  -22.5811  -42.0855 H         1 UNK         0.0600 
    147 H147        3.1336  -22.0159  -43.6652 H         1 UNK         0.0600 
    148 H148        2.6410  -23.6887  -43.4485 H         1 UNK         0.0600 
    149 H149        1.4427  -20.3811  -42.7215 H         1 UNK         0.3000 
    150 H150       -1.6074  -18.5219  -43.1755 H         1 UNK         0.0600 
    151 H151       -1.6017  -19.2326  -40.7930 H         1 UNK         0.0600 
    152 H152       -0.8582  -17.6489  -40.9583 H         1 UNK         0.0600 
    153 H153        0.1491  -19.0715  -40.7224 H         1 UNK         0.0600 
    154 H154        1.0486  -17.6833  -42.6082 H         1 UNK         0.3000 
    155 H155        2.1981  -17.4158  -45.9784 H         1 UNK         0.0600 
    156 H156        2.7067  -15.1253  -45.1557 H         1 UNK         0.0600 
    157 H157        0.9930  -15.2906  -45.5009 H         1 UNK         0.0600 
    158 H158        1.5511  -15.3207  -43.8388 H         1 UNK         0.0600 
    159 H159        3.4016  -16.9386  -43.4146 H         1 UNK         0.3000 
    160 H160        4.8228  -20.1860  -43.0331 H         1 UNK         0.0600 
    161 H161        6.9054  -18.8426  -42.9903 H         1 UNK         0.0600 
    162 H162        6.0871  -17.4912  -43.7746 H         1 UNK         0.0600 
    163 H163        6.3260  -19.0043  -44.6405 H         1 UNK         0.0600 
    164 H164        5.0415  -17.7414  -41.5414 H         1 UNK         0.3000 
    165 H165        2.2725  -18.3332  -39.3648 H         1 UNK         0.0600 
    166 H166        4.0627  -18.1097  -37.6720 H         1 UNK         0.0600 
    167 H167        4.1696  -19.6808  -38.4489 H         1 UNK         0.0600 
    168 H168        5.3011  -18.4082  -38.8920 H         1 UNK         0.0600 
    169 H169        4.1628  -16.2340  -39.3822 H         1 UNK         0.3000 
    170 H170        3.0901  -14.0602  -39.7983 H         1 UNK         0.0600 
    171 H171        4.0956  -14.6024  -42.6681 H         1 UNK         0.0600 
    172 H172        4.4570  -13.1633  -41.7198 H         1 UNK         0.0600 
    173 H173        5.0845  -14.7205  -41.2165 H         1 UNK         0.0600 
    174 H174        1.1510  -14.4718  -41.8407 H         1 UNK         0.3000 
    175 H175       -0.2007  -11.2548  -41.6786 H         1 UNK         0.0600 
    176 H176        1.0362  -12.4517  -44.2198 H         1 UNK         0.0600 
    177 H177       -0.2933  -11.2946  -44.1664 H         1 UNK         0.0600 
    178 H178        1.3077  -10.8189  -43.6212 H         1 UNK         0.0600 
    179 H179       -0.7490  -13.7279  -43.1507 H         1 UNK         0.3000 
    180 H180       -1.9115  -15.6380  -41.5697 H         1 UNK         0.0600 
    181 H181       -4.2777  -15.7481  -40.8211 H         1 UNK         0.0600 
    182 H182       -4.3051  -13.9980  -40.6012 H         1 UNK         0.0600 
    183 H183       -3.2642  -15.0036  -39.5986 H         1 UNK         0.0600 
    184 H184       -4.0657  -14.3639  -43.0348 H         1 UNK         0.3000 
    185 H185       -4.2509  -15.2422  -45.2831 H         1 UNK         0.0600 
    186 H186       -2.2961  -12.9760  -46.0395 H         1 UNK         0.0600 
    187 H187       -3.8577  -13.2670  -46.8020 H         1 UNK         0.0600 
    188 H188       -3.7837  -12.7583  -45.1243 H         1 UNK         0.0600 
    189 H189       -1.6256  -15.9525  -46.1384 H         1 UNK         0.3000 
    190 H190       -1.0169  -19.9619  -45.9746 H         1 UNK         0.3000 
    191 H191       -3.2619  -20.1098  -47.6809 H         1 UNK         0.0600 
    192 H192       -2.8215  -18.4192  -45.7701 H         1 UNK         0.0600 
    193 H193       -3.3869  -19.6475  -44.6552 H         1 UNK         0.0600 
    194 H194       -4.4654  -19.0282  -45.8911 H         1 UNK         0.0600 
    195 H195       -2.4435  -22.0482  -44.7789 H         1 UNK         0.3000 
    196 H196       -4.7342  -23.7275  -44.7955 H         1 UNK         0.0600 
    197 H197       -3.2477  -23.4542  -42.8273 H         1 UNK         0.0600 
    198 H198       -1.9219  -24.2343  -43.6858 H         1 UNK         0.0600 
    199 H199       -3.3652  -25.1510  -43.2712 H         1 UNK         0.0600 
    200 H200       -1.5542  -24.0699  -46.4079 H         1 UNK         0.3000 
    201 H201       -2.0267  -26.6727  -47.5016 H         1 UNK         0.0600 
    202 H202        0.2473  -25.7134  -47.2323 H         1 UNK         0.0600 
    203 H203       -0.1154  -24.4602  -48.4167 H         1 UNK         0.0600 
    204 H204       -0.0471  -26.1464  -48.9100 H         1 UNK         0.0600 
    205 H205       -2.5238  -23.3661  -48.8116 H         1 UNK         0.3000 
    206 H206       -3.4509  -24.1269  -51.3880 H         1 UNK         0.0600 
    207 H207       -3.9672  -21.5868  -49.7493 H         1 UNK         0.0600 
    208 H208       -2.6427  -21.8466  -50.8790 H         1 UNK         0.0600 
    209 H209       -4.2966  -21.7661  -51.4653 H         1 UNK         0.0600 
    210 H210       -5.2482  -23.2714  -48.4044 H         1 UNK         0.3000 
    211 H211       -7.2785  -23.6196  -47.6405 H         1 UNK         0.0600 
    212 H212       -7.1511  -26.1839  -49.3243 H         1 UNK         0.0600 
    213 H213       -8.3463  -25.8572  -48.0713 H         1 UNK         0.0600 
    214 H214       -6.6468  -25.9814  -47.6542 H         1 UNK         0.0600 
    215 H215       -8.4535  -25.2124  -50.5287 H         1 UNK         0.3000 
    216 H216      -10.5068  -23.1900  -50.9696 H         1 UNK         0.0600 
    217 H217      -11.2775  -24.8039  -52.7066 H         1 UNK         0.0600 
    218 H218      -11.0185  -25.6129  -51.1696 H         1 UNK         0.0600 
    219 H219       -9.8335  -25.7800  -52.4660 H         1 UNK         0.0600 
    220 H220       -7.3018  -23.8175  -52.2444 H         1 UNK         0.3000 
    221 H221       -7.6998  -22.4403  -54.7940 H         1 UNK         0.0600 
    222 H222       -5.1070  -23.2671  -53.3774 H         1 UNK         0.0600 
    223 H223       -6.0155  -24.3041  -54.4750 H         1 UNK         0.0600 
    224 H224       -5.2860  -22.8212  -55.0661 H         1 UNK         0.0600 
    225 H225       -6.4751  -20.5139  -55.3534 H         1 UNK         0.3000 
    226 H226       -6.8974  -18.3289  -53.6769 H         1 UNK         0.0600 
    227 H227       -6.8730  -17.9922  -56.0343 H         1 UNK         0.0600 
    228 H228       -5.5221  -17.0712  -55.4008 H         1 UNK         0.0600 
    229 H229       -5.2387  -18.6060  -56.2167 H         1 UNK         0.0600 
    230 H230       -3.0069  -19.1751  -52.6752 H         1 UNK         0.3000 
    231 H231       -4.0619  -20.5877  -55.0415 H         1 UNK         0.0600 
    232 H232       -1.7946  -21.7027  -54.8691 H         1 UNK         0.0600 
    233 H233       -2.8315  -21.9374  -53.4758 H         1 UNK         0.0600 
    234 H234       -1.5051  -20.7863  -53.3952 H         1 UNK         0.0600 
    235 H235       -2.3055  -17.7277  -54.3080 H         1 UNK         0.3000 
    236 H236       -1.2614  -16.1434  -55.4722 H         1 UNK         0.0600 
    237 H237       -3.1806  -17.0691  -57.6717 H         1 UNK         0.0600 
    238 H238       -3.5671  -15.9647  -56.3524 H         1 UNK         0.0600 
    239 H239       -2.4088  -15.4905  -57.5795 H         1 UNK         0.0600 
    240 H240        0.4707  -18.1857  -55.3522 H         1 UNK         0.3000 
    241 H241        1.5685  -19.0204  -57.8434 H         1 UNK         0.0600 
    242 H242        3.4255  -18.2674  -59.0519 H         1 UNK         0.3800 
    243 H243        4.0736  -16.6731  -58.7944 H         1 UNK         0.3800 
    244 H244        2.9392  -18.8671  -55.1149 H         1 UNK         0.0800 
    245 H245        3.5440  -19.7419  -56.4985 H         1 UNK         0.0800 
    246 H246        1.9810  -22.2305  -53.5810 H         1 UNK         0.0800 
    247 H247        3.4648  -21.4345  -54.0476 H         1 UNK         0.0800 
@<TRIPOS>BOND
     1    1    2 1    
     2    1  127 1    
     3    1  128 1    
     4    1  129 1    
     5    2    3 2    
     6    2    4 am   BACKBONE|DICT|INTERRES
     7    4    5 1    
     8    4  130 1    
     9    5    6 1    
    10    5   65 1    
    11    5  131 1    
    12    6    7 1    
    13    6  132 1    
    14    6  133 1    
    15    7    8 1    
    16    8    9 1    
    17    8  134 1    
    18    8  135 1    
    19    9   10 ar   
    20    9   14 ar   
    21   10   11 ar   
    22   10  136 1    
    23   11   12 ar   
    24   11  126 1    
    25   12   13 ar   
    26   12  137 1    
    27   13   14 ar   
    28   13   15 1    
    29   14  138 1    
    30   15   16 1    
    31   15  139 1    
    32   15  140 1    
    33   16   17 1    
    34   17   18 1    
    35   17  141 1    
    36   17  142 1    
    37   18   19 1    
    38   18   67 1    
    39   18  143 1    
    40   19   20 am   BACKBONE|DICT|INTERRES
    41   19  144 1    
    42   20   21 2    
    43   20   22 1    
    44   22   23 1    
    45   22   24 1    
    46   22  145 1    
    47   23  146 1    
    48   23  147 1    
    49   23  148 1    
    50   24   25 am   BACKBONE|DICT|INTERRES
    51   24  149 1    
    52   25   26 2    
    53   25   27 1    
    54   27   28 1    
    55   27   29 1    
    56   27  150 1    
    57   28  151 1    
    58   28  152 1    
    59   28  153 1    
    60   29   30 am   BACKBONE|DICT|INTERRES
    61   29  154 1    
    62   30   31 2    
    63   30   32 1    
    64   32   33 1    
    65   32   34 1    
    66   32  155 1    
    67   33  156 1    
    68   33  157 1    
    69   33  158 1    
    70   34   35 am   BACKBONE|DICT|INTERRES
    71   34  159 1    
    72   35   36 2    
    73   35   37 1    
    74   37   38 1    
    75   37   39 1    
    76   37  160 1    
    77   38  161 1    
    78   38  162 1    
    79   38  163 1    
    80   39   40 am   BACKBONE|DICT|INTERRES
    81   39  164 1    
    82   40   41 2    
    83   40   42 1    
    84   42   43 1    
    85   42   44 1    
    86   42  165 1    
    87   43  166 1    
    88   43  167 1    
    89   43  168 1    
    90   44   45 am   BACKBONE|DICT|INTERRES
    91   44  169 1    
    92   45   46 2    
    93   45   47 1    
    94   47   48 1    
    95   47   49 1    
    96   47  170 1    
    97   48  171 1    
    98   48  172 1    
    99   48  173 1    
   100   49   50 am   BACKBONE|DICT|INTERRES
   101   49  174 1    
   102   50   51 2    
   103   50   52 1    
   104   52   53 1    
   105   52   54 1    
   106   52  175 1    
   107   53  176 1    
   108   53  177 1    
   109   53  178 1    
   110   54   55 am   BACKBONE|DICT|INTERRES
   111   54  179 1    
   112   55   56 2    
   113   55   57 1    
   114   57   58 1    
   115   57   59 1    
   116   57  180 1    
   117   58  181 1    
   118   58  182 1    
   119   58  183 1    
   120   59   60 am   BACKBONE|DICT|INTERRES
   121   59  184 1    
   122   60   61 2    
   123   60   62 1    
   124   62   63 1    
   125   62   64 1    
   126   62  185 1    
   127   63  186 1    
   128   63  187 1    
   129   63  188 1    
   130   64   65 am   BACKBONE|DICT|INTERRES
   131   64  189 1    
   132   65   66 2    
   133   67   68 2    
   134   67   69 am   BACKBONE|DICT|INTERRES
   135   69   70 1    
   136   69  190 1    
   137   70   71 1    
   138   70   72 1    
   139   70  191 1    
   140   71  192 1    
   141   71  193 1    
   142   71  194 1    
   143   72   73 2    
   144   72   74 am   BACKBONE|DICT|INTERRES
   145   74   75 1    
   146   74  195 1    
   147   75   76 1    
   148   75   77 1    
   149   75  196 1    
   150   76  197 1    
   151   76  198 1    
   152   76  199 1    
   153   77   78 2    
   154   77   79 am   BACKBONE|DICT|INTERRES
   155   79   80 1    
   156   79  200 1    
   157   80   81 1    
   158   80   82 1    
   159   80  201 1    
   160   81  202 1    
   161   81  203 1    
   162   81  204 1    
   163   82   83 2    
   164   82   84 am   BACKBONE|DICT|INTERRES
   165   84   85 1    
   166   84  205 1    
   167   85   86 1    
   168   85   87 1    
   169   85  206 1    
   170   86  207 1    
   171   86  208 1    
   172   86  209 1    
   173   87   88 2    
   174   87   89 am   BACKBONE|DICT|INTERRES
   175   89   90 1    
   176   89  210 1    
   177   90   91 1    
   178   90   92 1    
   179   90  211 1    
   180   91  212 1    
   181   91  213 1    
   182   91  214 1    
   183   92   93 2    
   184   92   94 am   BACKBONE|DICT|INTERRES
   185   94   95 1    
   186   94  215 1    
   187   95   96 1    
   188   95   97 1    
   189   95  216 1    
   190   96  217 1    
   191   96  218 1    
   192   96  219 1    
   193   97   98 2    
   194   97   99 am   BACKBONE|DICT|INTERRES
   195   99  100 1    
   196   99  220 1    
   197  100  101 1    
   198  100  102 1    
   199  100  221 1    
   200  101  222 1    
   201  101  223 1    
   202  101  224 1    
   203  102  103 2    
   204  102  104 am   BACKBONE|DICT|INTERRES
   205  104  105 1    
   206  104  225 1    
   207  105  106 1    
   208  105  107 1    
   209  105  226 1    
   210  106  227 1    
   211  106  228 1    
   212  106  229 1    
   213  107  108 2    
   214  107  109 am   BACKBONE|DICT|INTERRES
   215  109  110 1    
   216  109  230 1    
   217  110  111 1    
   218  110  112 1    
   219  110  231 1    
   220  111  232 1    
   221  111  233 1    
   222  111  234 1    
   223  112  113 2    
   224  112  114 am   BACKBONE|DICT|INTERRES
   225  114  115 1    
   226  114  235 1    
   227  115  116 1    
   228  115  117 1    
   229  115  236 1    
   230  116  237 1    
   231  116  238 1    
   232  116  239 1    
   233  117  118 2    
   234  117  119 am   BACKBONE|DICT|INTERRES
   235  119  120 1    
   236  119  240 1    
   237  120  121 1    
   238  120  124 1    
   239  120  241 1    
   240  121  122 am   BACKBONE|DICT|INTERRES
   241  121  123 2    
   242  122  242 1    
   243  122  243 1    
   244  124  125 1    
   245  124  244 1    
   246  124  245 1    
   247  125  126 1    
   248  126  246 1    
   249  126  247 1    
@<TRIPOS>SUBSTRUCTURE
     1 UNK         1 GROUP             0       ****    0 ROOT    
