@<TRIPOS>MOLECULE
3R540
247   249    1
SMALL
USER_CHARGES


@<TRIPOS>ATOM
      1 CA         -3.3330  -14.2098  -50.3873 C.3       0 UNK        -0.1800 
      2 C          -2.1203  -13.3468  -50.7062 C.2       0 UNK         0.5000 
      3 O          -2.1337  -12.6087  -51.6921 O.2       0 UNK        -0.5000 
      4 N          -1.0728  -13.4383  -49.8783 N.am      1 UNK        -0.5000 
      5 CA          0.1686  -12.6657  -50.0028 C.3       1 UNK         0.1400 
      6 C6          1.3142  -13.2337  -49.1230 C.3       23 UNK        -0.0398 
      7 S7          1.5675  -15.0292  -49.3263 S.3       23 UNK        -0.2404 
      8 C8          1.1871  -15.6270  -47.6498 C.3       23 UNK        -0.0205 
      9 C9          0.5512  -17.0039  -47.6901 C.ar      23 UNK        -0.0193 
     10 C10        -0.8405  -17.1302  -47.6824 C.ar      23 UNK        -0.1150 
     11 C11        -1.4422  -18.3916  -47.7091 C.ar      23 UNK        -0.0193 
     12 C12        -0.6344  -19.5314  -47.7253 C.ar      23 UNK        -0.1150 
     13 C13         0.7583  -19.4176  -47.7267 C.ar      23 UNK        -0.0193 
     14 C14         1.3481  -18.1513  -47.7152 C.ar      23 UNK        -0.1150 
     15 C15         1.6179  -20.6675  -47.7542 C.3       23 UNK        -0.0205 
     16 S16         1.8827  -21.3240  -46.0775 S.3       23 UNK        -0.2404 
     17 C17         2.4183  -23.0223  -46.4828 C.3       23 UNK        -0.0398 
     18 CA          1.3475  -24.1326  -46.3152 C.3       11 UNK         0.1400 
     19 N           1.1016  -24.5060  -44.9198 N.am      11 UNK        -0.5000 
     20 C           0.5888  -25.6935  -44.5616 C.2       10 UNK         0.5000 
     21 O           0.2721  -26.5706  -45.3667 O.2       10 UNK        -0.5000 
     22 CA          0.3618  -25.9317  -43.0591 C.3       10 UNK         0.1400 
     23 CB          1.6893  -26.2324  -42.3467 C.3       10 UNK        -0.1800 
     24 N          -0.2999  -24.8061  -42.4020 N.am      10 UNK        -0.5000 
     25 C          -1.5493  -24.3980  -42.6649 C.2       9 UNK         0.5000 
     26 O          -2.2833  -24.9272  -43.4974 O.2       9 UNK        -0.5000 
     27 CA         -2.0484  -23.1642  -41.8920 C.3       9 UNK         0.1400 
     28 CB         -2.6670  -23.5811  -40.5495 C.3       9 UNK        -0.1800 
     29 N          -0.9993  -22.1689  -41.6573 N.am      9 UNK        -0.5000 
     30 C          -0.3550  -21.5130  -42.6299 C.2       8 UNK         0.5000 
     31 O          -0.5563  -21.7008  -43.8327 O.2       8 UNK        -0.5000 
     32 CA          0.7108  -20.5066  -42.1850 C.3       8 UNK         0.1400 
     33 CB          2.0863  -21.1822  -42.0564 C.3       8 UNK        -0.1800 
     34 N           0.7731  -19.4460  -43.1803 N.am      8 UNK        -0.5000 
     35 C           1.0431  -18.1628  -42.9303 C.2       7 UNK         0.5000 
     36 O           1.3310  -17.7236  -41.8139 O.2       7 UNK        -0.5000 
     37 CA          0.9126  -17.2061  -44.1283 C.3       7 UNK         0.1400 
     38 CB         -0.5232  -16.6665  -44.2183 C.3       7 UNK        -0.1800 
     39 N           1.8440  -16.0794  -44.0608 N.am      7 UNK        -0.5000 
     40 C           3.1781  -16.1875  -44.1564 C.2       6 UNK         0.5000 
     41 O           3.7570  -17.2559  -44.3584 O.2       6 UNK        -0.5000 
     42 CA          4.0211  -14.8994  -44.0338 C.3       6 UNK         0.1400 
     43 CB          4.6812  -14.5540  -45.3789 C.3       6 UNK        -0.1800 
     44 N           3.2611  -13.7379  -43.5678 N.am      6 UNK        -0.5000 
     45 C           2.8796  -13.5363  -42.2972 C.2       5 UNK         0.5000 
     46 O           3.1879  -14.2877  -41.3718 O.2       5 UNK        -0.5000 
     47 CA          2.0030  -12.3004  -41.9964 C.3       5 UNK         0.1400 
     48 CB          2.8365  -11.2057  -41.3121 C.3       5 UNK        -0.1800 
     49 N           1.3484  -11.7225  -43.1723 N.am      5 UNK        -0.5000 
     50 C           0.4395  -12.3371  -43.9419 C.2       4 UNK         0.5000 
     51 O           0.0062  -13.4656  -43.7122 O.2       4 UNK        -0.5000 
     52 CA         -0.0213  -11.5895  -45.2099 C.3       4 UNK         0.1400 
     53 CB         -1.3592  -10.8789  -44.9599 C.3       4 UNK        -0.1800 
     54 N           0.9448  -10.6162  -45.7359 N.am      4 UNK        -0.5000 
     55 C           2.1983  -10.8911  -46.1210 C.2       3 UNK         0.5000 
     56 O           2.7114  -12.0055  -46.0120 O.2       3 UNK        -0.5000 
     57 CA          2.9739   -9.7405  -46.7864 C.3       3 UNK         0.1400 
     58 CB          4.4796  -10.0372  -46.9044 C.3       3 UNK        -0.1800 
     59 N           2.4268   -9.5283  -48.1228 N.am      3 UNK        -0.5000 
     60 C           1.4080   -8.7120  -48.4240 C.2       2 UNK         0.5000 
     61 O           0.9060   -7.9175  -47.6283 O.2       2 UNK        -0.5000 
     62 CA          0.8082   -8.8745  -49.8351 C.3       2 UNK         0.1400 
     63 CB          1.6265   -8.0911  -50.8728 C.3       2 UNK        -0.1800 
     64 N           0.7325  -10.2858  -50.2310 N.am      2 UNK        -0.5000 
     65 C          -0.0632  -11.1858  -49.6348 C.2       1 UNK         0.5000 
     66 O          -0.8980  -10.8934  -48.7745 O.2       1 UNK        -0.5000 
     67 C           0.0280  -23.8551  -47.0652 C.2       11 UNK         0.5000 
     68 O          -0.0873  -24.2289  -48.2316 O.2       11 UNK        -0.5000 
     69 N          -0.9595  -23.2613  -46.3760 N.am      12 UNK        -0.5000 
     70 CA         -2.3092  -23.0433  -46.8950 C.3       12 UNK         0.1400 
     71 CB         -3.1114  -22.1703  -45.9200 C.3       12 UNK        -0.1800 
     72 C          -3.0429  -24.3609  -47.1938 C.2       12 UNK         0.5000 
     73 O          -3.6707  -24.4680  -48.2461 O.2       12 UNK        -0.5000 
     74 N          -2.9121  -25.3518  -46.2998 N.am      13 UNK        -0.5000 
     75 CA         -3.4368  -26.7053  -46.4826 C.3       13 UNK         0.1400 
     76 CB         -3.2969  -27.5040  -45.1783 C.3       13 UNK        -0.1800 
     77 C          -2.7652  -27.4460  -47.6520 C.2       13 UNK         0.5000 
     78 O          -3.4664  -28.0711  -48.4474 O.2       13 UNK        -0.5000 
     79 N          -1.4337  -27.3276  -47.7669 N.am      14 UNK        -0.5000 
     80 CA         -0.6426  -27.8921  -48.8654 C.3       14 UNK         0.1400 
     81 CB          0.8535  -27.7293  -48.5587 C.3       14 UNK        -0.1800 
     82 C          -0.9907  -27.2765  -50.2355 C.2       14 UNK         0.5000 
     83 O          -1.0558  -27.9982  -51.2310 O.2       14 UNK        -0.5000 
     84 N          -1.2468  -25.9622  -50.2508 N.am      15 UNK        -0.5000 
     85 CA         -1.7137  -25.2014  -51.4112 C.3       15 UNK         0.1400 
     86 CB         -1.4442  -23.7106  -51.1464 C.3       15 UNK        -0.1800 
     87 C          -3.2077  -25.4141  -51.7341 C.2       15 UNK         0.5000 
     88 O          -3.6677  -24.9430  -52.7766 O.2       15 UNK        -0.5000 
     89 N          -3.9475  -26.0554  -50.8145 N.am      16 UNK        -0.5000 
     90 CA         -5.4056  -26.2257  -50.7946 C.3       16 UNK         0.1400 
     91 CB         -5.8464  -27.2103  -51.8964 C.3       16 UNK        -0.1800 
     92 C          -6.1553  -24.8764  -50.8601 C.2       16 UNK         0.5000 
     93 O          -7.2101  -24.7827  -51.4907 O.2       16 UNK        -0.5000 
     94 N          -5.5470  -23.8404  -50.2615 N.am      17 UNK        -0.5000 
     95 CA         -5.8359  -22.4032  -50.3305 C.3       17 UNK         0.1400 
     96 CB         -7.2062  -22.0802  -49.7101 C.3       17 UNK        -0.1800 
     97 C          -5.7036  -21.7895  -51.7412 C.2       17 UNK         0.5000 
     98 O          -5.1204  -20.7139  -51.8807 O.2       17 UNK        -0.5000 
     99 N          -6.2418  -22.4757  -52.7550 N.am      18 UNK        -0.5000 
    100 CA        -6.3535  -22.0551  -54.1486 C.3       18 UNK         0.1400 
    101 CB        -7.0898  -23.1445  -54.9423 C.3       18 UNK        -0.1800 
    102 C         -5.0161  -21.7083  -54.8215 C.2       18 UNK         0.5000 
    103 O         -4.9379  -20.6773  -55.4899 O.2       18 UNK        -0.5000 
    104 N         -3.9800  -22.5369  -54.6194 N.am      19 UNK        -0.5000 
    105 CA        -2.6603  -22.3305  -55.2307 C.3       19 UNK         0.1400 
    106 CB        -1.8436  -23.6298  -55.1691 C.3       19 UNK        -0.1800 
    107 C         -1.8777  -21.1533  -54.6143 C.2       19 UNK         0.5000 
    108 O         -0.9740  -20.6245  -55.2622 O.2       19 UNK        -0.5000 
    109 N         -2.2524  -20.7500  -53.3933 N.am      20 UNK        -0.5000 
    110 CA        -1.7274  -19.5737  -52.6996 C.3       20 UNK         0.1400 
    111 CB        -1.6375  -19.8956  -51.1992 C.3       20 UNK        -0.1800 
    112 C         -2.5877  -18.3159  -52.9497 C.2       20 UNK         0.5000 
    113 O         -2.2015  -17.2321  -52.5127 O.2       20 UNK        -0.5000 
    114 N         -3.7271  -18.4794  -53.6435 N.am      21 UNK        -0.5000 
    115 CA        -4.7697  -17.4829  -53.9138 C.3       21 UNK         0.1400 
    116 CB        -4.2265  -16.3221  -54.7736 C.3       21 UNK        -0.1800 
    117 C         -5.4950  -17.0062  -52.6360 C.2       21 UNK         0.5000 
    118 O         -5.9457  -15.8608  -52.5728 O.2       21 UNK        -0.5000 
    119 N         -5.6038  -17.9001  -51.6461 N.am      22 UNK        -0.5000 
    120 CA        -6.2092  -17.6458  -50.3278 C.3       22 UNK         0.1400 
    121 C         -7.7057  -18.0622  -50.2382 C.2       22 UNK         0.5000 
    122 N         -8.3073  -18.6210  -51.2817 N.am      22 UNK        -0.7600 
    123 O         -8.3395  -17.8643  -49.2054 O.2       22 UNK        -0.5000 
    124 C124       -5.3770  -18.2917  -49.1884 C.3       23 UNK        -0.0398 
    125 S125       -3.6591  -17.6879  -49.1889 S.3       23 UNK        -0.2404 
    126 C126       -2.9592  -18.5211  -47.7330 C.3       23 UNK        -0.0205 
    127 H127       -3.4204  -15.0178  -51.1142 H         1 UNK         0.0600 
    128 H128       -3.2622  -14.6517  -49.3933 H         1 UNK         0.0600 
    129 H129       -4.2448  -13.6141  -50.4281 H         1 UNK         0.0600 
    130 H130       -1.1186  -14.0638  -49.0887 H         1 UNK         0.3000 
    131 H131        0.4846  -12.7158  -51.0471 H         1 UNK         0.0600 
    132 H132        1.1382  -13.0096  -48.0703 H         1 UNK         0.0800 
    133 H133        2.2565  -12.7428  -49.3713 H         1 UNK         0.0800 
    134 H134        0.5164  -14.9393  -47.1330 H         1 UNK         0.0800 
    135 H135        2.1053  -15.6548  -47.0629 H         1 UNK         0.0800 
    136 H136       -1.4613  -16.2458  -47.6660 H         1 UNK         0.1150 
    137 H137       -1.0854  -20.5113  -47.7435 H         1 UNK         0.1150 
    138 H138        2.4251  -18.0575  -47.7156 H         1 UNK         0.1150 
    139 H139        1.1344  -21.4190  -48.3802 H         1 UNK         0.0800 
    140 H140        2.5836  -20.4575  -48.2166 H         1 UNK         0.0800 
    141 H141        2.7956  -23.0369  -47.5066 H         1 UNK         0.0800 
    142 H142        3.2837  -23.2561  -45.8614 H         1 UNK         0.0800 
    143 H143        1.7775  -25.0152  -46.7943 H         1 UNK         0.0600 
    144 H144        1.2888  -23.8069  -44.2166 H         1 UNK         0.3000 
    145 H145       -0.2841  -26.8065  -42.9570 H         1 UNK         0.0600 
    146 H146        1.5247  -26.4927  -41.3010 H         1 UNK         0.0600 
    147 H147        2.2000  -27.0758  -42.8135 H         1 UNK         0.0600 
    148 H148        2.3683  -25.3794  -42.3773 H         1 UNK         0.0600 
    149 H149        0.2316  -24.3054  -41.7058 H         1 UNK         0.3000 
    150 H150       -2.8279  -22.6920  -42.4934 H         1 UNK         0.0600 
    151 H151       -3.4655  -24.3095  -40.6977 H         1 UNK         0.0600 
    152 H152       -3.1020  -22.7255  -40.0327 H         1 UNK         0.0600 
    153 H153       -1.9280  -24.0342  -39.8875 H         1 UNK         0.0600 
    154 H154       -0.7759  -21.9672  -40.6932 H         1 UNK         0.3000 
    155 H155        0.4143  -20.0922  -41.2190 H         1 UNK         0.0600 
    156 H156        2.8465  -20.4686  -41.7383 H         1 UNK         0.0600 
    157 H157        2.4118  -21.6155  -43.0028 H         1 UNK         0.0600 
    158 H158        2.0630  -21.9835  -41.3170 H         1 UNK         0.0600 
    159 H159        0.5032  -19.7417  -44.1113 H         1 UNK         0.3000 
    160 H160        1.1344  -17.7686  -45.0347 H         1 UNK         0.0600 
    161 H161       -0.6339  -15.9620  -45.0419 H         1 UNK         0.0600 
    162 H162       -0.8160  -16.1520  -43.3021 H         1 UNK         0.0600 
    163 H163       -1.2350  -17.4760  -44.3849 H         1 UNK         0.0600 
    164 H164        1.4387  -15.1725  -43.8662 H         1 UNK         0.3000 
    165 H165        4.8163  -15.1019  -43.3133 H         1 UNK         0.0600 
    166 H166        3.9400  -14.3714  -46.1570 H         1 UNK         0.0600 
    167 H167        5.3045  -13.6634  -45.2966 H         1 UNK         0.0600 
    168 H168        5.3210  -15.3678  -45.7221 H         1 UNK         0.0600 
    169 H169        2.9772  -13.0747  -44.2819 H         1 UNK         0.3000 
    170 H170        1.2210  -12.6201  -41.3046 H         1 UNK         0.0600 
    171 H171        3.3152  -11.5850  -40.4082 H         1 UNK         0.0600 
    172 H172        3.6236  -10.8317  -41.9681 H         1 UNK         0.0600 
    173 H173        2.2138  -10.3609  -41.0169 H         1 UNK         0.0600 
    174 H174        1.6500  -10.7993  -43.4463 H         1 UNK         0.3000 
    175 H175       -0.1780  -12.3421  -45.9851 H         1 UNK         0.0600 
    176 H176       -1.2600  -10.0832  -44.2206 H         1 UNK         0.0600 
    177 H177       -1.7480  -10.4392  -45.8789 H         1 UNK         0.0600 
    178 H178       -2.1117  -11.5782  -44.5927 H         1 UNK         0.0600 
    179 H179        0.5926   -9.6822  -45.8987 H         1 UNK         0.3000 
    180 H180        2.8511   -8.8436  -46.1756 H         1 UNK         0.0600 
    181 H181        4.6744  -10.9177  -47.5183 H         1 UNK         0.0600 
    182 H182        4.9192  -10.2177  -45.9226 H         1 UNK         0.0600 
    183 H183        5.0116   -9.1960  -47.3491 H         1 UNK         0.0600 
    184 H184        2.7577  -10.1568  -48.8393 H         1 UNK         0.3000 
    185 H185       -0.2049   -8.4666  -49.8191 H         1 UNK         0.0600 
    186 H186        1.6834   -7.0349  -50.6065 H         1 UNK         0.0600 
    187 H187        2.6480   -8.4654  -50.9506 H         1 UNK         0.0600 
    188 H188        1.1704   -8.1516  -51.8611 H         1 UNK         0.0600 
    189 H189        1.3795  -10.5897  -50.9448 H         1 UNK         0.3000 
    190 H190       -0.7742  -22.9302  -45.4341 H         1 UNK         0.3000 
    191 H191       -2.2205  -22.5028  -47.8389 H         1 UNK         0.0600 
    192 H192       -4.1068  -21.9595  -46.3129 H         1 UNK         0.0600 
    193 H193       -2.6180  -21.2132  -45.7494 H         1 UNK         0.0600 
    194 H194       -3.2349  -22.6579  -44.9530 H         1 UNK         0.0600 
    195 H195       -2.4307  -25.1683  -45.4242 H         1 UNK         0.3000 
    196 H196       -4.5010  -26.6208  -46.7130 H         1 UNK         0.0600 
    197 H197       -3.6765  -28.5195  -45.2980 H         1 UNK         0.0600 
    198 H198       -3.8631  -27.0395  -44.3709 H         1 UNK         0.0600 
    199 H199       -2.2571  -27.5765  -44.8583 H         1 UNK         0.0600 
    200 H200       -0.9229  -26.8312  -47.0444 H         1 UNK         0.3000 
    201 H201       -0.8630  -28.9603  -48.9171 H         1 UNK         0.0600 
    202 H202        1.1174  -28.2055  -47.6143 H         1 UNK         0.0600 
    203 H203        1.1401  -26.6796  -48.4962 H         1 UNK         0.0600 
    204 H204        1.4632  -28.1894  -49.3373 H         1 UNK         0.0600 
    205 H205       -1.0900  -25.4284  -49.4004 H         1 UNK         0.3000 
    206 H206       -1.1399  -25.5094  -52.2873 H         1 UNK         0.0600 
    207 H207       -0.3800  -23.5203  -51.0061 H         1 UNK         0.0600 
    208 H208       -1.7768  -23.0915  -51.9775 H         1 UNK         0.0600 
    209 H209       -1.9661  -23.3607  -50.2553 H         1 UNK         0.0600 
    210 H210       -3.4703  -26.3846  -49.9853 H         1 UNK         0.3000 
    211 H211       -5.6521  -26.6684  -49.8287 H         1 UNK         0.0600 
    212 H212       -5.6780  -26.8029  -52.8939 H         1 UNK         0.0600 
    213 H213       -6.9085  -27.4428  -51.8122 H         1 UNK         0.0600 
    214 H214       -5.3020  -28.1517  -51.8223 H         1 UNK         0.0600 
    215 H215       -4.7188  -24.0716  -49.7156 H         1 UNK         0.3000 
    216 H216       -5.0743  -21.9248  -49.7126 H         1 UNK         0.0600 
    217 H217       -8.0266  -22.5132  -50.2828 H         1 UNK         0.0600 
    218 H218       -7.3718  -21.0038  -49.6696 H         1 UNK         0.0600 
    219 H219       -7.2739  -22.4570  -48.6895 H         1 UNK         0.0600 
    220 H220       -6.6866  -23.3582  -52.5140 H         1 UNK         0.3000 
    221 H221       -6.9680  -21.1528  -54.1619 H         1 UNK         0.0600 
    222 H222       -6.5511  -24.0928  -54.9164 H         1 UNK         0.0600 
    223 H223       -8.0886  -23.3171  -54.5408 H         1 UNK         0.0600 
    224 H224       -7.2053  -22.8585  -55.9887 H         1 UNK         0.0600 
    225 H225       -4.0938  -23.3585  -54.0324 H         1 UNK         0.3000 
    226 H226       -2.8151  -22.0936  -56.2857 H         1 UNK         0.0600 
    227 H227       -2.3940  -24.4651  -55.6023 H         1 UNK         0.0600 
    228 H228       -0.9124  -23.5290  -55.7279 H         1 UNK         0.0600 
    229 H229       -1.5793  -23.8960  -54.1479 H         1 UNK         0.0600 
    230 H230       -3.0297  -21.2189  -52.9482 H         1 UNK         0.3000 
    231 H231       -0.7191  -19.3513  -53.0546 H         1 UNK         0.0600 
    232 H232       -2.6138  -20.1368  -50.7776 H         1 UNK         0.0600 
    233 H233       -1.2398  -19.0459  -50.6431 H         1 UNK         0.0600 
    234 H234       -0.9729  -20.7390  -51.0133 H         1 UNK         0.0600 
    235 H235       -3.9376  -19.4100  -53.9804 H         1 UNK         0.3000 
    236 H236       -5.5247  -17.9996  -54.5077 H         1 UNK         0.0600 
    237 H237       -3.7123  -16.6945  -55.6596 H         1 UNK         0.0600 
    238 H238       -5.0375  -15.6788  -55.1167 H         1 UNK         0.0600 
    239 H239       -3.5289  -15.6953  -54.2173 H         1 UNK         0.0600 
    240 H240       -5.2360  -18.8376  -51.7861 H         1 UNK         0.3000 
    241 H241       -6.2041  -16.5692  -50.1479 H         1 UNK         0.0600 
    242 H242       -7.8019  -18.7733  -52.1389 H         1 UNK         0.3800 
    243 H243       -9.2799  -18.8767  -51.2167 H         1 UNK         0.3800 
    244 H244       -5.8147  -18.0694  -48.2137 H         1 UNK         0.0800 
    245 H245       -5.3664  -19.3776  -49.2889 H         1 UNK         0.0800 
    246 H246       -3.2548  -19.5712  -47.7464 H         1 UNK         0.0800 
    247 H247       -3.3767  -18.0848  -46.8247 H         1 UNK         0.0800 
@<TRIPOS>BOND
     1    1    2 1    
     2    1  127 1    
     3    1  128 1    
     4    1  129 1    
     5    2    3 2    
     6    2    4 am   BACKBONE|DICT|INTERRES
     7    4    5 1    
     8    4  130 1    
     9    5    6 1    
    10    5   65 1    
    11    5  131 1    
    12    6    7 1    
    13    6  132 1    
    14    6  133 1    
    15    7    8 1    
    16    8    9 1    
    17    8  134 1    
    18    8  135 1    
    19    9   10 ar   
    20    9   14 ar   
    21   10   11 ar   
    22   10  136 1    
    23   11   12 ar   
    24   11  126 1    
    25   12   13 ar   
    26   12  137 1    
    27   13   14 ar   
    28   13   15 1    
    29   14  138 1    
    30   15   16 1    
    31   15  139 1    
    32   15  140 1    
    33   16   17 1    
    34   17   18 1    
    35   17  141 1    
    36   17  142 1    
    37   18   19 1    
    38   18   67 1    
    39   18  143 1    
    40   19   20 am   BACKBONE|DICT|INTERRES
    41   19  144 1    
    42   20   21 2    
    43   20   22 1    
    44   22   23 1    
    45   22   24 1    
    46   22  145 1    
    47   23  146 1    
    48   23  147 1    
    49   23  148 1    
    50   24   25 am   BACKBONE|DICT|INTERRES
    51   24  149 1    
    52   25   26 2    
    53   25   27 1    
    54   27   28 1    
    55   27   29 1    
    56   27  150 1    
    57   28  151 1    
    58   28  152 1    
    59   28  153 1    
    60   29   30 am   BACKBONE|DICT|INTERRES
    61   29  154 1    
    62   30   31 2    
    63   30   32 1    
    64   32   33 1    
    65   32   34 1    
    66   32  155 1    
    67   33  156 1    
    68   33  157 1    
    69   33  158 1    
    70   34   35 am   BACKBONE|DICT|INTERRES
    71   34  159 1    
    72   35   36 2    
    73   35   37 1    
    74   37   38 1    
    75   37   39 1    
    76   37  160 1    
    77   38  161 1    
    78   38  162 1    
    79   38  163 1    
    80   39   40 am   BACKBONE|DICT|INTERRES
    81   39  164 1    
    82   40   41 2    
    83   40   42 1    
    84   42   43 1    
    85   42   44 1    
    86   42  165 1    
    87   43  166 1    
    88   43  167 1    
    89   43  168 1    
    90   44   45 am   BACKBONE|DICT|INTERRES
    91   44  169 1    
    92   45   46 2    
    93   45   47 1    
    94   47   48 1    
    95   47   49 1    
    96   47  170 1    
    97   48  171 1    
    98   48  172 1    
    99   48  173 1    
   100   49   50 am   BACKBONE|DICT|INTERRES
   101   49  174 1    
   102   50   51 2    
   103   50   52 1    
   104   52   53 1    
   105   52   54 1    
   106   52  175 1    
   107   53  176 1    
   108   53  177 1    
   109   53  178 1    
   110   54   55 am   BACKBONE|DICT|INTERRES
   111   54  179 1    
   112   55   56 2    
   113   55   57 1    
   114   57   58 1    
   115   57   59 1    
   116   57  180 1    
   117   58  181 1    
   118   58  182 1    
   119   58  183 1    
   120   59   60 am   BACKBONE|DICT|INTERRES
   121   59  184 1    
   122   60   61 2    
   123   60   62 1    
   124   62   63 1    
   125   62   64 1    
   126   62  185 1    
   127   63  186 1    
   128   63  187 1    
   129   63  188 1    
   130   64   65 am   BACKBONE|DICT|INTERRES
   131   64  189 1    
   132   65   66 2    
   133   67   68 2    
   134   67   69 am   BACKBONE|DICT|INTERRES
   135   69   70 1    
   136   69  190 1    
   137   70   71 1    
   138   70   72 1    
   139   70  191 1    
   140   71  192 1    
   141   71  193 1    
   142   71  194 1    
   143   72   73 2    
   144   72   74 am   BACKBONE|DICT|INTERRES
   145   74   75 1    
   146   74  195 1    
   147   75   76 1    
   148   75   77 1    
   149   75  196 1    
   150   76  197 1    
   151   76  198 1    
   152   76  199 1    
   153   77   78 2    
   154   77   79 am   BACKBONE|DICT|INTERRES
   155   79   80 1    
   156   79  200 1    
   157   80   81 1    
   158   80   82 1    
   159   80  201 1    
   160   81  202 1    
   161   81  203 1    
   162   81  204 1    
   163   82   83 2    
   164   82   84 am   BACKBONE|DICT|INTERRES
   165   84   85 1    
   166   84  205 1    
   167   85   86 1    
   168   85   87 1    
   169   85  206 1    
   170   86  207 1    
   171   86  208 1    
   172   86  209 1    
   173   87   88 2    
   174   87   89 am   BACKBONE|DICT|INTERRES
   175   89   90 1    
   176   89  210 1    
   177   90   91 1    
   178   90   92 1    
   179   90  211 1    
   180   91  212 1    
   181   91  213 1    
   182   91  214 1    
   183   92   93 2    
   184   92   94 am   BACKBONE|DICT|INTERRES
   185   94   95 1    
   186   94  215 1    
   187   95   96 1    
   188   95   97 1    
   189   95  216 1    
   190   96  217 1    
   191   96  218 1    
   192   96  219 1    
   193   97   98 2    
   194   97   99 am   BACKBONE|DICT|INTERRES
   195   99  100 1    
   196   99  220 1    
   197  100  101 1    
   198  100  102 1    
   199  100  221 1    
   200  101  222 1    
   201  101  223 1    
   202  101  224 1    
   203  102  103 2    
   204  102  104 am   BACKBONE|DICT|INTERRES
   205  104  105 1    
   206  104  225 1    
   207  105  106 1    
   208  105  107 1    
   209  105  226 1    
   210  106  227 1    
   211  106  228 1    
   212  106  229 1    
   213  107  108 2    
   214  107  109 am   BACKBONE|DICT|INTERRES
   215  109  110 1    
   216  109  230 1    
   217  110  111 1    
   218  110  112 1    
   219  110  231 1    
   220  111  232 1    
   221  111  233 1    
   222  111  234 1    
   223  112  113 2    
   224  112  114 am   BACKBONE|DICT|INTERRES
   225  114  115 1    
   226  114  235 1    
   227  115  116 1    
   228  115  117 1    
   229  115  236 1    
   230  116  237 1    
   231  116  238 1    
   232  116  239 1    
   233  117  118 2    
   234  117  119 am   BACKBONE|DICT|INTERRES
   235  119  120 1    
   236  119  240 1    
   237  120  121 1    
   238  120  124 1    
   239  120  241 1    
   240  121  122 am   BACKBONE|DICT|INTERRES
   241  121  123 2    
   242  122  242 1    
   243  122  243 1    
   244  124  125 1    
   245  124  244 1    
   246  124  245 1    
   247  125  126 1    
   248  126  246 1    
   249  126  247 1    
@<TRIPOS>SUBSTRUCTURE
     1 UNK         1 GROUP             0       ****    0 ROOT    
