@<TRIPOS>MOLECULE
3R540
247   249    1
SMALL
USER_CHARGES


@<TRIPOS>ATOM
      1 CA          2.9507  -12.6388  -47.7011 C.3       0 UNK        -0.1800 
      2 C           1.5488  -13.1808  -47.4681 C.2       0 UNK         0.5000 
      3 O           1.0501  -13.1295  -46.3445 O.2       0 UNK        -0.5000 
      4 N           0.8974  -13.6804  -48.5274 N.am      1 UNK        -0.5000 
      5 CA         -0.4192  -14.3389  -48.4956 C.3       1 UNK         0.1400 
      6 C6         -0.7752  -15.0139  -49.8409 C.3       23 UNK        -0.0398 
      7 S7          0.4820  -16.2202  -50.3733 S.3       23 UNK        -0.2404 
      8 C8         -0.0615  -17.7054  -49.4743 C.3       23 UNK        -0.0205 
      9 C9          0.6411  -18.9367  -50.0158 C.ar      23 UNK        -0.0193 
     10 C10         0.0883  -19.6368  -51.0905 C.ar      23 UNK        -0.1150 
     11 C11         0.7420  -20.7453  -51.6302 C.ar      23 UNK        -0.0193 
     12 C12         1.9487  -21.1715  -51.0678 C.ar      23 UNK        -0.1150 
     13 C13         2.4928  -20.5032  -49.9652 C.ar      23 UNK        -0.0193 
     14 C14         1.8434  -19.3748  -49.4541 C.ar      23 UNK        -0.1150 
     15 C15         3.7597  -21.0225  -49.3033 C.3       23 UNK        -0.0205 
     16 S16         3.3653  -21.8100  -47.7118 S.3       23 UNK        -0.2404 
     17 C17         4.7696  -22.9549  -47.5003 C.3       23 UNK        -0.0398 
     18 CA          4.6355  -23.8826  -46.2637 C.3       11 UNK         0.1400 
     19 N           4.4436  -23.1057  -45.0340 N.am      11 UNK        -0.5000 
     20 C           5.2294  -23.1514  -43.9517 C.2       10 UNK         0.5000 
     21 O           6.2195  -23.8766  -43.8504 O.2       10 UNK        -0.5000 
     22 CA          4.8427  -22.2330  -42.7760 C.3       10 UNK         0.1400 
     23 CB          5.5937  -20.8964  -42.8697 C.3       10 UNK        -0.1800 
     24 N           3.4032  -21.9731  -42.6975 N.am      10 UNK        -0.5000 
     25 C           2.4900  -22.8885  -42.3404 C.2       9 UNK         0.5000 
     26 O           2.7731  -24.0477  -42.0376 O.2       9 UNK        -0.5000 
     27 CA          1.0106  -22.4568  -42.3410 C.3       9 UNK         0.1400 
     28 CB          0.5583  -22.1132  -40.9144 C.3       9 UNK        -0.1800 
     29 N           0.7187  -21.3368  -43.2427 N.am      9 UNK        -0.5000 
     30 C           0.8197  -21.4134  -44.5776 C.2       8 UNK         0.5000 
     31 O           1.1525  -22.4422  -45.1645 O.2       8 UNK        -0.5000 
     32 CA          0.5330  -20.1504  -45.4086 C.3       8 UNK         0.1400 
     33 CB         -0.9061  -20.1558  -45.9325 C.3       8 UNK        -0.1800 
     34 N           0.7813  -18.8816  -44.7257 N.am      8 UNK        -0.5000 
     35 C           1.9849  -18.4518  -44.3237 C.2       7 UNK         0.5000 
     36 O           3.0043  -19.1409  -44.3557 O.2       7 UNK        -0.5000 
     37 CA          2.0535  -17.0106  -43.7968 C.3       7 UNK         0.1400 
     38 CB          1.9089  -16.0038  -44.9486 C.3       7 UNK        -0.1800 
     39 N           1.0043  -16.7756  -42.8081 N.am      7 UNK        -0.5000 
     40 C           1.1781  -16.8899  -41.4843 C.2       6 UNK         0.5000 
     41 O           2.2719  -17.0775  -40.9504 O.2       6 UNK        -0.5000 
     42 CA         -0.0828  -16.8104  -40.5992 C.3       6 UNK         0.1400 
     43 CB         -0.2596  -15.4002  -40.0199 C.3       6 UNK        -0.1800 
     44 N          -1.3113  -17.2107  -41.2901 N.am      6 UNK        -0.5000 
     45 C          -1.5495  -18.4542  -41.7315 C.2       5 UNK         0.5000 
     46 O          -0.7522  -19.3814  -41.6092 O.2       5 UNK        -0.5000 
     47 CA         -2.8701  -18.7052  -42.4788 C.3       5 UNK         0.1400 
     48 CB         -3.9615  -19.1669  -41.5029 C.3       5 UNK        -0.1800 
     49 N          -3.3623  -17.5565  -43.2403 N.am      5 UNK        -0.5000 
     50 C          -2.6971  -16.8975  -44.1989 C.2       4 UNK         0.5000 
     51 O          -1.5405  -17.1642  -44.5374 O.2       4 UNK        -0.5000 
     52 CA         -3.4323  -15.7282  -44.8830 C.3       4 UNK         0.1400 
     53 CB         -4.8930  -15.5291  -44.4185 C.3       4 UNK        -0.1800 
     54 N          -2.6885  -14.4742  -44.7578 N.am      4 UNK        -0.5000 
     55 C          -2.2928  -13.8621  -43.6298 C.2       3 UNK         0.5000 
     56 O          -2.5085  -14.3090  -42.5021 O.2       3 UNK        -0.5000 
     57 CA         -1.5224  -12.5303  -43.7735 C.3       3 UNK         0.1400 
     58 CB         -0.0933  -12.6665  -43.2252 C.3       3 UNK        -0.1800 
     59 N          -1.4493  -12.0590  -45.1584 N.am      3 UNK        -0.5000 
     60 C          -2.4241  -11.3911  -45.7951 C.2       2 UNK         0.5000 
     61 O          -3.4575  -11.0093  -45.2454 O.2       2 UNK        -0.5000 
     62 CA         -2.2360  -11.1380  -47.3080 C.3       2 UNK         0.1400 
     63 CB         -1.6850   -9.7253  -47.5527 C.3       2 UNK        -0.1800 
     64 N          -1.3516  -12.1114  -47.9545 N.am      2 UNK        -0.5000 
     65 C          -1.5774  -13.4313  -48.0253 C.2       1 UNK         0.5000 
     66 O          -2.6379  -13.9497  -47.6789 O.2       1 UNK        -0.5000 
     67 C           3.5411  -24.9626  -46.4436 C.2       11 UNK         0.5000 
     68 O           3.6010  -25.7180  -47.4148 O.2       11 UNK        -0.5000 
     69 N           2.5794  -25.0282  -45.5075 N.am      12 UNK        -0.5000 
     70 CA          1.4018  -25.9057  -45.4794 C.3       12 UNK         0.1400 
     71 CB          1.8204  -27.3778  -45.2839 C.3       12 UNK        -0.1800 
     72 C           0.4641  -25.6919  -46.6891 C.2       12 UNK         0.5000 
     73 O          -0.0326  -26.6564  -47.2752 O.2       12 UNK        -0.5000 
     74 N           0.2609  -24.4209  -47.0499 N.am      13 UNK        -0.5000 
     75 CA         -0.5433  -23.9816  -48.1868 C.3       13 UNK         0.1400 
     76 CB          0.0542  -22.6724  -48.7118 C.3       13 UNK        -0.1800 
     77 C          -2.0387  -23.8296  -47.8521 C.2       13 UNK         0.5000 
     78 O          -2.4468  -23.9772  -46.6980 O.2       13 UNK        -0.5000 
     79 N          -2.8287  -23.5389  -48.8952 N.am      14 UNK        -0.5000 
     80 CA         -4.2906  -23.4448  -48.8716 C.3       14 UNK         0.1400 
     81 CB         -4.7912  -23.3897  -50.3216 C.3       14 UNK        -0.1800 
     82 C          -4.8596  -22.2621  -48.0608 C.2       14 UNK         0.5000 
     83 O          -6.0221  -22.3213  -47.6607 O.2       14 UNK        -0.5000 
     84 N          -4.0515  -21.2137  -47.8445 N.am      15 UNK        -0.5000 
     85 CA         -4.2753  -20.0401  -46.9830 C.3       15 UNK         0.1400 
     86 CB         -4.4941  -20.4730  -45.5196 C.3       15 UNK        -0.1800 
     87 C          -5.3763  -19.0507  -47.4153 C.2       15 UNK         0.5000 
     88 O          -5.2991  -17.8836  -47.0318 O.2       15 UNK        -0.5000 
     89 N          -6.3723  -19.5048  -48.1853 N.am      16 UNK        -0.5000 
     90 CA         -7.5225  -18.7117  -48.6323 C.3       16 UNK         0.1400 
     91 CB         -8.5587  -19.6547  -49.2632 C.3       16 UNK        -0.1800 
     92 C          -7.1654  -17.5705  -49.6070 C.2       16 UNK         0.5000 
     93 O          -7.9024  -16.5868  -49.6851 O.2       16 UNK        -0.5000 
     94 N          -6.0467  -17.7221  -50.3206 N.am      17 UNK        -0.5000 
     95 CA         -5.4582  -16.7742  -51.2584 C.3       17 UNK         0.1400 
     96 CB         -6.3007  -16.6750  -52.5517 C.3       17 UNK        -0.1800 
     97 C          -4.0148  -17.2324  -51.5303 C.2       17 UNK         0.5000 
     98 O          -3.4863  -18.0630  -50.7851 O.2       17 UNK        -0.5000 
     99 N          -3.4105  -16.6940  -52.5961 N.am      18 UNK        -0.5000 
    100 CA        -2.1092  -17.1041  -53.1201 C.3       18 UNK         0.1400 
    101 CB        -1.4673  -15.9010  -53.8393 C.3       18 UNK        -0.1800 
    102 C         -2.2446  -18.3676  -54.0042 C.2       18 UNK         0.5000 
    103 O         -2.9514  -19.3097  -53.6368 O.2       18 UNK        -0.5000 
    104 N         -1.5965  -18.3686  -55.1784 N.am      19 UNK        -0.5000 
    105 CA        -1.6162  -19.4565  -56.1650 C.3       19 UNK         0.1400 
    106 CB        -0.7168  -19.0759  -57.3498 C.3       19 UNK        -0.1800 
    107 C         -3.0259  -19.8406  -56.6591 C.2       19 UNK         0.5000 
    108 O         -3.2462  -20.9960  -57.0218 O.2       19 UNK        -0.5000 
    109 N         -3.9620  -18.8824  -56.6149 N.am      20 UNK        -0.5000 
    110 CA        -5.3821  -19.0693  -56.9110 C.3       20 UNK         0.1400 
    111 CB        -6.0782  -17.6997  -56.8837 C.3       20 UNK        -0.1800 
    112 C         -6.0948  -20.0508  -55.9580 C.2       20 UNK         0.5000 
    113 O         -7.0493  -20.7032  -56.3826 O.2       20 UNK        -0.5000 
    114 N         -5.6274  -20.1470  -54.7041 N.am      21 UNK        -0.5000 
    115 CA        -6.1329  -21.1073  -53.7237 C.3       21 UNK         0.1400 
    116 CB        -6.0394  -20.5146  -52.3110 C.3       21 UNK        -0.1800 
    117 C         -5.3808  -22.4440  -53.8077 C.2       21 UNK         0.5000 
    118 O         -6.0146  -23.4950  -53.7045 O.2       21 UNK        -0.5000 
    119 N         -4.0535  -22.3862  -53.9887 N.am      22 UNK        -0.5000 
    120 CA        -3.1935  -23.5759  -54.1138 C.3       22 UNK         0.1400 
    121 C         -3.4227  -24.3937  -55.4170 C.2       22 UNK         0.5000 
    122 N         -3.7400  -23.7658  -56.5422 N.am      22 UNK        -0.7600 
    123 O         -3.3127  -25.6166  -55.4047 O.2       22 UNK        -0.5000 
    124 C124       -1.6909  -23.2420  -53.9553 C.3       23 UNK        -0.0398 
    125 S125       -1.2901  -22.4891  -52.3438 S.3       23 UNK        -0.2404 
    126 C126        0.1401  -21.4710  -52.8218 C.3       23 UNK        -0.0205 
    127 H127        2.9937  -11.5831  -47.4335 H         1 UNK         0.0600 
    128 H128        3.2569  -12.7403  -48.7425 H         1 UNK         0.0600 
    129 H129        3.6665  -13.1785  -47.0811 H         1 UNK         0.0600 
    130 H130        1.3605  -13.6939  -49.4254 H         1 UNK         0.3000 
    131 H131       -0.3474  -15.1286  -47.7444 H         1 UNK         0.0600 
    132 H132       -1.7412  -15.5199  -49.7839 H         1 UNK         0.0800 
    133 H133       -0.8751  -14.2632  -50.6267 H         1 UNK         0.0800 
    134 H134        0.1460  -17.5860  -48.4097 H         1 UNK         0.0800 
    135 H135       -1.1410  -17.8283  -49.5683 H         1 UNK         0.0800 
    136 H136       -0.8569  -19.3264  -51.5087 H         1 UNK         0.1150 
    137 H137        2.4478  -22.0425  -51.4684 H         1 UNK         0.1150 
    138 H138        2.2661  -18.8499  -48.6089 H         1 UNK         0.1150 
    139 H139        4.2610  -21.7379  -49.9568 H         1 UNK         0.0800 
    140 H140        4.4602  -20.2024  -49.1408 H         1 UNK         0.0800 
    141 H141        4.8931  -23.5440  -48.4107 H         1 UNK         0.0800 
    142 H142        5.6777  -22.3580  -47.4069 H         1 UNK         0.0800 
    143 H143        5.5701  -24.4427  -46.1947 H         1 UNK         0.0600 
    144 H144        3.6584  -22.4679  -45.0406 H         1 UNK         0.3000 
    145 H145        5.1489  -22.7298  -41.8529 H         1 UNK         0.0600 
    146 H146        5.3497  -20.2449  -42.0304 H         1 UNK         0.0600 
    147 H147        5.3531  -20.3634  -43.7901 H         1 UNK         0.0600 
    148 H148        6.6728  -21.0543  -42.8562 H         1 UNK         0.0600 
    149 H149        3.0913  -21.0486  -42.9675 H         1 UNK         0.3000 
    150 H150        0.4264  -23.3155  -42.6788 H         1 UNK         0.0600 
    151 H151        0.7825  -22.9268  -40.2233 H         1 UNK         0.0600 
    152 H152       -0.5179  -21.9456  -40.8730 H         1 UNK         0.0600 
    153 H153        1.0553  -21.2173  -40.5404 H         1 UNK         0.0600 
    154 H154        0.3971  -20.4762  -42.8098 H         1 UNK         0.3000 
    155 H155        1.1993  -20.1905  -46.2726 H         1 UNK         0.0600 
    156 H156       -1.1948  -21.1313  -46.3239 H         1 UNK         0.0600 
    157 H157       -1.0234  -19.4288  -46.7360 H         1 UNK         0.0600 
    158 H158       -1.6124  -19.9039  -45.1449 H         1 UNK         0.0600 
    159 H159       -0.0123  -18.2501  -44.6559 H         1 UNK         0.3000 
    160 H160        3.0394  -16.8646  -43.3502 H         1 UNK         0.0600 
    161 H161        0.9133  -16.0278  -45.3937 H         1 UNK         0.0600 
    162 H162        2.6290  -16.2066  -45.7423 H         1 UNK         0.0600 
    163 H163        2.0939  -14.9883  -44.5997 H         1 UNK         0.0600 
    164 H164        0.0632  -16.6636  -43.1646 H         1 UNK         0.3000 
    165 H165        0.0666  -17.4990  -39.7648 H         1 UNK         0.0600 
    166 H166       -1.0990  -15.3605  -39.3256 H         1 UNK         0.0600 
    167 H167        0.6305  -15.0863  -39.4732 H         1 UNK         0.0600 
    168 H168       -0.4390  -14.6669  -40.8040 H         1 UNK         0.0600 
    169 H169       -1.9924  -16.4850  -41.4727 H         1 UNK         0.3000 
    170 H170       -2.6894  -19.5167  -43.1837 H         1 UNK         0.0600 
    171 H171       -3.6332  -20.0373  -40.9328 H         1 UNK         0.0600 
    172 H172       -4.2197  -18.3843  -40.7885 H         1 UNK         0.0600 
    173 H173       -4.8702  -19.4526  -42.0332 H         1 UNK         0.0600 
    174 H174       -4.2937  -17.2399  -43.0138 H         1 UNK         0.3000 
    175 H175       -3.4552  -15.9705  -45.9463 H         1 UNK         0.0600 
    176 H176       -4.9609  -15.2734  -43.3605 H         1 UNK         0.0600 
    177 H177       -5.3688  -14.7255  -44.9807 H         1 UNK         0.0600 
    178 H178       -5.4882  -16.4273  -44.5883 H         1 UNK         0.0600 
    179 H179       -2.4639  -14.0345  -45.6420 H         1 UNK         0.3000 
    180 H180       -2.0442  -11.7821  -43.1734 H         1 UNK         0.0600 
    181 H181       -0.1033  -12.8339  -42.1489 H         1 UNK         0.0600 
    182 H182        0.4888  -11.7622  -43.4031 H         1 UNK         0.0600 
    183 H183        0.4356  -13.5016  -43.6847 H         1 UNK         0.0600 
    184 H184       -0.6209  -12.3404  -45.6764 H         1 UNK         0.3000 
    185 H185       -3.2183  -11.2122  -47.7788 H         1 UNK         0.0600 
    186 H186       -2.3341   -8.9702  -47.1072 H         1 UNK         0.0600 
    187 H187       -0.6914   -9.6009  -47.1201 H         1 UNK         0.0600 
    188 H188       -1.6182   -9.5063  -48.6185 H         1 UNK         0.0600 
    189 H189       -0.4473  -11.7729  -48.2494 H         1 UNK         0.3000 
    190 H190        2.6135  -24.3379  -44.7712 H         1 UNK         0.3000 
    191 H191        0.8277  -25.6097  -44.6001 H         1 UNK         0.0600 
    192 H192        0.9482  -28.0146  -45.1318 H         1 UNK         0.0600 
    193 H193        2.4607  -27.4919  -44.4092 H         1 UNK         0.0600 
    194 H194        2.3604  -27.7649  -46.1483 H         1 UNK         0.0600 
    195 H195        0.6649  -23.6883  -46.4710 H         1 UNK         0.3000 
    196 H196       -0.4693  -24.7246  -48.9839 H         1 UNK         0.0600 
    197 H197        0.2113  -21.9406  -47.9222 H         1 UNK         0.0600 
    198 H198        1.0216  -22.8752  -49.1671 H         1 UNK         0.0600 
    199 H199       -0.5668  -22.2040  -49.4737 H         1 UNK         0.0600 
    200 H200       -2.3991  -23.4231  -49.8025 H         1 UNK         0.3000 
    201 H201       -4.6742  -24.3587  -48.4134 H         1 UNK         0.0600 
    202 H202       -5.8793  -23.3254  -50.3626 H         1 UNK         0.0600 
    203 H203       -4.5020  -24.2837  -50.8744 H         1 UNK         0.0600 
    204 H204       -4.3849  -22.5263  -50.8493 H         1 UNK         0.0600 
    205 H205       -3.1393  -21.2565  -48.2751 H         1 UNK         0.3000 
    206 H206       -3.3492  -19.4684  -47.0254 H         1 UNK         0.0600 
    207 H207       -3.6909  -21.1213  -45.1700 H         1 UNK         0.0600 
    208 H208       -4.5305  -19.6068  -44.8594 H         1 UNK         0.0600 
    209 H209       -5.4334  -21.0114  -45.3919 H         1 UNK         0.0600 
    210 H210       -6.3943  -20.5008  -48.3734 H         1 UNK         0.3000 
    211 H211       -7.9731  -18.2536  -47.7495 H         1 UNK         0.0600 
    212 H212       -8.1575  -20.1673  -50.1375 H         1 UNK         0.0600 
    213 H213       -9.4450  -19.1050  -49.5829 H         1 UNK         0.0600 
    214 H214       -8.8866  -20.4128  -48.5516 H         1 UNK         0.0600 
    215 H215       -5.4569  -18.5250  -50.1385 H         1 UNK         0.3000 
    216 H216       -5.4135  -15.7957  -50.7767 H         1 UNK         0.0600 
    217 H217       -7.3542  -16.4973  -52.3378 H         1 UNK         0.0600 
    218 H218       -6.2331  -17.5820  -53.1521 H         1 UNK         0.0600 
    219 H219       -5.9668  -15.8462  -53.1761 H         1 UNK         0.0600 
    220 H220       -3.9262  -16.0324  -53.1570 H         1 UNK         0.3000 
    221 H221       -1.4614  -17.3628  -52.2842 H         1 UNK         0.0600 
    222 H222       -0.4461  -16.1222  -54.1521 H         1 UNK         0.0600 
    223 H223       -2.0356  -15.5999  -54.7203 H         1 UNK         0.0600 
    224 H224       -1.4088  -15.0389  -53.1744 H         1 UNK         0.0600 
    225 H225       -1.0434  -17.5591  -55.4199 H         1 UNK         0.3000 
    226 H226       -1.1924  -20.3410  -55.6885 H         1 UNK         0.0600 
    227 H227        0.3094  -18.9006  -57.0263 H         1 UNK         0.0600 
    228 H228       -0.6892  -19.8746  -58.0923 H         1 UNK         0.0600 
    229 H229       -1.0712  -18.1740  -57.8505 H         1 UNK         0.0600 
    230 H230       -3.6830  -17.9633  -56.3070 H         1 UNK         0.3000 
    231 H231       -5.4607  -19.4759  -57.9214 H         1 UNK         0.0600 
    232 H232       -7.1374  -17.7949  -57.1269 H         1 UNK         0.0600 
    233 H233       -5.6393  -17.0184  -57.6128 H         1 UNK         0.0600 
    234 H234       -6.0084  -17.2322  -55.9006 H         1 UNK         0.0600 
    235 H235       -4.8026  -19.6203  -54.4382 H         1 UNK         0.3000 
    236 H236       -7.1882  -21.3104  -53.9189 H         1 UNK         0.0600 
    237 H237       -6.6812  -19.6408  -52.2187 H         1 UNK         0.0600 
    238 H238       -6.3775  -21.2319  -51.5637 H         1 UNK         0.0600 
    239 H239       -5.0200  -20.2236  -52.0551 H         1 UNK         0.0600 
    240 H240       -3.5964  -21.4845  -54.0205 H         1 UNK         0.3000 
    241 H241       -3.4577  -24.2420  -53.2898 H         1 UNK         0.0600 
    242 H242       -3.7412  -22.7501  -56.5957 H         1 UNK         0.3800 
    243 H243       -3.8925  -24.3035  -57.3801 H         1 UNK         0.3800 
    244 H244       -1.3726  -22.5768  -54.7590 H         1 UNK         0.0800 
    245 H245       -1.0858  -24.1457  -54.0500 H         1 UNK         0.0800 
    246 H246       -0.1693  -20.7369  -53.5657 H         1 UNK         0.0800 
    247 H247        0.8894  -22.1033  -53.3008 H         1 UNK         0.0800 
@<TRIPOS>BOND
     1    1    2 1    
     2    1  127 1    
     3    1  128 1    
     4    1  129 1    
     5    2    3 2    
     6    2    4 am   BACKBONE|DICT|INTERRES
     7    4    5 1    
     8    4  130 1    
     9    5    6 1    
    10    5   65 1    
    11    5  131 1    
    12    6    7 1    
    13    6  132 1    
    14    6  133 1    
    15    7    8 1    
    16    8    9 1    
    17    8  134 1    
    18    8  135 1    
    19    9   10 ar   
    20    9   14 ar   
    21   10   11 ar   
    22   10  136 1    
    23   11   12 ar   
    24   11  126 1    
    25   12   13 ar   
    26   12  137 1    
    27   13   14 ar   
    28   13   15 1    
    29   14  138 1    
    30   15   16 1    
    31   15  139 1    
    32   15  140 1    
    33   16   17 1    
    34   17   18 1    
    35   17  141 1    
    36   17  142 1    
    37   18   19 1    
    38   18   67 1    
    39   18  143 1    
    40   19   20 am   BACKBONE|DICT|INTERRES
    41   19  144 1    
    42   20   21 2    
    43   20   22 1    
    44   22   23 1    
    45   22   24 1    
    46   22  145 1    
    47   23  146 1    
    48   23  147 1    
    49   23  148 1    
    50   24   25 am   BACKBONE|DICT|INTERRES
    51   24  149 1    
    52   25   26 2    
    53   25   27 1    
    54   27   28 1    
    55   27   29 1    
    56   27  150 1    
    57   28  151 1    
    58   28  152 1    
    59   28  153 1    
    60   29   30 am   BACKBONE|DICT|INTERRES
    61   29  154 1    
    62   30   31 2    
    63   30   32 1    
    64   32   33 1    
    65   32   34 1    
    66   32  155 1    
    67   33  156 1    
    68   33  157 1    
    69   33  158 1    
    70   34   35 am   BACKBONE|DICT|INTERRES
    71   34  159 1    
    72   35   36 2    
    73   35   37 1    
    74   37   38 1    
    75   37   39 1    
    76   37  160 1    
    77   38  161 1    
    78   38  162 1    
    79   38  163 1    
    80   39   40 am   BACKBONE|DICT|INTERRES
    81   39  164 1    
    82   40   41 2    
    83   40   42 1    
    84   42   43 1    
    85   42   44 1    
    86   42  165 1    
    87   43  166 1    
    88   43  167 1    
    89   43  168 1    
    90   44   45 am   BACKBONE|DICT|INTERRES
    91   44  169 1    
    92   45   46 2    
    93   45   47 1    
    94   47   48 1    
    95   47   49 1    
    96   47  170 1    
    97   48  171 1    
    98   48  172 1    
    99   48  173 1    
   100   49   50 am   BACKBONE|DICT|INTERRES
   101   49  174 1    
   102   50   51 2    
   103   50   52 1    
   104   52   53 1    
   105   52   54 1    
   106   52  175 1    
   107   53  176 1    
   108   53  177 1    
   109   53  178 1    
   110   54   55 am   BACKBONE|DICT|INTERRES
   111   54  179 1    
   112   55   56 2    
   113   55   57 1    
   114   57   58 1    
   115   57   59 1    
   116   57  180 1    
   117   58  181 1    
   118   58  182 1    
   119   58  183 1    
   120   59   60 am   BACKBONE|DICT|INTERRES
   121   59  184 1    
   122   60   61 2    
   123   60   62 1    
   124   62   63 1    
   125   62   64 1    
   126   62  185 1    
   127   63  186 1    
   128   63  187 1    
   129   63  188 1    
   130   64   65 am   BACKBONE|DICT|INTERRES
   131   64  189 1    
   132   65   66 2    
   133   67   68 2    
   134   67   69 am   BACKBONE|DICT|INTERRES
   135   69   70 1    
   136   69  190 1    
   137   70   71 1    
   138   70   72 1    
   139   70  191 1    
   140   71  192 1    
   141   71  193 1    
   142   71  194 1    
   143   72   73 2    
   144   72   74 am   BACKBONE|DICT|INTERRES
   145   74   75 1    
   146   74  195 1    
   147   75   76 1    
   148   75   77 1    
   149   75  196 1    
   150   76  197 1    
   151   76  198 1    
   152   76  199 1    
   153   77   78 2    
   154   77   79 am   BACKBONE|DICT|INTERRES
   155   79   80 1    
   156   79  200 1    
   157   80   81 1    
   158   80   82 1    
   159   80  201 1    
   160   81  202 1    
   161   81  203 1    
   162   81  204 1    
   163   82   83 2    
   164   82   84 am   BACKBONE|DICT|INTERRES
   165   84   85 1    
   166   84  205 1    
   167   85   86 1    
   168   85   87 1    
   169   85  206 1    
   170   86  207 1    
   171   86  208 1    
   172   86  209 1    
   173   87   88 2    
   174   87   89 am   BACKBONE|DICT|INTERRES
   175   89   90 1    
   176   89  210 1    
   177   90   91 1    
   178   90   92 1    
   179   90  211 1    
   180   91  212 1    
   181   91  213 1    
   182   91  214 1    
   183   92   93 2    
   184   92   94 am   BACKBONE|DICT|INTERRES
   185   94   95 1    
   186   94  215 1    
   187   95   96 1    
   188   95   97 1    
   189   95  216 1    
   190   96  217 1    
   191   96  218 1    
   192   96  219 1    
   193   97   98 2    
   194   97   99 am   BACKBONE|DICT|INTERRES
   195   99  100 1    
   196   99  220 1    
   197  100  101 1    
   198  100  102 1    
   199  100  221 1    
   200  101  222 1    
   201  101  223 1    
   202  101  224 1    
   203  102  103 2    
   204  102  104 am   BACKBONE|DICT|INTERRES
   205  104  105 1    
   206  104  225 1    
   207  105  106 1    
   208  105  107 1    
   209  105  226 1    
   210  106  227 1    
   211  106  228 1    
   212  106  229 1    
   213  107  108 2    
   214  107  109 am   BACKBONE|DICT|INTERRES
   215  109  110 1    
   216  109  230 1    
   217  110  111 1    
   218  110  112 1    
   219  110  231 1    
   220  111  232 1    
   221  111  233 1    
   222  111  234 1    
   223  112  113 2    
   224  112  114 am   BACKBONE|DICT|INTERRES
   225  114  115 1    
   226  114  235 1    
   227  115  116 1    
   228  115  117 1    
   229  115  236 1    
   230  116  237 1    
   231  116  238 1    
   232  116  239 1    
   233  117  118 2    
   234  117  119 am   BACKBONE|DICT|INTERRES
   235  119  120 1    
   236  119  240 1    
   237  120  121 1    
   238  120  124 1    
   239  120  241 1    
   240  121  122 am   BACKBONE|DICT|INTERRES
   241  121  123 2    
   242  122  242 1    
   243  122  243 1    
   244  124  125 1    
   245  124  244 1    
   246  124  245 1    
   247  125  126 1    
   248  126  246 1    
   249  126  247 1    
@<TRIPOS>SUBSTRUCTURE
     1 UNK         1 GROUP             0       ****    0 ROOT    
