@<TRIPOS>MOLECULE
3R540
247   249    1
SMALL
USER_CHARGES


@<TRIPOS>ATOM
      1 CA          2.8708  -18.0040  -46.0044 C.3       0 UNK        -0.1800 
      2 C           3.0778  -16.9401  -47.0699 C.2       0 UNK         0.5000 
      3 O           3.1811  -17.2724  -48.2503 O.2       0 UNK        -0.5000 
      4 N           3.1296  -15.6704  -46.6406 N.am      1 UNK        -0.5000 
      5 CA          3.3000  -14.4530  -47.4521 C.3       1 UNK         0.1400 
      6 C6          2.1968  -14.2992  -48.5362 C.3       23 UNK        -0.0398 
      7 S7          0.5257  -14.1729  -47.8133 S.3       23 UNK        -0.2404 
      8 C8         -0.4971  -14.5085  -49.2802 C.3       23 UNK        -0.0205 
      9 C9         -1.1238  -15.8960  -49.2527 C.ar      23 UNK        -0.0193 
     10 C10        -2.4920  -16.0322  -48.9957 C.ar      23 UNK        -0.1150 
     11 C11        -3.1034  -17.2865  -49.0554 C.ar      23 UNK        -0.0193 
     12 C12        -2.3336  -18.4143  -49.3394 C.ar      23 UNK        -0.1150 
     13 C13        -0.9657  -18.2968  -49.5928 C.ar      23 UNK        -0.0193 
     14 C14        -0.3634  -17.0344  -49.5479 C.ar      23 UNK        -0.1150 
     15 C15        -0.1695  -19.5339  -49.9821 C.3       23 UNK        -0.0205 
     16 S16         1.0132  -20.0627  -48.7063 S.3       23 UNK        -0.2404 
     17 C17        -0.0622  -20.4084  -47.2789 C.3       23 UNK        -0.0398 
     18 CA         -0.1584  -21.9130  -46.9271 C.3       11 UNK         0.1400 
     19 N          -0.1133  -22.1127  -45.4712 N.am      11 UNK        -0.5000 
     20 C          -0.0924  -23.2877  -44.8250 C.2       10 UNK         0.5000 
     21 O          -0.0938  -24.3809  -45.3915 O.2       10 UNK        -0.5000 
     22 CA         -0.1443  -23.2233  -43.2902 C.3       10 UNK         0.1400 
     23 CB          1.2513  -22.9562  -42.7059 C.3       10 UNK        -0.1800 
     24 N          -1.0761  -22.1816  -42.8523 N.am      10 UNK        -0.5000 
     25 C          -2.3968  -22.3664  -42.7092 C.2       9 UNK         0.5000 
     26 O          -2.9421  -23.4651  -42.8088 O.2       9 UNK        -0.5000 
     27 CA         -3.2652  -21.1219  -42.4264 C.3       9 UNK         0.1400 
     28 CB         -3.4643  -20.9392  -40.9145 C.3       9 UNK        -0.1800 
     29 N          -2.7196  -19.8837  -42.9853 N.am      9 UNK        -0.5000 
     30 C          -2.5830  -19.6204  -44.2933 C.2       8 UNK         0.5000 
     31 O          -2.9671  -20.3765  -45.1834 O.2       8 UNK        -0.5000 
     32 CA         -1.8264  -18.3299  -44.6719 C.3       8 UNK         0.1400 
     33 CB         -2.8129  -17.1893  -44.9538 C.3       8 UNK        -0.1800 
     34 N          -0.8375  -17.9130  -43.6690 N.am      8 UNK        -0.5000 
     35 C           0.1873  -18.6734  -43.2455 C.2       7 UNK         0.5000 
     36 O           0.4283  -19.7839  -43.7219 O.2       7 UNK        -0.5000 
     37 CA          1.0558  -18.1613  -42.0773 C.3       7 UNK         0.1400 
     38 CB          2.5485  -18.1361  -42.4387 C.3       7 UNK        -0.1800 
     39 N           0.6597  -16.8412  -41.5921 N.am      7 UNK        -0.5000 
     40 C          -0.3592  -16.6009  -40.7548 C.2       6 UNK         0.5000 
     41 O          -1.0632  -17.4860  -40.2677 O.2       6 UNK        -0.5000 
     42 CA         -0.6650  -15.1220  -40.4404 C.3       6 UNK         0.1400 
     43 CB         -0.0201  -14.7119  -39.1080 C.3       6 UNK        -0.1800 
     44 N          -0.2167  -14.2017  -41.4902 N.am      6 UNK        -0.5000 
     45 C          -0.6997  -14.1710  -42.7412 C.2       5 UNK         0.5000 
     46 O          -1.6182  -14.8914  -43.1270 O.2       5 UNK        -0.5000 
     47 CA         -0.0146  -13.2151  -43.7352 C.3       5 UNK         0.1400 
     48 CB         -0.7924  -11.8961  -43.8455 C.3       5 UNK        -0.1800 
     49 N           1.3745  -12.9237  -43.3757 N.am      5 UNK        -0.5000 
     50 C           2.3893  -13.7917  -43.4612 C.2       4 UNK         0.5000 
     51 O           2.2633  -14.9382  -43.8946 O.2       4 UNK        -0.5000 
     52 CA          3.7704  -13.2775  -43.0042 C.3       4 UNK         0.1400 
     53 CB          4.8571  -14.3644  -43.0908 C.3       4 UNK        -0.1800 
     54 N           4.1999  -12.1262  -43.7950 N.am      4 UNK        -0.5000 
     55 C           3.7382  -10.8733  -43.7114 C.2       3 UNK         0.5000 
     56 O           2.9154  -10.5108  -42.8692 O.2       3 UNK        -0.5000 
     57 CA          4.2245   -9.8737  -44.7806 C.3       3 UNK         0.1400 
     58 CB          5.5951   -9.2760  -44.4093 C.3       3 UNK        -0.1800 
     59 N           4.2132  -10.4131  -46.1516 N.am      3 UNK        -0.5000 
     60 C           4.9728  -11.3847  -46.6761 C.2       2 UNK         0.5000 
     61 O           5.8650  -11.9705  -46.0582 O.2       2 UNK        -0.5000 
     62 CA          4.6521  -11.7894  -48.1260 C.3       2 UNK         0.1400 
     63 CB          5.2613  -10.7787  -49.1099 C.3       2 UNK        -0.1800 
     64 N           5.1911  -13.1172  -48.4346 N.am      2 UNK        -0.5000 
     65 C           4.7236  -14.3211  -48.0677 C.2       1 UNK         0.5000 
     66 O           5.4245  -15.3189  -48.2372 O.2       1 UNK        -0.5000 
     67 C          -1.3842  -22.5833  -47.5948 C.2       11 UNK         0.5000 
     68 O          -1.2987  -23.0246  -48.7434 O.2       11 UNK        -0.5000 
     69 N          -2.4815  -22.7077  -46.8333 N.am      12 UNK        -0.5000 
     70 CA         -3.6883  -23.4729  -47.1482 C.3       12 UNK         0.1400 
     71 CB         -4.6806  -23.3561  -45.9833 C.3       12 UNK        -0.1800 
     72 C          -3.4263  -24.9538  -47.4842 C.2       12 UNK         0.5000 
     73 O          -4.1491  -25.5180  -48.3049 O.2       12 UNK        -0.5000 
     74 N          -2.3914  -25.5416  -46.8716 N.am      13 UNK        -0.5000 
     75 CA         -1.9220  -26.8940  -47.1536 C.3       13 UNK         0.1400 
     76 CB         -1.6340  -27.6170  -45.8280 C.3       13 UNK        -0.1800 
     77 C          -0.6664  -26.8578  -48.0382 C.2       13 UNK         0.5000 
     78 O          -0.6154  -27.5647  -49.0446 O.2       13 UNK        -0.5000 
     79 N           0.3210  -26.0360  -47.6525 N.am      14 UNK        -0.5000 
     80 CA          1.6648  -26.0068  -48.2367 C.3       14 UNK         0.1400 
     81 CB          2.5827  -25.1491  -47.3524 C.3       14 UNK        -0.1800 
     82 C           1.7252  -25.5341  -49.7012 C.2       14 UNK         0.5000 
     83 O           2.6019  -25.9877  -50.4380 O.2       14 UNK        -0.5000 
     84 N           0.8015  -24.6521  -50.1006 N.am      15 UNK        -0.5000 
     85 CA          0.6738  -24.1382  -51.4664 C.3       15 UNK         0.1400 
     86 CB          1.2198  -22.7033  -51.5201 C.3       15 UNK        -0.1800 
     87 C          -0.7816  -24.2274  -51.9587 C.2       15 UNK         0.5000 
     88 O          -1.1645  -23.4959  -52.8746 O.2       15 UNK        -0.5000 
     89 N          -1.5739  -25.1108  -51.3312 N.am      16 UNK        -0.5000 
     90 CA         -2.9758  -25.4155  -51.6336 C.3       16 UNK         0.1400 
     91 CB         -3.0646  -26.2242  -52.9447 C.3       16 UNK        -0.1800 
     92 C          -3.8909  -24.1720  -51.6415 C.2       16 UNK         0.5000 
     93 O          -4.7528  -24.0555  -52.5122 O.2       16 UNK        -0.5000 
     94 N          -3.6625  -23.2450  -50.6979 N.am      17 UNK        -0.5000 
     95 CA         -4.3807  -21.9722  -50.5415 C.3       17 UNK         0.1400 
     96 CB         -5.8751  -22.2167  -50.2348 C.3       17 UNK        -0.1800 
     97 C          -4.1476  -21.0270  -51.7360 C.2       17 UNK         0.5000 
     98 O          -5.0903  -20.4095  -52.2367 O.2       17 UNK        -0.5000 
     99 N          -2.8787  -20.9735  -52.1710 N.am      18 UNK        -0.5000 
    100 CA        -2.3648  -20.2644  -53.3453 C.3       18 UNK         0.1400 
    101 CB        -2.5096  -18.7365  -53.1805 C.3       18 UNK        -0.1800 
    102 C         -2.9924  -20.8094  -54.6423 C.2       18 UNK         0.5000 
    103 O         -3.5061  -20.0409  -55.4545 O.2       18 UNK        -0.5000 
    104 N         -2.9760  -22.1442  -54.7817 N.am      19 UNK        -0.5000 
    105 CA        -3.6279  -22.9240  -55.8416 C.3       19 UNK         0.1400 
    106 CB        -2.9082  -22.7183  -57.1904 C.3       19 UNK        -0.1800 
    107 C         -5.1475  -22.6514  -55.9125 C.2       19 UNK         0.5000 
    108 O         -5.6883  -22.3763  -56.9849 O.2       19 UNK        -0.5000 
    109 N         -5.7897  -22.7053  -54.7382 N.am      20 UNK        -0.5000 
    110 CA        -7.2060  -22.4663  -54.4515 C.3       20 UNK         0.1400 
    111 CB        -8.0973  -23.4823  -55.1949 C.3       20 UNK        -0.1800 
    112 C         -7.6860  -21.0127  -54.6530 C.2       20 UNK         0.5000 
    113 O         -8.8888  -20.7674  -54.5396 O.2       20 UNK        -0.5000 
    114 N         -6.7739  -20.0612  -54.9063 N.am      21 UNK        -0.5000 
    115 CA        -7.0929  -18.6457  -55.1227 C.3       21 UNK         0.1400 
    116 CB        -5.8416  -17.8896  -55.5885 C.3       21 UNK        -0.1800 
    117 C         -7.7148  -17.9529  -53.8955 C.2       21 UNK         0.5000 
    118 O         -8.5317  -17.0472  -54.0698 O.2       21 UNK        -0.5000 
    119 N         -7.3510  -18.4042  -52.6881 N.am      22 UNK        -0.5000 
    120 CA        -7.9615  -17.9590  -51.4232 C.3       22 UNK         0.1400 
    121 C         -9.3279  -18.6395  -51.1041 C.2       22 UNK         0.5000 
    122 N         -9.8358  -19.5601  -51.9167 N.am      22 UNK        -0.7600 
    123 O         -9.9525  -18.3163  -50.0973 O.2       22 UNK        -0.5000 
    124 C124       -6.9853  -18.0783  -50.2252 C.3       23 UNK        -0.0398 
    125 S125       -5.4276  -17.1733  -50.4892 S.3       23 UNK        -0.2404 
    126 C126       -4.6051  -17.4244  -48.8867 C.3       23 UNK        -0.0205 
    127 H127        1.9246  -17.8401  -45.4901 H         1 UNK         0.0600 
    128 H128        3.6816  -17.9747  -45.2771 H         1 UNK         0.0600 
    129 H129        2.8502  -19.0004  -46.4455 H         1 UNK         0.0600 
    130 H130        2.9876  -15.4986  -45.6498 H         1 UNK         0.3000 
    131 H131        3.1826  -13.6398  -46.7364 H         1 UNK         0.0600 
    132 H132        2.3538  -13.4087  -49.1442 H         1 UNK         0.0800 
    133 H133        2.2248  -15.1323  -49.2384 H         1 UNK         0.0800 
    134 H134       -1.2755  -13.7458  -49.3320 H         1 UNK         0.0800 
    135 H135        0.0892  -14.3916  -50.1927 H         1 UNK         0.0800 
    136 H136       -3.0926  -15.1569  -48.7920 H         1 UNK         0.1150 
    137 H137       -2.8104  -19.3809  -49.4002 H         1 UNK         0.1150 
    138 H138        0.6923  -16.9392  -49.7595 H         1 UNK         0.1150 
    139 H139       -0.8401  -20.3652  -50.2012 H         1 UNK         0.0800 
    140 H140        0.3758  -19.3306  -50.9046 H         1 UNK         0.0800 
    141 H141       -1.0479  -19.9625  -47.4109 H         1 UNK         0.0800 
    142 H142        0.3941  -19.8602  -46.4547 H         1 UNK         0.0800 
    143 H143        0.7233  -22.4188  -47.3215 H         1 UNK         0.0600 
    144 H144       -0.0624  -21.2704  -44.9071 H         1 UNK         0.3000 
    145 H145       -0.4807  -24.1951  -42.9223 H         1 UNK         0.0600 
    146 H146        1.2213  -22.9222  -41.6168 H         1 UNK         0.0600 
    147 H147        1.9465  -23.7481  -42.9874 H         1 UNK         0.0600 
    148 H148        1.6714  -22.0141  -43.0584 H         1 UNK         0.0600 
    149 H149       -0.7028  -21.2421  -42.7996 H         1 UNK         0.3000 
    150 H150       -4.2421  -21.2939  -42.8833 H         1 UNK         0.0600 
    151 H151       -4.1473  -20.1161  -40.7031 H         1 UNK         0.0600 
    152 H152       -3.8899  -21.8370  -40.4643 H         1 UNK         0.0600 
    153 H153       -2.5214  -20.7316  -40.4067 H         1 UNK         0.0600 
    154 H154       -2.3753  -19.2029  -42.3232 H         1 UNK         0.3000 
    155 H155       -1.2860  -18.5218  -45.5971 H         1 UNK         0.0600 
    156 H156       -3.3500  -16.8888  -44.0535 H         1 UNK         0.0600 
    157 H157       -3.5538  -17.4872  -45.6971 H         1 UNK         0.0600 
    158 H158       -2.2976  -16.3140  -45.3500 H         1 UNK         0.0600 
    159 H159       -0.9788  -16.9998  -43.2545 H         1 UNK         0.3000 
    160 H160        0.9310  -18.8824  -41.2669 H         1 UNK         0.0600 
    161 H161        2.7688  -17.3758  -43.1852 H         1 UNK         0.0600 
    162 H162        2.8792  -19.0968  -42.8358 H         1 UNK         0.0600 
    163 H163        3.1589  -17.9226  -41.5613 H         1 UNK         0.0600 
    164 H164        1.1606  -16.0553  -41.9830 H         1 UNK         0.3000 
    165 H165       -1.7483  -15.0234  -40.3441 H         1 UNK         0.0600 
    166 H166       -0.2900  -13.6912  -38.8362 H         1 UNK         0.0600 
    167 H167       -0.3526  -15.3611  -38.2969 H         1 UNK         0.0600 
    168 H168        1.0682  -14.7723  -39.1518 H         1 UNK         0.0600 
    169 H169        0.5330  -13.5695  -41.2519 H         1 UNK         0.3000 
    170 H170       -0.0210  -13.6997  -44.7140 H         1 UNK         0.0600 
    171 H171       -1.8283  -12.0768  -44.1356 H         1 UNK         0.0600 
    172 H172       -0.8045  -11.3550  -42.8985 H         1 UNK         0.0600 
    173 H173       -0.3536  -11.2431  -44.6003 H         1 UNK         0.0600 
    174 H174        1.5824  -11.9852  -43.0489 H         1 UNK         0.3000 
    175 H175        3.6786  -12.9737  -41.9596 H         1 UNK         0.0600 
    176 H176        5.0125  -14.6988  -44.1175 H         1 UNK         0.0600 
    177 H177        5.8110  -13.9975  -42.7118 H         1 UNK         0.0600 
    178 H178        4.5873  -15.2385  -42.4963 H         1 UNK         0.0600 
    179 H179        4.8797  -12.3085  -44.5289 H         1 UNK         0.3000 
    180 H180        3.5060   -9.0523  -44.7847 H         1 UNK         0.0600 
    181 H181        6.3718  -10.0377  -44.3380 H         1 UNK         0.0600 
    182 H182        5.5479   -8.7723  -43.4430 H         1 UNK         0.0600 
    183 H183        5.9153   -8.5381  -45.1448 H         1 UNK         0.0600 
    184 H184        3.4996  -10.0109  -46.7443 H         1 UNK         0.3000 
    185 H185        3.5704  -11.7804  -48.2554 H         1 UNK         0.0600 
    186 H186        4.8679   -9.7755  -48.9403 H         1 UNK         0.0600 
    187 H187        6.3467  -10.7251  -49.0132 H         1 UNK         0.0600 
    188 H188        5.0300  -11.0447  -50.1416 H         1 UNK         0.0600 
    189 H189        6.1213  -13.0986  -48.8251 H         1 UNK         0.3000 
    190 H190       -2.4939  -22.2112  -45.9493 H         1 UNK         0.3000 
    191 H191       -4.1502  -23.0124  -48.0154 H         1 UNK         0.0600 
    192 H192       -4.9168  -22.3144  -45.7653 H         1 UNK         0.0600 
    193 H193       -5.6194  -23.8590  -46.2190 H         1 UNK         0.0600 
    194 H194       -4.2862  -23.8098  -45.0744 H         1 UNK         0.0600 
    195 H195       -1.8234  -24.9936  -46.2352 H         1 UNK         0.3000 
    196 H196       -2.6883  -27.4641  -47.6832 H         1 UNK         0.0600 
    197 H197       -1.2701  -28.6296  -46.0065 H         1 UNK         0.0600 
    198 H198       -2.5370  -27.6981  -45.2228 H         1 UNK         0.0600 
    199 H199       -0.8815  -27.0966  -45.2341 H         1 UNK         0.0600 
    200 H200        0.1889  -25.4765  -46.8127 H         1 UNK         0.3000 
    201 H201        2.0464  -27.0298  -48.2161 H         1 UNK         0.0600 
    202 H202        2.6026  -25.5192  -46.3272 H         1 UNK         0.0600 
    203 H203        2.2617  -24.1088  -47.3259 H         1 UNK         0.0600 
    204 H204        3.6083  -25.1650  -47.7233 H         1 UNK         0.0600 
    205 H205        0.1192  -24.3034  -49.4347 H         1 UNK         0.3000 
    206 H206        1.2561  -24.7486  -52.1591 H         1 UNK         0.0600 
    207 H207        2.2572  -22.6618  -51.1882 H         1 UNK         0.0600 
    208 H208        1.1853  -22.2997  -52.5327 H         1 UNK         0.0600 
    209 H209        0.6377  -22.0453  -50.8800 H         1 UNK         0.0600 
    210 H210       -1.1552  -25.6710  -50.6013 H         1 UNK         0.3000 
    211 H211       -3.3356  -26.0550  -50.8271 H         1 UNK         0.0600 
    212 H212       -2.7436  -25.6359  -53.8047 H         1 UNK         0.0600 
    213 H213       -4.0864  -26.5546  -53.1353 H         1 UNK         0.0600 
    214 H214       -2.4410  -27.1169  -52.8987 H         1 UNK         0.0600 
    215 H215       -2.8884  -23.3991  -50.0606 H         1 UNK         0.3000 
    216 H216       -3.9421  -21.4728  -49.6776 H         1 UNK         0.0600 
    217 H217       -6.3563  -21.3067  -49.8834 H         1 UNK         0.0600 
    218 H218       -6.0076  -22.9691  -49.4579 H         1 UNK         0.0600 
    219 H219       -6.4232  -22.5537  -51.1144 H         1 UNK         0.0600 
    220 H220       -2.2177  -21.5995  -51.7336 H         1 UNK         0.3000 
    221 H221       -1.2988  -20.4893  -53.4039 H         1 UNK         0.0600 
    222 H222       -3.5507  -18.4310  -53.0794 H         1 UNK         0.0600 
    223 H223       -1.9762  -18.3836  -52.2993 H         1 UNK         0.0600 
    224 H224       -2.0954  -18.2086  -54.0400 H         1 UNK         0.0600 
    225 H225       -2.5001  -22.6855  -54.0646 H         1 UNK         0.3000 
    226 H226       -3.5171  -23.9732  -55.5648 H         1 UNK         0.0600 
    227 H227       -1.8453  -22.9450  -57.1073 H         1 UNK         0.0600 
    228 H228       -3.3212  -23.3754  -57.9564 H         1 UNK         0.0600 
    229 H229       -3.0054  -21.6941  -57.5514 H         1 UNK         0.0600 
    230 H230       -5.2500  -22.9904  -53.9228 H         1 UNK         0.3000 
    231 H231       -7.3173  -22.6613  -53.3845 H         1 UNK         0.0600 
    232 H232       -8.0984  -23.3103  -56.2715 H         1 UNK         0.0600 
    233 H233       -9.1317  -23.4192  -54.8553 H         1 UNK         0.0600 
    234 H234       -7.7624  -24.5043  -55.0172 H         1 UNK         0.0600 
    235 H235       -5.7963  -20.3195  -54.9500 H         1 UNK         0.3000 
    236 H236       -7.8290  -18.5993  -55.9280 H         1 UNK         0.0600 
    237 H237       -5.4270  -18.3312  -56.4948 H         1 UNK         0.0600 
    238 H238       -6.0749  -16.8479  -55.8119 H         1 UNK         0.0600 
    239 H239       -5.0648  -17.8935  -54.8242 H         1 UNK         0.0600 
    240 H240       -6.6467  -19.1332  -52.6211 H         1 UNK         0.3000 
    241 H241       -8.1931  -16.8971  -51.5254 H         1 UNK         0.0600 
    242 H242      -10.7239  -19.9780  -51.6887 H         1 UNK         0.3800 
    243 H243       -9.3670  -19.8283  -52.7740 H         1 UNK         0.3800 
    244 H244       -7.4463  -17.6926  -49.3141 H         1 UNK         0.0800 
    245 H245       -6.7486  -19.1233  -50.0349 H         1 UNK         0.0800 
    246 H246       -4.8457  -18.4128  -48.4917 H         1 UNK         0.0800 
    247 H247       -4.9785  -16.6983  -48.1631 H         1 UNK         0.0800 
@<TRIPOS>BOND
     1    1    2 1    
     2    1  127 1    
     3    1  128 1    
     4    1  129 1    
     5    2    3 2    
     6    2    4 am   BACKBONE|DICT|INTERRES
     7    4    5 1    
     8    4  130 1    
     9    5    6 1    
    10    5   65 1    
    11    5  131 1    
    12    6    7 1    
    13    6  132 1    
    14    6  133 1    
    15    7    8 1    
    16    8    9 1    
    17    8  134 1    
    18    8  135 1    
    19    9   10 ar   
    20    9   14 ar   
    21   10   11 ar   
    22   10  136 1    
    23   11   12 ar   
    24   11  126 1    
    25   12   13 ar   
    26   12  137 1    
    27   13   14 ar   
    28   13   15 1    
    29   14  138 1    
    30   15   16 1    
    31   15  139 1    
    32   15  140 1    
    33   16   17 1    
    34   17   18 1    
    35   17  141 1    
    36   17  142 1    
    37   18   19 1    
    38   18   67 1    
    39   18  143 1    
    40   19   20 am   BACKBONE|DICT|INTERRES
    41   19  144 1    
    42   20   21 2    
    43   20   22 1    
    44   22   23 1    
    45   22   24 1    
    46   22  145 1    
    47   23  146 1    
    48   23  147 1    
    49   23  148 1    
    50   24   25 am   BACKBONE|DICT|INTERRES
    51   24  149 1    
    52   25   26 2    
    53   25   27 1    
    54   27   28 1    
    55   27   29 1    
    56   27  150 1    
    57   28  151 1    
    58   28  152 1    
    59   28  153 1    
    60   29   30 am   BACKBONE|DICT|INTERRES
    61   29  154 1    
    62   30   31 2    
    63   30   32 1    
    64   32   33 1    
    65   32   34 1    
    66   32  155 1    
    67   33  156 1    
    68   33  157 1    
    69   33  158 1    
    70   34   35 am   BACKBONE|DICT|INTERRES
    71   34  159 1    
    72   35   36 2    
    73   35   37 1    
    74   37   38 1    
    75   37   39 1    
    76   37  160 1    
    77   38  161 1    
    78   38  162 1    
    79   38  163 1    
    80   39   40 am   BACKBONE|DICT|INTERRES
    81   39  164 1    
    82   40   41 2    
    83   40   42 1    
    84   42   43 1    
    85   42   44 1    
    86   42  165 1    
    87   43  166 1    
    88   43  167 1    
    89   43  168 1    
    90   44   45 am   BACKBONE|DICT|INTERRES
    91   44  169 1    
    92   45   46 2    
    93   45   47 1    
    94   47   48 1    
    95   47   49 1    
    96   47  170 1    
    97   48  171 1    
    98   48  172 1    
    99   48  173 1    
   100   49   50 am   BACKBONE|DICT|INTERRES
   101   49  174 1    
   102   50   51 2    
   103   50   52 1    
   104   52   53 1    
   105   52   54 1    
   106   52  175 1    
   107   53  176 1    
   108   53  177 1    
   109   53  178 1    
   110   54   55 am   BACKBONE|DICT|INTERRES
   111   54  179 1    
   112   55   56 2    
   113   55   57 1    
   114   57   58 1    
   115   57   59 1    
   116   57  180 1    
   117   58  181 1    
   118   58  182 1    
   119   58  183 1    
   120   59   60 am   BACKBONE|DICT|INTERRES
   121   59  184 1    
   122   60   61 2    
   123   60   62 1    
   124   62   63 1    
   125   62   64 1    
   126   62  185 1    
   127   63  186 1    
   128   63  187 1    
   129   63  188 1    
   130   64   65 am   BACKBONE|DICT|INTERRES
   131   64  189 1    
   132   65   66 2    
   133   67   68 2    
   134   67   69 am   BACKBONE|DICT|INTERRES
   135   69   70 1    
   136   69  190 1    
   137   70   71 1    
   138   70   72 1    
   139   70  191 1    
   140   71  192 1    
   141   71  193 1    
   142   71  194 1    
   143   72   73 2    
   144   72   74 am   BACKBONE|DICT|INTERRES
   145   74   75 1    
   146   74  195 1    
   147   75   76 1    
   148   75   77 1    
   149   75  196 1    
   150   76  197 1    
   151   76  198 1    
   152   76  199 1    
   153   77   78 2    
   154   77   79 am   BACKBONE|DICT|INTERRES
   155   79   80 1    
   156   79  200 1    
   157   80   81 1    
   158   80   82 1    
   159   80  201 1    
   160   81  202 1    
   161   81  203 1    
   162   81  204 1    
   163   82   83 2    
   164   82   84 am   BACKBONE|DICT|INTERRES
   165   84   85 1    
   166   84  205 1    
   167   85   86 1    
   168   85   87 1    
   169   85  206 1    
   170   86  207 1    
   171   86  208 1    
   172   86  209 1    
   173   87   88 2    
   174   87   89 am   BACKBONE|DICT|INTERRES
   175   89   90 1    
   176   89  210 1    
   177   90   91 1    
   178   90   92 1    
   179   90  211 1    
   180   91  212 1    
   181   91  213 1    
   182   91  214 1    
   183   92   93 2    
   184   92   94 am   BACKBONE|DICT|INTERRES
   185   94   95 1    
   186   94  215 1    
   187   95   96 1    
   188   95   97 1    
   189   95  216 1    
   190   96  217 1    
   191   96  218 1    
   192   96  219 1    
   193   97   98 2    
   194   97   99 am   BACKBONE|DICT|INTERRES
   195   99  100 1    
   196   99  220 1    
   197  100  101 1    
   198  100  102 1    
   199  100  221 1    
   200  101  222 1    
   201  101  223 1    
   202  101  224 1    
   203  102  103 2    
   204  102  104 am   BACKBONE|DICT|INTERRES
   205  104  105 1    
   206  104  225 1    
   207  105  106 1    
   208  105  107 1    
   209  105  226 1    
   210  106  227 1    
   211  106  228 1    
   212  106  229 1    
   213  107  108 2    
   214  107  109 am   BACKBONE|DICT|INTERRES
   215  109  110 1    
   216  109  230 1    
   217  110  111 1    
   218  110  112 1    
   219  110  231 1    
   220  111  232 1    
   221  111  233 1    
   222  111  234 1    
   223  112  113 2    
   224  112  114 am   BACKBONE|DICT|INTERRES
   225  114  115 1    
   226  114  235 1    
   227  115  116 1    
   228  115  117 1    
   229  115  236 1    
   230  116  237 1    
   231  116  238 1    
   232  116  239 1    
   233  117  118 2    
   234  117  119 am   BACKBONE|DICT|INTERRES
   235  119  120 1    
   236  119  240 1    
   237  120  121 1    
   238  120  124 1    
   239  120  241 1    
   240  121  122 am   BACKBONE|DICT|INTERRES
   241  121  123 2    
   242  122  242 1    
   243  122  243 1    
   244  124  125 1    
   245  124  244 1    
   246  124  245 1    
   247  125  126 1    
   248  126  246 1    
   249  126  247 1    
@<TRIPOS>SUBSTRUCTURE
     1 UNK         1 GROUP             0       ****    0 ROOT    
