@<TRIPOS>MOLECULE
3R540
247   249    1
SMALL
USER_CHARGES


@<TRIPOS>ATOM
      1 CA          6.5202  -14.1655  -44.1925 C.3       0 UNK        -0.1800 
      2 C           5.0853  -14.1931  -44.6956 C.2       0 UNK         0.5000 
      3 O           4.2592  -13.4102  -44.2298 O.2       0 UNK        -0.5000 
      4 N           4.7867  -15.0752  -45.6588 N.am      1 UNK        -0.5000 
      5 CA          3.4527  -15.2933  -46.2384 C.3       1 UNK         0.1400 
      6 C6          3.4680  -16.5102  -47.1972 C.3       23 UNK        -0.0398 
      7 S7          1.8223  -17.2311  -47.5167 S.3       23 UNK        -0.2404 
      8 C8          1.5271  -16.6386  -49.2143 C.3       23 UNK        -0.0205 
      9 C9          0.2583  -17.2209  -49.8197 C.ar      23 UNK        -0.0193 
     10 C10         0.3122  -17.9625  -51.0029 C.ar      23 UNK        -0.1150 
     11 C11        -0.8581  -18.4536  -51.5901 C.ar      23 UNK        -0.0193 
     12 C12        -2.0893  -18.2280  -50.9653 C.ar      23 UNK        -0.1150 
     13 C13        -2.1542  -17.4963  -49.7750 C.ar      23 UNK        -0.0193 
     14 C14        -0.9793  -16.9837  -49.2195 C.ar      23 UNK        -0.1150 
     15 C15        -3.4895  -17.2361  -49.0925 C.3       23 UNK        -0.0205 
     16 S16        -4.1679  -18.7214  -48.2844 S.3       23 UNK        -0.2404 
     17 C17        -2.8476  -19.1836  -47.1051 C.3       23 UNK        -0.0398 
     18 CA         -2.1475  -20.5013  -47.5145 C.3       11 UNK         0.1400 
     19 N          -0.8324  -20.6590  -46.8903 N.am      11 UNK        -0.5000 
     20 C           0.0160  -21.6626  -47.1620 C.2       10 UNK         0.5000 
     21 O          -0.1948  -22.5236  -48.0183 O.2       10 UNK        -0.5000 
     22 CA          1.2755  -21.7706  -46.2841 C.3       10 UNK         0.1400 
     23 CB          2.4772  -21.1060  -46.9682 C.3       10 UNK        -0.1800 
     24 N           1.1080  -21.2121  -44.9394 N.am      10 UNK        -0.5000 
     25 C           0.2393  -21.6493  -44.0160 C.2       9 UNK         0.5000 
     26 O          -0.5692  -22.5533  -44.2303 O.2       9 UNK        -0.5000 
     27 CA          0.2165  -20.9413  -42.6476 C.3       9 UNK         0.1400 
     28 CB          0.3869  -21.9384  -41.4850 C.3       9 UNK        -0.1800 
     29 N           1.1406  -19.8088  -42.5233 N.am      9 UNK        -0.5000 
     30 C           2.4800  -19.8124  -42.4530 C.2       8 UNK         0.5000 
     31 O           3.1779  -20.8223  -42.5364 O.2       8 UNK        -0.5000 
     32 CA          3.1494  -18.4379  -42.2663 C.3       8 UNK         0.1400 
     33 CB          3.3732  -17.7638  -43.6266 C.3       8 UNK        -0.1800 
     34 N           2.3639  -17.5443  -41.4137 N.am      8 UNK        -0.5000 
     35 C           2.1552  -17.7359  -40.1027 C.2       7 UNK         0.5000 
     36 O           2.6777  -18.6381  -39.4471 O.2       7 UNK        -0.5000 
     37 CA          1.1734  -16.7724  -39.4175 C.3       7 UNK         0.1400 
     38 CB          1.8763  -15.4636  -39.0287 C.3       7 UNK        -0.1800 
     39 N           0.0232  -16.4846  -40.2762 N.am      7 UNK        -0.5000 
     40 C          -1.0184  -17.3137  -40.4388 C.2       6 UNK         0.5000 
     41 O          -1.1366  -18.3864  -39.8466 O.2       6 UNK        -0.5000 
     42 CA         -2.1128  -16.8810  -41.4331 C.3       6 UNK         0.1400 
     43 CB         -3.2123  -16.0889  -40.7098 C.3       6 UNK        -0.1800 
     44 N          -1.5983  -16.0786  -42.5430 N.am      6 UNK        -0.5000 
     45 C          -0.8489  -16.5585  -43.5445 C.2       5 UNK         0.5000 
     46 O          -0.5234  -17.7407  -43.6513 O.2       5 UNK        -0.5000 
     47 CA         -0.3523  -15.5361  -44.5832 C.3       5 UNK         0.1400 
     48 CB         -1.4086  -15.3418  -45.6797 C.3       5 UNK        -0.1800 
     49 N          -0.0076  -14.2279  -44.0173 N.am      5 UNK        -0.5000 
     50 C           0.8829  -14.0111  -43.0416 C.2       4 UNK         0.5000 
     51 O           1.5383  -14.9059  -42.5029 O.2       4 UNK        -0.5000 
     52 CA          1.0489  -12.5509  -42.6011 C.3       4 UNK         0.1400 
     53 CB          1.5182  -12.4195  -41.1407 C.3       4 UNK        -0.1800 
     54 N           2.0023  -11.8919  -43.4836 N.am      4 UNK        -0.5000 
     55 C           1.9951  -10.5877  -43.7832 C.2       3 UNK         0.5000 
     56 O           1.1298   -9.8014  -43.3954 O.2       3 UNK        -0.5000 
     57 CA          3.1466  -10.0682  -44.6585 C.3       3 UNK         0.1400 
     58 CB          4.4209   -9.8806  -43.8191 C.3       3 UNK        -0.1800 
     59 N           3.4309  -10.9776  -45.7670 N.am      3 UNK        -0.5000 
     60 C           2.9550  -10.8333  -47.0115 C.2       2 UNK         0.5000 
     61 O           2.2254   -9.9042  -47.3602 O.2       2 UNK        -0.5000 
     62 CA          3.3702  -11.8910  -48.0554 C.3       2 UNK         0.1400 
     63 CB          4.5493  -11.3787  -48.8969 C.3       2 UNK        -0.1800 
     64 N           3.7368  -13.1789  -47.4650 N.am      2 UNK        -0.5000 
     65 C           2.8639  -14.0327  -46.9130 C.2       1 UNK         0.5000 
     66 O           1.6492  -13.8378  -46.8906 O.2       1 UNK        -0.5000 
     67 C          -3.0545  -21.7237  -47.2522 C.2       11 UNK         0.5000 
     68 O          -3.7193  -22.1951  -48.1717 O.2       11 UNK        -0.5000 
     69 N          -3.0367  -22.2425  -46.0185 N.am      12 UNK        -0.5000 
     70 CA         -3.7780  -23.4394  -45.6338 C.3       12 UNK         0.1400 
     71 CB         -4.0933  -23.3805  -44.1310 C.3       12 UNK        -0.1800 
     72 C          -2.9985  -24.7179  -45.9795 C.2       12 UNK         0.5000 
     73 O          -3.5753  -25.6456  -46.5461 O.2       12 UNK        -0.5000 
     74 N          -1.7100  -24.7478  -45.6151 N.am      13 UNK        -0.5000 
     75 CA         -0.8681  -25.9418  -45.6604 C.3       13 UNK         0.1400 
     76 CB          0.3825  -25.7120  -44.7979 C.3       13 UNK        -0.1800 
     77 C          -0.4716  -26.3891  -47.0775 C.2       13 UNK         0.5000 
     78 O          -0.4110  -27.5951  -47.3216 O.2       13 UNK        -0.5000 
     79 N          -0.1908  -25.4323  -47.9722 N.am      14 UNK        -0.5000 
     80 CA          0.2924  -25.7001  -49.3274 C.3       14 UNK         0.1400 
     81 CB          1.6122  -24.9464  -49.5642 C.3       14 UNK        -0.1800 
     82 C          -0.7532  -25.3180  -50.3829 C.2       14 UNK         0.5000 
     83 O          -1.0147  -26.1145  -51.2849 O.2       14 UNK        -0.5000 
     84 N          -1.3347  -24.1161  -50.2629 N.am      15 UNK        -0.5000 
     85 CA         -2.2705  -23.5706  -51.2522 C.3       15 UNK         0.1400 
     86 CB         -2.1855  -22.0387  -51.2415 C.3       15 UNK        -0.1800 
     87 C          -3.7258  -24.0478  -51.0747 C.2       15 UNK         0.5000 
     88 O          -4.5566  -23.7314  -51.9272 O.2       15 UNK        -0.5000 
     89 N          -4.0143  -24.7798  -49.9873 N.am      16 UNK        -0.5000 
     90 CA         -5.3057  -25.3895  -49.6431 C.3       16 UNK         0.1400 
     91 CB         -5.6261  -26.5459  -50.6124 C.3       16 UNK        -0.1800 
     92 C          -6.4552  -24.3652  -49.5188 C.2       16 UNK         0.5000 
     93 O          -7.5473  -24.5889  -50.0422 O.2       16 UNK        -0.5000 
     94 N          -6.1678  -23.2525  -48.8298 N.am      17 UNK        -0.5000 
     95 CA         -7.0034  -22.0617  -48.6479 C.3       17 UNK         0.1400 
     96 CB         -8.3305  -22.3936  -47.9335 C.3       17 UNK        -0.1800 
     97 C          -7.1799  -21.2817  -49.9658 C.2       17 UNK         0.5000 
     98 O          -8.2762  -20.8041  -50.2630 O.2       17 UNK        -0.5000 
     99 N          -6.0762  -21.1752  -50.7223 N.am      18 UNK        -0.5000 
    100 CA        -5.9472  -20.5316  -52.0327 C.3       18 UNK         0.1400 
    101 CB        -6.1205  -19.0036  -51.9146 C.3       18 UNK        -0.1800 
    102 C         -6.8710  -21.1687  -53.0902 C.2       18 UNK         0.5000 
    103 O         -7.6536  -20.4733  -53.7417 O.2       18 UNK        -0.5000 
    104 N         -6.7568  -22.4936  -53.2503 N.am      19 UNK        -0.5000 
    105 CA        -7.5220  -23.3144  -54.1927 C.3       19 UNK         0.1400 
    106 CB        -7.4838  -24.7767  -53.7163 C.3       19 UNK        -0.1800 
    107 C         -7.0096  -23.1525  -55.6399 C.2       19 UNK         0.5000 
    108 O         -6.5192  -24.1109  -56.2384 O.2       19 UNK        -0.5000 
    109 N         -7.0872  -21.9157  -56.1507 N.am      20 UNK        -0.5000 
    110 CA        -6.6177  -21.4299  -57.4562 C.3       20 UNK         0.1400 
    111 CB        -7.3242  -22.1666  -58.6129 C.3       20 UNK        -0.1800 
    112 C         -5.0810  -21.4217  -57.6228 C.2       20 UNK         0.5000 
    113 O         -4.5930  -21.1047  -58.7086 O.2       20 UNK        -0.5000 
    114 N         -4.3409  -21.7395  -56.5510 N.am      21 UNK        -0.5000 
    115 CA        -2.8778  -21.7296  -56.4997 C.3       21 UNK         0.1400 
    116 CB        -2.4225  -22.4722  -55.2340 C.3       21 UNK        -0.1800 
    117 C         -2.2915  -20.3054  -56.5331 C.2       21 UNK         0.5000 
    118 O         -1.2127  -20.1061  -57.0924 O.2       21 UNK        -0.5000 
    119 N         -3.0268  -19.3515  -55.9515 N.am      22 UNK        -0.5000 
    120 CA        -2.7476  -17.9112  -55.9558 C.3       22 UNK         0.1400 
    121 C         -4.0522  -17.1339  -56.2719 C.2       22 UNK         0.5000 
    122 N         -3.9476  -15.9415  -56.8417 N.am      22 UNK        -0.7600 
    123 O         -5.1583  -17.5884  -55.9837 O.2       22 UNK        -0.5000 
    124 C124       -2.1336  -17.4233  -54.6166 C.3       23 UNK        -0.0398 
    125 S125       -0.4681  -18.1042  -54.3084 S.3       23 UNK        -0.2404 
    126 C126       -0.7788  -19.2177  -52.9036 C.3       23 UNK        -0.0205 
    127 H127        6.9512  -13.1760  -44.3447 H         1 UNK         0.0600 
    128 H128        7.1458  -14.8939  -44.7087 H         1 UNK         0.0600 
    129 H129        6.5453  -14.3891  -43.1261 H         1 UNK         0.0600 
    130 H130        5.5195  -15.6764  -46.0083 H         1 UNK         0.3000 
    131 H131        2.7969  -15.5267  -45.3991 H         1 UNK         0.0600 
    132 H132        3.9671  -16.2627  -48.1357 H         1 UNK         0.0800 
    133 H133        4.0614  -17.3127  -46.7568 H         1 UNK         0.0800 
    134 H134        2.3895  -16.8877  -49.8346 H         1 UNK         0.0800 
    135 H135        1.4489  -15.5507  -49.2101 H         1 UNK         0.0800 
    136 H136        1.2630  -18.1381  -51.4863 H         1 UNK         0.1150 
    137 H137       -2.9971  -18.6153  -51.4048 H         1 UNK         0.1150 
    138 H138       -1.0204  -16.3985  -48.3137 H         1 UNK         0.1150 
    139 H139       -3.3963  -16.4409  -48.3511 H         1 UNK         0.0800 
    140 H140       -4.2063  -16.8766  -49.8318 H         1 UNK         0.0800 
    141 H141       -3.2722  -19.2523  -46.1019 H         1 UNK         0.0800 
    142 H142       -2.1177  -18.3772  -47.0585 H         1 UNK         0.0800 
    143 H143       -1.9546  -20.4496  -48.5863 H         1 UNK         0.0600 
    144 H144       -0.5795  -19.9983  -46.1703 H         1 UNK         0.3000 
    145 H145        1.4994  -22.8326  -46.1745 H         1 UNK         0.0600 
    146 H146        3.3940  -21.2692  -46.4014 H         1 UNK         0.0600 
    147 H147        2.6351  -21.5159  -47.9668 H         1 UNK         0.0600 
    148 H148        2.3351  -20.0318  -47.0734 H         1 UNK         0.0600 
    149 H149        1.7330  -20.4652  -44.6770 H         1 UNK         0.3000 
    150 H150       -0.7809  -20.5083  -42.5584 H         1 UNK         0.0600 
    151 H151       -0.4022  -22.6912  -41.4980 H         1 UNK         0.0600 
    152 H152        0.3347  -21.4308  -40.5215 H         1 UNK         0.0600 
    153 H153        1.3389  -22.4670  -41.5369 H         1 UNK         0.0600 
    154 H154        0.6825  -18.9037  -42.5513 H         1 UNK         0.3000 
    155 H155        4.1213  -18.5959  -41.7943 H         1 UNK         0.0600 
    156 H156        2.4304  -17.5805  -44.1436 H         1 UNK         0.0600 
    157 H157        3.9917  -18.3839  -44.2765 H         1 UNK         0.0600 
    158 H158        3.8819  -16.8079  -43.5055 H         1 UNK         0.0600 
    159 H159        1.9485  -16.7309  -41.8581 H         1 UNK         0.3000 
    160 H160        0.8173  -17.2463  -38.5001 H         1 UNK         0.0600 
    161 H161        2.3235  -14.9739  -39.8932 H         1 UNK         0.0600 
    162 H162        2.6776  -15.6530  -38.3135 H         1 UNK         0.0600 
    163 H163        1.1830  -14.7634  -38.5626 H         1 UNK         0.0600 
    164 H164        0.0781  -15.6505  -40.8429 H         1 UNK         0.3000 
    165 H165       -2.5613  -17.7876  -41.8456 H         1 UNK         0.0600 
    166 H166       -4.0298  -15.8405  -41.3868 H         1 UNK         0.0600 
    167 H167       -3.6366  -16.6697  -39.8896 H         1 UNK         0.0600 
    168 H168       -2.8289  -15.1584  -40.2891 H         1 UNK         0.0600 
    169 H169       -1.8229  -15.0946  -42.5379 H         1 UNK         0.3000 
    170 H170        0.5454  -15.9509  -45.0415 H         1 UNK         0.0600 
    171 H171       -1.7212  -16.2993  -46.0938 H         1 UNK         0.0600 
    172 H172       -2.3016  -14.8459  -45.2977 H         1 UNK         0.0600 
    173 H173       -1.0160  -14.7420  -46.5011 H         1 UNK         0.0600 
    174 H174       -0.4689  -13.4314  -44.4324 H         1 UNK         0.3000 
    175 H175        0.0718  -12.0705  -42.6873 H         1 UNK         0.0600 
    176 H176        2.5211  -12.8255  -41.0039 H         1 UNK         0.0600 
    177 H177        1.5372  -11.3763  -40.8253 H         1 UNK         0.0600 
    178 H178        0.8466  -12.9493  -40.4646 H         1 UNK         0.0600 
    179 H179        2.7634  -12.4787  -43.8239 H         1 UNK         0.3000 
    180 H180        2.8581   -9.0877  -45.0435 H         1 UNK         0.0600 
    181 H181        4.7729  -10.8226  -43.3970 H         1 UNK         0.0600 
    182 H182        4.2432   -9.1956  -42.9891 H         1 UNK         0.0600 
    183 H183        5.2283   -9.4611  -44.4194 H         1 UNK         0.0600 
    184 H184        3.9681  -11.8051  -45.5401 H         1 UNK         0.3000 
    185 H185        2.5189  -12.0480  -48.7213 H         1 UNK         0.0600 
    186 H186        4.3029  -10.4317  -49.3791 H         1 UNK         0.0600 
    187 H187        5.4383  -11.2146  -48.2867 H         1 UNK         0.0600 
    188 H188        4.8079  -12.0853  -49.6858 H         1 UNK         0.0600 
    189 H189        4.7206  -13.4035  -47.4331 H         1 UNK         0.3000 
    190 H190       -2.3970  -21.8663  -45.3319 H         1 UNK         0.3000 
    191 H191       -4.7293  -23.4679  -46.1698 H         1 UNK         0.0600 
    192 H192       -3.1870  -23.3316  -43.5260 H         1 UNK         0.0600 
    193 H193       -4.6519  -24.2624  -43.8150 H         1 UNK         0.0600 
    194 H194       -4.7016  -22.5081  -43.8919 H         1 UNK         0.0600 
    195 H195       -1.3161  -23.9362  -45.1432 H         1 UNK         0.3000 
    196 H196       -1.4334  -26.7602  -45.2090 H         1 UNK         0.0600 
    197 H197        1.0065  -26.6061  -44.7675 H         1 UNK         0.0600 
    198 H198        0.1135  -25.4681  -43.7699 H         1 UNK         0.0600 
    199 H199        0.9950  -24.8980  -45.1841 H         1 UNK         0.0600 
    200 H200       -0.2888  -24.4562  -47.7135 H         1 UNK         0.3000 
    201 H201        0.5046  -26.7634  -49.4572 H         1 UNK         0.0600 
    202 H202        2.3679  -25.2405  -48.8357 H         1 UNK         0.0600 
    203 H203        1.4884  -23.8656  -49.4979 H         1 UNK         0.0600 
    204 H204        2.0126  -25.1672  -50.5544 H         1 UNK         0.0600 
    205 H205       -1.0555  -23.5035  -49.5023 H         1 UNK         0.3000 
    206 H206       -1.9545  -23.8989  -52.2448 H         1 UNK         0.0600 
    207 H207       -1.1538  -21.6969  -51.3214 H         1 UNK         0.0600 
    208 H208       -2.7387  -21.6163  -52.0775 H         1 UNK         0.0600 
    209 H209       -2.6121  -21.6128  -50.3397 H         1 UNK         0.0600 
    210 H210       -3.2658  -24.9419  -49.3289 H         1 UNK         0.3000 
    211 H211       -5.1868  -25.8251  -48.6510 H         1 UNK         0.0600 
    212 H212       -5.7790  -26.1900  -51.6306 H         1 UNK         0.0600 
    213 H213       -6.5316  -27.0729  -50.3096 H         1 UNK         0.0600 
    214 H214       -4.8177  -27.2768  -50.6322 H         1 UNK         0.0600 
    215 H215       -5.2074  -23.1311  -48.5119 H         1 UNK         0.3000 
    216 H216       -6.4403  -21.4018  -47.9861 H         1 UNK         0.0600 
    217 H217       -8.8619  -21.4811  -47.6612 H         1 UNK         0.0600 
    218 H218       -8.1545  -22.9528  -47.0147 H         1 UNK         0.0600 
    219 H219       -8.9991  -22.9811  -48.5630 H         1 UNK         0.0600 
    220 H220       -5.2448  -21.6364  -50.3809 H         1 UNK         0.3000 
    221 H221       -4.9267  -20.7167  -52.3682 H         1 UNK         0.0600 
    222 H222       -7.1363  -18.7302  -51.6277 H         1 UNK         0.0600 
    223 H223       -5.4419  -18.5868  -51.1719 H         1 UNK         0.0600 
    224 H224       -5.9052  -18.5123  -52.8645 H         1 UNK         0.0600 
    225 H225       -6.0550  -22.9870  -52.7003 H         1 UNK         0.3000 
    226 H226       -8.5637  -22.9874  -54.1765 H         1 UNK         0.0600 
    227 H227       -7.9010  -24.8756  -52.7146 H         1 UNK         0.0600 
    228 H228       -8.0682  -25.4202  -54.3750 H         1 UNK         0.0600 
    229 H229       -6.4644  -25.1636  -53.6952 H         1 UNK         0.0600 
    230 H230       -7.4612  -21.2004  -55.5317 H         1 UNK         0.3000 
    231 H231       -6.9219  -20.3833  -57.5038 H         1 UNK         0.0600 
    232 H232       -8.4069  -22.1506  -58.4885 H         1 UNK         0.0600 
    233 H233       -7.0089  -23.2076  -58.6861 H         1 UNK         0.0600 
    234 H234       -7.1027  -21.6938  -59.5704 H         1 UNK         0.0600 
    235 H235       -4.8249  -22.0232  -55.7131 H         1 UNK         0.3000 
    236 H236       -2.4983  -22.2682  -57.3705 H         1 UNK         0.0600 
    237 H237       -1.3349  -22.4767  -55.1500 H         1 UNK         0.0600 
    238 H238       -2.8208  -22.0046  -54.3347 H         1 UNK         0.0600 
    239 H239       -2.7532  -23.5110  -55.2446 H         1 UNK         0.0600 
    240 H240       -3.9378  -19.5970  -55.5913 H         1 UNK         0.3000 
    241 H241       -2.0459  -17.6889  -56.7624 H         1 UNK         0.0600 
    242 H242       -4.7881  -15.4222  -57.0436 H         1 UNK         0.3800 
    243 H243       -3.0529  -15.5447  -57.0860 H         1 UNK         0.3800 
    244 H244       -2.0341  -16.3365  -54.6180 H         1 UNK         0.0800 
    245 H245       -2.7971  -17.6604  -53.7839 H         1 UNK         0.0800 
    246 H246       -1.6925  -19.7821  -53.0892 H         1 UNK         0.0800 
    247 H247        0.0287  -19.9488  -52.8470 H         1 UNK         0.0800 
@<TRIPOS>BOND
     1    1    2 1    
     2    1  127 1    
     3    1  128 1    
     4    1  129 1    
     5    2    3 2    
     6    2    4 am   BACKBONE|DICT|INTERRES
     7    4    5 1    
     8    4  130 1    
     9    5    6 1    
    10    5   65 1    
    11    5  131 1    
    12    6    7 1    
    13    6  132 1    
    14    6  133 1    
    15    7    8 1    
    16    8    9 1    
    17    8  134 1    
    18    8  135 1    
    19    9   10 ar   
    20    9   14 ar   
    21   10   11 ar   
    22   10  136 1    
    23   11   12 ar   
    24   11  126 1    
    25   12   13 ar   
    26   12  137 1    
    27   13   14 ar   
    28   13   15 1    
    29   14  138 1    
    30   15   16 1    
    31   15  139 1    
    32   15  140 1    
    33   16   17 1    
    34   17   18 1    
    35   17  141 1    
    36   17  142 1    
    37   18   19 1    
    38   18   67 1    
    39   18  143 1    
    40   19   20 am   BACKBONE|DICT|INTERRES
    41   19  144 1    
    42   20   21 2    
    43   20   22 1    
    44   22   23 1    
    45   22   24 1    
    46   22  145 1    
    47   23  146 1    
    48   23  147 1    
    49   23  148 1    
    50   24   25 am   BACKBONE|DICT|INTERRES
    51   24  149 1    
    52   25   26 2    
    53   25   27 1    
    54   27   28 1    
    55   27   29 1    
    56   27  150 1    
    57   28  151 1    
    58   28  152 1    
    59   28  153 1    
    60   29   30 am   BACKBONE|DICT|INTERRES
    61   29  154 1    
    62   30   31 2    
    63   30   32 1    
    64   32   33 1    
    65   32   34 1    
    66   32  155 1    
    67   33  156 1    
    68   33  157 1    
    69   33  158 1    
    70   34   35 am   BACKBONE|DICT|INTERRES
    71   34  159 1    
    72   35   36 2    
    73   35   37 1    
    74   37   38 1    
    75   37   39 1    
    76   37  160 1    
    77   38  161 1    
    78   38  162 1    
    79   38  163 1    
    80   39   40 am   BACKBONE|DICT|INTERRES
    81   39  164 1    
    82   40   41 2    
    83   40   42 1    
    84   42   43 1    
    85   42   44 1    
    86   42  165 1    
    87   43  166 1    
    88   43  167 1    
    89   43  168 1    
    90   44   45 am   BACKBONE|DICT|INTERRES
    91   44  169 1    
    92   45   46 2    
    93   45   47 1    
    94   47   48 1    
    95   47   49 1    
    96   47  170 1    
    97   48  171 1    
    98   48  172 1    
    99   48  173 1    
   100   49   50 am   BACKBONE|DICT|INTERRES
   101   49  174 1    
   102   50   51 2    
   103   50   52 1    
   104   52   53 1    
   105   52   54 1    
   106   52  175 1    
   107   53  176 1    
   108   53  177 1    
   109   53  178 1    
   110   54   55 am   BACKBONE|DICT|INTERRES
   111   54  179 1    
   112   55   56 2    
   113   55   57 1    
   114   57   58 1    
   115   57   59 1    
   116   57  180 1    
   117   58  181 1    
   118   58  182 1    
   119   58  183 1    
   120   59   60 am   BACKBONE|DICT|INTERRES
   121   59  184 1    
   122   60   61 2    
   123   60   62 1    
   124   62   63 1    
   125   62   64 1    
   126   62  185 1    
   127   63  186 1    
   128   63  187 1    
   129   63  188 1    
   130   64   65 am   BACKBONE|DICT|INTERRES
   131   64  189 1    
   132   65   66 2    
   133   67   68 2    
   134   67   69 am   BACKBONE|DICT|INTERRES
   135   69   70 1    
   136   69  190 1    
   137   70   71 1    
   138   70   72 1    
   139   70  191 1    
   140   71  192 1    
   141   71  193 1    
   142   71  194 1    
   143   72   73 2    
   144   72   74 am   BACKBONE|DICT|INTERRES
   145   74   75 1    
   146   74  195 1    
   147   75   76 1    
   148   75   77 1    
   149   75  196 1    
   150   76  197 1    
   151   76  198 1    
   152   76  199 1    
   153   77   78 2    
   154   77   79 am   BACKBONE|DICT|INTERRES
   155   79   80 1    
   156   79  200 1    
   157   80   81 1    
   158   80   82 1    
   159   80  201 1    
   160   81  202 1    
   161   81  203 1    
   162   81  204 1    
   163   82   83 2    
   164   82   84 am   BACKBONE|DICT|INTERRES
   165   84   85 1    
   166   84  205 1    
   167   85   86 1    
   168   85   87 1    
   169   85  206 1    
   170   86  207 1    
   171   86  208 1    
   172   86  209 1    
   173   87   88 2    
   174   87   89 am   BACKBONE|DICT|INTERRES
   175   89   90 1    
   176   89  210 1    
   177   90   91 1    
   178   90   92 1    
   179   90  211 1    
   180   91  212 1    
   181   91  213 1    
   182   91  214 1    
   183   92   93 2    
   184   92   94 am   BACKBONE|DICT|INTERRES
   185   94   95 1    
   186   94  215 1    
   187   95   96 1    
   188   95   97 1    
   189   95  216 1    
   190   96  217 1    
   191   96  218 1    
   192   96  219 1    
   193   97   98 2    
   194   97   99 am   BACKBONE|DICT|INTERRES
   195   99  100 1    
   196   99  220 1    
   197  100  101 1    
   198  100  102 1    
   199  100  221 1    
   200  101  222 1    
   201  101  223 1    
   202  101  224 1    
   203  102  103 2    
   204  102  104 am   BACKBONE|DICT|INTERRES
   205  104  105 1    
   206  104  225 1    
   207  105  106 1    
   208  105  107 1    
   209  105  226 1    
   210  106  227 1    
   211  106  228 1    
   212  106  229 1    
   213  107  108 2    
   214  107  109 am   BACKBONE|DICT|INTERRES
   215  109  110 1    
   216  109  230 1    
   217  110  111 1    
   218  110  112 1    
   219  110  231 1    
   220  111  232 1    
   221  111  233 1    
   222  111  234 1    
   223  112  113 2    
   224  112  114 am   BACKBONE|DICT|INTERRES
   225  114  115 1    
   226  114  235 1    
   227  115  116 1    
   228  115  117 1    
   229  115  236 1    
   230  116  237 1    
   231  116  238 1    
   232  116  239 1    
   233  117  118 2    
   234  117  119 am   BACKBONE|DICT|INTERRES
   235  119  120 1    
   236  119  240 1    
   237  120  121 1    
   238  120  124 1    
   239  120  241 1    
   240  121  122 am   BACKBONE|DICT|INTERRES
   241  121  123 2    
   242  122  242 1    
   243  122  243 1    
   244  124  125 1    
   245  124  244 1    
   246  124  245 1    
   247  125  126 1    
   248  126  246 1    
   249  126  247 1    
@<TRIPOS>SUBSTRUCTURE
     1 UNK         1 GROUP             0       ****    0 ROOT    
