@<TRIPOS>MOLECULE
3R540
247   249    1
SMALL
USER_CHARGES


@<TRIPOS>ATOM
      1 CA          1.3131  -15.4356  -43.6015 C.3       0 UNK        -0.1800 
      2 C           0.6130  -14.1567  -43.1674 C.2       0 UNK         0.5000 
      3 O           0.5051  -13.8953  -41.9703 O.2       0 UNK        -0.5000 
      4 N           0.1445  -13.3644  -44.1423 N.am      1 UNK        -0.5000 
      5 CA         -0.7134  -12.1746  -43.9942 C.3       1 UNK         0.1400 
      6 C6         -1.0700  -11.5405  -45.3668 C.3       23 UNK        -0.0398 
      7 S7         -1.4549  -12.7643  -46.6675 S.3       23 UNK        -0.2404 
      8 C8         -3.2373  -12.5299  -46.9287 C.3       23 UNK        -0.0205 
      9 C9         -3.7463  -13.4419  -48.0366 C.ar      23 UNK        -0.0193 
     10 C10        -3.5437  -13.0930  -49.3747 C.ar      23 UNK        -0.1150 
     11 C11        -4.0151  -13.9130  -50.4040 C.ar      23 UNK        -0.0193 
     12 C12        -4.7028  -15.0871  -50.0881 C.ar      23 UNK        -0.1150 
     13 C13        -4.9019  -15.4556  -48.7550 C.ar      23 UNK        -0.0193 
     14 C14        -4.4229  -14.6278  -47.7332 C.ar      23 UNK        -0.1150 
     15 C15        -5.6538  -16.7359  -48.4243 C.3       23 UNK        -0.0205 
     16 S16        -4.7045  -18.2182  -48.8937 S.3       23 UNK        -0.2404 
     17 C17        -5.0446  -19.2916  -47.4636 C.3       23 UNK        -0.0398 
     18 CA         -4.3663  -20.6769  -47.5678 C.3       11 UNK         0.1400 
     19 N          -2.9018  -20.6111  -47.6868 N.am      11 UNK        -0.5000 
     20 C          -2.1014  -21.6770  -47.8517 C.2       10 UNK         0.5000 
     21 O          -2.5186  -22.8292  -47.9633 O.2       10 UNK        -0.5000 
     22 CA         -0.5824  -21.4362  -47.8068 C.3       10 UNK         0.1400 
     23 CB         -0.0594  -20.8885  -49.1425 C.3       10 UNK        -0.1800 
     24 N          -0.2134  -20.5452  -46.7070 N.am      10 UNK        -0.5000 
     25 C          -0.3343  -20.8690  -45.4102 C.2       9 UNK         0.5000 
     26 O          -0.6570  -21.9883  -45.0136 O.2       9 UNK        -0.5000 
     27 CA         -0.1245  -19.7404  -44.3849 C.3       9 UNK         0.1400 
     28 CB          1.3495  -19.6270  -43.9664 C.3       9 UNK        -0.1800 
     29 N          -0.6106  -18.4548  -44.8884 N.am      9 UNK        -0.5000 
     30 C          -1.9109  -18.1600  -45.0346 C.2       8 UNK         0.5000 
     31 O          -2.8196  -18.9206  -44.7053 O.2       8 UNK        -0.5000 
     32 CA         -2.2668  -16.8098  -45.6820 C.3       8 UNK         0.1400 
     33 CB         -2.5285  -15.7607  -44.5934 C.3       8 UNK        -0.1800 
     34 N          -1.2531  -16.3288  -46.6261 N.am      8 UNK        -0.5000 
     35 C          -0.9832  -16.9377  -47.7897 C.2       7 UNK         0.5000 
     36 O          -1.5422  -17.9693  -48.1591 O.2       7 UNK        -0.5000 
     37 CA          0.1473  -16.3435  -48.6495 C.3       7 UNK         0.1400 
     38 CB         -0.3053  -15.0696  -49.3768 C.3       7 UNK        -0.1800 
     39 N           1.3851  -16.0645  -47.9174 N.am      7 UNK        -0.5000 
     40 C           2.0809  -16.9368  -47.1795 C.2       6 UNK         0.5000 
     41 O           1.6903  -18.0809  -46.9499 O.2       6 UNK        -0.5000 
     42 CA          3.4260  -16.4758  -46.5714 C.3       6 UNK         0.1400 
     43 CB          4.6046  -17.0485  -47.3797 C.3       6 UNK        -0.1800 
     44 N           3.6035  -15.0281  -46.3574 N.am      6 UNK        -0.5000 
     45 C           3.6473  -14.0357  -47.2609 C.2       5 UNK         0.5000 
     46 O           3.4288  -14.1904  -48.4617 O.2       5 UNK        -0.5000 
     47 CA          3.9664  -12.6209  -46.7375 C.3       5 UNK         0.1400 
     48 CB          2.6705  -11.8199  -46.5405 C.3       5 UNK        -0.1800 
     49 N           4.7323  -12.6013  -45.4880 N.am      5 UNK        -0.5000 
     50 C           6.0096  -12.9892  -45.3601 C.2       4 UNK         0.5000 
     51 O           6.6806  -13.4436  -46.2871 O.2       4 UNK        -0.5000 
     52 CA          6.6538  -12.8316  -43.9682 C.3       4 UNK         0.1400 
     53 CB          7.5724  -11.6003  -43.9404 C.3       4 UNK        -0.1800 
     54 N           5.6830  -12.7136  -42.8773 N.am      4 UNK        -0.5000 
     55 C           4.9447  -13.7143  -42.3849 C.2       3 UNK         0.5000 
     56 O           4.9635  -14.8580  -42.8394 O.2       3 UNK        -0.5000 
     57 CA          4.0049  -13.3757  -41.2109 C.3       3 UNK         0.1400 
     58 CB          4.7913  -13.0888  -39.9173 C.3       3 UNK        -0.1800 
     59 N           3.0414  -12.3086  -41.5137 N.am      3 UNK        -0.5000 
     60 C           3.2617  -11.0059  -41.7564 C.2       2 UNK         0.5000 
     61 O           4.3759  -10.4814  -41.7195 O.2       2 UNK        -0.5000 
     62 CA          2.0305  -10.1805  -42.1767 C.3       2 UNK         0.1400 
     63 CB          2.3967   -8.8529  -42.8658 C.3       2 UNK        -0.1800 
     64 N           1.2128  -10.9871  -43.0780 N.am      2 UNK        -0.5000 
     65 C          -0.1197  -11.0965  -43.0597 C.2       1 UNK         0.5000 
     66 O          -0.8609  -10.4222  -42.3440 O.2       1 UNK        -0.5000 
     67 C          -4.8120  -21.5747  -46.3942 C.2       11 UNK         0.5000 
     68 O          -5.6591  -22.4467  -46.5923 O.2       11 UNK        -0.5000 
     69 N          -4.1935  -21.3838  -45.2186 N.am      12 UNK        -0.5000 
     70 CA         -4.4192  -22.1684  -44.0007 C.3       12 UNK         0.1400 
     71 CB         -3.6481  -21.5323  -42.8349 C.3       12 UNK        -0.1800 
     72 C          -4.0514  -23.6588  -44.1394 C.2       12 UNK         0.5000 
     73 O          -4.6641  -24.4951  -43.4760 O.2       12 UNK        -0.5000 
     74 N          -3.1084  -23.9756  -45.0363 N.am      13 UNK        -0.5000 
     75 CA         -2.7267  -25.3316  -45.4374 C.3       13 UNK         0.1400 
     76 CB         -1.2465  -25.3261  -45.8607 C.3       13 UNK        -0.1800 
     77 C          -3.6480  -25.8982  -46.5425 C.2       13 UNK         0.5000 
     78 O          -3.1914  -26.6816  -47.3765 O.2       13 UNK        -0.5000 
     79 N          -4.9231  -25.4803  -46.5462 N.am      14 UNK        -0.5000 
     80 CA         -5.9824  -25.8319  -47.4956 C.3       14 UNK         0.1400 
     81 CB         -6.3750  -27.3167  -47.3451 C.3       14 UNK        -0.1800 
     82 C          -5.6142  -25.4489  -48.9411 C.2       14 UNK         0.5000 
     83 O          -5.7381  -26.2731  -49.8475 O.2       14 UNK        -0.5000 
     84 N          -5.1199  -24.2138  -49.1157 N.am      15 UNK        -0.5000 
     85 CA         -4.5775  -23.6604  -50.3637 C.3       15 UNK         0.1400 
     86 CB         -5.6993  -23.4734  -51.4066 C.3       15 UNK        -0.1800 
     87 C          -3.3879  -24.4884  -50.8913 C.2       15 UNK         0.5000 
     88 O          -3.3497  -24.8344  -52.0725 O.2       15 UNK        -0.5000 
     89 N          -2.4626  -24.8259  -49.9829 N.am      16 UNK        -0.5000 
     90 CA         -1.3020  -25.7025  -50.1711 C.3       16 UNK         0.1400 
     91 CB         -0.2549  -25.0134  -51.0681 C.3       16 UNK        -0.1800 
     92 C          -1.7028  -27.1033  -50.6838 C.2       16 UNK         0.5000 
     93 O          -1.0965  -27.6145  -51.6258 O.2       16 UNK        -0.5000 
     94 N          -2.7463  -27.6744  -50.0650 N.am      17 UNK        -0.5000 
     95 CA         -3.4514  -28.8981  -50.4595 C.3       17 UNK         0.1400 
     96 CB         -2.5522  -30.1380  -50.2728 C.3       17 UNK        -0.1800 
     97 C          -4.0616  -28.7872  -51.8751 C.2       17 UNK         0.5000 
     98 O          -3.8457  -29.6600  -52.7183 O.2       17 UNK        -0.5000 
     99 N          -4.8162  -27.6998  -52.0907 N.am      18 UNK        -0.5000 
    100 CA        -5.5230  -27.3140  -53.3152 C.3       18 UNK         0.1400 
    101 CB        -6.7145  -28.2617  -53.5648 C.3       18 UNK        -0.1800 
    102 C         -4.5918  -27.1721  -54.5379 C.2       18 UNK         0.5000 
    103 O         -4.8636  -27.7505  -55.5928 O.2       18 UNK        -0.5000 
    104 N         -3.5052  -26.4091  -54.3692 N.am      19 UNK        -0.5000 
    105 CA        -2.4784  -26.1895  -55.3886 C.3       19 UNK         0.1400 
    106 CB        -1.2767  -27.1036  -55.1010 C.3       19 UNK        -0.1800 
    107 C         -2.0214  -24.7242  -55.4985 C.2       19 UNK         0.5000 
    108 O         -1.5441  -24.3412  -56.5681 O.2       19 UNK        -0.5000 
    109 N         -2.1490  -23.9258  -54.4294 N.am      20 UNK        -0.5000 
    110 CA        -1.6516  -22.5527  -54.3743 C.3       20 UNK         0.1400 
    111 CB        -0.1235  -22.5383  -54.1584 C.3       20 UNK        -0.1800 
    112 C         -2.3996  -21.7465  -53.3031 C.2       20 UNK         0.5000 
    113 O         -1.8575  -21.4804  -52.2276 O.2       20 UNK        -0.5000 
    114 N         -3.6323  -21.3319  -53.6230 N.am      21 UNK        -0.5000 
    115 CA        -4.3288  -20.2652  -52.8981 C.3       21 UNK         0.1400 
    116 CB        -5.7826  -20.1682  -53.3858 C.3       21 UNK        -0.1800 
    117 C         -3.5833  -18.9376  -53.1289 C.2       21 UNK         0.5000 
    118 O         -3.2687  -18.6247  -54.2799 O.2       21 UNK        -0.5000 
    119 N         -3.2712  -18.2174  -52.0449 N.am      22 UNK        -0.5000 
    120 CA        -2.3371  -17.0764  -52.0369 C.3       22 UNK         0.1400 
    121 C         -0.8385  -17.4913  -52.2165 C.2       22 UNK         0.5000 
    122 N         -0.4732  -18.7644  -52.1025 N.am      22 UNK        -0.7600 
    123 O          0.0249  -16.6498  -52.4425 O.2       22 UNK        -0.5000 
    124 C124       -2.7851  -15.9317  -52.9977 C.3       23 UNK        -0.0398 
    125 S125       -2.2469  -14.2568  -52.5020 S.3       23 UNK        -0.2404 
    126 C126       -3.7820  -13.5245  -51.8543 C.3       23 UNK        -0.0205 
    127 H127        1.1958  -15.6130  -44.6691 H         1 UNK         0.0600 
    128 H128        0.8921  -16.2895  -43.0708 H         1 UNK         0.0600 
    129 H129        2.3763  -15.3836  -43.3735 H         1 UNK         0.0600 
    130 H130        0.2799  -13.6391  -45.1034 H         1 UNK         0.3000 
    131 H131       -1.6412  -12.5218  -43.5349 H         1 UNK         0.0600 
    132 H132       -0.2377  -10.9421  -45.7425 H         1 UNK         0.0800 
    133 H133       -1.9067  -10.8488  -45.2556 H         1 UNK         0.0800 
    134 H134       -3.4329  -11.4897  -47.1934 H         1 UNK         0.0800 
    135 H135       -3.7722  -12.7203  -45.9972 H         1 UNK         0.0800 
    136 H136       -3.0105  -12.1835  -49.6138 H         1 UNK         0.1150 
    137 H137       -5.0739  -15.7238  -50.8787 H         1 UNK         0.1150 
    138 H138       -4.5835  -14.9017  -46.7006 H         1 UNK         0.1150 
    139 H139       -5.8932  -16.7633  -47.3603 H         1 UNK         0.0800 
    140 H140       -6.6090  -16.7436  -48.9510 H         1 UNK         0.0800 
    141 H141       -6.1279  -19.4065  -47.3889 H         1 UNK         0.0800 
    142 H142       -4.7284  -18.7760  -46.5568 H         1 UNK         0.0800 
    143 H143       -4.7347  -21.1454  -48.4813 H         1 UNK         0.0600 
    144 H144       -2.4823  -19.6863  -47.6611 H         1 UNK         0.3000 
    145 H145       -0.0990  -22.3999  -47.6326 H         1 UNK         0.0600 
    146 H146       -0.5318  -19.9456  -49.4134 H         1 UNK         0.0600 
    147 H147        1.0177  -20.7252  -49.1086 H         1 UNK         0.0600 
    148 H148       -0.2575  -21.5922  -49.9518 H         1 UNK         0.0600 
    149 H149        0.0781  -19.6061  -46.9511 H         1 UNK         0.3000 
    150 H150       -0.7006  -19.9922  -43.4921 H         1 UNK         0.0600 
    151 H151        1.6857  -20.5501  -43.4930 H         1 UNK         0.0600 
    152 H152        1.4964  -18.8218  -43.2466 H         1 UNK         0.0600 
    153 H153        2.0064  -19.4442  -44.8156 H         1 UNK         0.0600 
    154 H154        0.0812  -17.8217  -45.2622 H         1 UNK         0.3000 
    155 H155       -3.1933  -16.9490  -46.2416 H         1 UNK         0.0600 
    156 H156       -3.3675  -16.0607  -43.9644 H         1 UNK         0.0600 
    157 H157       -2.7784  -14.7906  -45.0172 H         1 UNK         0.0600 
    158 H158       -1.6677  -15.6363  -43.9401 H         1 UNK         0.0600 
    159 H159       -0.7802  -15.4668  -46.4066 H         1 UNK         0.3000 
    160 H160        0.3848  -17.0926  -49.4073 H         1 UNK         0.0600 
    161 H161        0.3078  -14.8865  -50.2591 H         1 UNK         0.0600 
    162 H162       -0.2286  -14.1900  -48.7421 H         1 UNK         0.0600 
    163 H163       -1.3405  -15.1405  -49.7084 H         1 UNK         0.0600 
    164 H164        1.8441  -15.1830  -48.1237 H         1 UNK         0.3000 
    165 H165        3.4697  -16.9216  -45.5763 H         1 UNK         0.0600 
    166 H166        4.6258  -16.6590  -48.3979 H         1 UNK         0.0600 
    167 H167        5.5582  -16.8086  -46.9090 H         1 UNK         0.0600 
    168 H168        4.5404  -18.1353  -47.4480 H         1 UNK         0.0600 
    169 H169        3.8066  -14.7698  -45.4020 H         1 UNK         0.3000 
    170 H170        4.5621  -12.1196  -47.5034 H         1 UNK         0.0600 
    171 H171        2.0391  -12.2664  -45.7755 H         1 UNK         0.0600 
    172 H172        2.8801  -10.7908  -46.2476 H         1 UNK         0.0600 
    173 H173        2.0884  -11.7814  -47.4625 H         1 UNK         0.0600 
    174 H174        4.2792  -12.2160  -44.6747 H         1 UNK         0.3000 
    175 H175        7.2650  -13.7186  -43.7893 H         1 UNK         0.0600 
    176 H176        7.0115  -10.6775  -44.0941 H         1 UNK         0.0600 
    177 H177        8.0950  -11.5202  -42.9870 H         1 UNK         0.0600 
    178 H178        8.3313  -11.6586  -44.7217 H         1 UNK         0.0600 
    179 H179        5.5561  -11.7928  -42.4652 H         1 UNK         0.3000 
    180 H180        3.4029  -14.2675  -41.0284 H         1 UNK         0.0600 
    181 H181        5.4352  -12.2140  -40.0090 H         1 UNK         0.0600 
    182 H182        5.4294  -13.9341  -39.6568 H         1 UNK         0.0600 
    183 H183        4.1170  -12.9207  -39.0776 H         1 UNK         0.0600 
    184 H184        2.0803  -12.6316  -41.5745 H         1 UNK         0.3000 
    185 H185        1.4747   -9.9597  -41.2631 H         1 UNK         0.0600 
    186 H186        1.5024   -8.2955  -43.1447 H         1 UNK         0.0600 
    187 H187        2.9822   -8.2146  -42.2031 H         1 UNK         0.0600 
    188 H188        2.9835   -9.0187  -43.7701 H         1 UNK         0.0600 
    189 H189        1.7216  -11.6032  -43.6930 H         1 UNK         0.3000 
    190 H190       -3.5398  -20.6091  -45.1324 H         1 UNK         0.3000 
    191 H191       -5.4853  -22.1166  -43.7711 H         1 UNK         0.0600 
    192 H192       -2.5731  -21.5388  -43.0151 H         1 UNK         0.0600 
    193 H193       -3.9557  -20.4989  -42.6743 H         1 UNK         0.0600 
    194 H194       -3.8283  -22.0728  -41.9048 H         1 UNK         0.0600 
    195 H195       -2.6547  -23.2235  -45.5390 H         1 UNK         0.3000 
    196 H196       -2.8211  -25.9960  -44.5764 H         1 UNK         0.0600 
    197 H197       -0.6124  -24.9275  -45.0685 H         1 UNK         0.0600 
    198 H198       -1.0834  -24.7215  -46.7527 H         1 UNK         0.0600 
    199 H199       -0.8945  -26.3351  -46.0786 H         1 UNK         0.0600 
    200 H200       -5.1869  -24.8049  -45.8421 H         1 UNK         0.3000 
    201 H201       -6.8516  -25.2288  -47.2294 H         1 UNK         0.0600 
    202 H202       -7.2320  -27.5593  -47.9744 H         1 UNK         0.0600 
    203 H203       -6.6524  -27.5481  -46.3168 H         1 UNK         0.0600 
    204 H204       -5.5614  -27.9842  -47.6307 H         1 UNK         0.0600 
    205 H205       -5.0327  -23.6289  -48.2928 H         1 UNK         0.3000 
    206 H206       -4.1737  -22.6738  -50.1381 H         1 UNK         0.0600 
    207 H207       -6.4538  -22.7734  -51.0484 H         1 UNK         0.0600 
    208 H208       -6.2004  -24.4106  -51.6455 H         1 UNK         0.0600 
    209 H209       -5.3061  -23.0780  -52.3415 H         1 UNK         0.0600 
    210 H210       -2.5712  -24.4330  -49.0524 H         1 UNK         0.3000 
    211 H211       -0.8585  -25.8451  -49.1847 H         1 UNK         0.0600 
    212 H212       -0.0189  -24.0128  -50.7062 H         1 UNK         0.0600 
    213 H213        0.6754  -25.5817  -51.0896 H         1 UNK         0.0600 
    214 H214       -0.6069  -24.9258  -52.0957 H         1 UNK         0.0600 
    215 H215       -3.1306  -27.1907  -49.2575 H         1 UNK         0.3000 
    216 H216       -4.2923  -28.9975  -49.7716 H         1 UNK         0.0600 
    217 H217       -3.1134  -31.0554  -50.4535 H         1 UNK         0.0600 
    218 H218       -1.7042  -30.1346  -50.9581 H         1 UNK         0.0600 
    219 H219       -2.1621  -30.1911  -49.2564 H         1 UNK         0.0600 
    220 H220       -4.9590  -27.0701  -51.3031 H         1 UNK         0.3000 
    221 H221       -5.9304  -26.3198  -53.1294 H         1 UNK         0.0600 
    222 H222       -6.3855  -29.2789  -53.7795 H         1 UNK         0.0600 
    223 H223       -7.3747  -28.2988  -52.6982 H         1 UNK         0.0600 
    224 H224       -7.3119  -27.9241  -54.4124 H         1 UNK         0.0600 
    225 H225       -3.3713  -25.9522  -53.4690 H         1 UNK         0.3000 
    226 H226       -2.8741  -26.4539  -56.3713 H         1 UNK         0.0600 
    227 H227       -1.5781  -28.1500  -55.0485 H         1 UNK         0.0600 
    228 H228       -0.5235  -27.0189  -55.8852 H         1 UNK         0.0600 
    229 H229       -0.7970  -26.8451  -54.1568 H         1 UNK         0.0600 
    230 H230       -2.5771  -24.2746  -53.5733 H         1 UNK         0.3000 
    231 H231       -1.8556  -22.0629  -55.3290 H         1 UNK         0.0600 
    232 H232        0.2515  -21.5150  -54.1155 H         1 UNK         0.0600 
    233 H233        0.4011  -23.0388  -54.9721 H         1 UNK         0.0600 
    234 H234        0.1599  -23.0271  -53.2272 H         1 UNK         0.0600 
    235 H235       -4.0058  -21.5758  -54.5286 H         1 UNK         0.3000 
    236 H236       -4.3320  -20.5045  -51.8322 H         1 UNK         0.0600 
    237 H237       -6.3210  -21.1024  -53.2302 H         1 UNK         0.0600 
    238 H238       -6.3213  -19.3900  -52.8436 H         1 UNK         0.0600 
    239 H239       -5.8366  -19.9250  -54.4477 H         1 UNK         0.0600 
    240 H240       -3.5716  -18.5340  -51.1321 H         1 UNK         0.3000 
    241 H241       -2.4015  -16.6954  -51.0186 H         1 UNK         0.0600 
    242 H242        0.4993  -18.9980  -52.2175 H         1 UNK         0.3800 
    243 H243       -1.1438  -19.5052  -51.9423 H         1 UNK         0.3800 
    244 H244       -2.4176  -16.1173  -54.0081 H         1 UNK         0.0800 
    245 H245       -3.8717  -15.9258  -53.0863 H         1 UNK         0.0800 
    246 H246       -4.6343  -13.8113  -52.4717 H         1 UNK         0.0800 
    247 H247       -3.7077  -12.4390  -51.9350 H         1 UNK         0.0800 
@<TRIPOS>BOND
     1    1    2 1    
     2    1  127 1    
     3    1  128 1    
     4    1  129 1    
     5    2    3 2    
     6    2    4 am   BACKBONE|DICT|INTERRES
     7    4    5 1    
     8    4  130 1    
     9    5    6 1    
    10    5   65 1    
    11    5  131 1    
    12    6    7 1    
    13    6  132 1    
    14    6  133 1    
    15    7    8 1    
    16    8    9 1    
    17    8  134 1    
    18    8  135 1    
    19    9   10 ar   
    20    9   14 ar   
    21   10   11 ar   
    22   10  136 1    
    23   11   12 ar   
    24   11  126 1    
    25   12   13 ar   
    26   12  137 1    
    27   13   14 ar   
    28   13   15 1    
    29   14  138 1    
    30   15   16 1    
    31   15  139 1    
    32   15  140 1    
    33   16   17 1    
    34   17   18 1    
    35   17  141 1    
    36   17  142 1    
    37   18   19 1    
    38   18   67 1    
    39   18  143 1    
    40   19   20 am   BACKBONE|DICT|INTERRES
    41   19  144 1    
    42   20   21 2    
    43   20   22 1    
    44   22   23 1    
    45   22   24 1    
    46   22  145 1    
    47   23  146 1    
    48   23  147 1    
    49   23  148 1    
    50   24   25 am   BACKBONE|DICT|INTERRES
    51   24  149 1    
    52   25   26 2    
    53   25   27 1    
    54   27   28 1    
    55   27   29 1    
    56   27  150 1    
    57   28  151 1    
    58   28  152 1    
    59   28  153 1    
    60   29   30 am   BACKBONE|DICT|INTERRES
    61   29  154 1    
    62   30   31 2    
    63   30   32 1    
    64   32   33 1    
    65   32   34 1    
    66   32  155 1    
    67   33  156 1    
    68   33  157 1    
    69   33  158 1    
    70   34   35 am   BACKBONE|DICT|INTERRES
    71   34  159 1    
    72   35   36 2    
    73   35   37 1    
    74   37   38 1    
    75   37   39 1    
    76   37  160 1    
    77   38  161 1    
    78   38  162 1    
    79   38  163 1    
    80   39   40 am   BACKBONE|DICT|INTERRES
    81   39  164 1    
    82   40   41 2    
    83   40   42 1    
    84   42   43 1    
    85   42   44 1    
    86   42  165 1    
    87   43  166 1    
    88   43  167 1    
    89   43  168 1    
    90   44   45 am   BACKBONE|DICT|INTERRES
    91   44  169 1    
    92   45   46 2    
    93   45   47 1    
    94   47   48 1    
    95   47   49 1    
    96   47  170 1    
    97   48  171 1    
    98   48  172 1    
    99   48  173 1    
   100   49   50 am   BACKBONE|DICT|INTERRES
   101   49  174 1    
   102   50   51 2    
   103   50   52 1    
   104   52   53 1    
   105   52   54 1    
   106   52  175 1    
   107   53  176 1    
   108   53  177 1    
   109   53  178 1    
   110   54   55 am   BACKBONE|DICT|INTERRES
   111   54  179 1    
   112   55   56 2    
   113   55   57 1    
   114   57   58 1    
   115   57   59 1    
   116   57  180 1    
   117   58  181 1    
   118   58  182 1    
   119   58  183 1    
   120   59   60 am   BACKBONE|DICT|INTERRES
   121   59  184 1    
   122   60   61 2    
   123   60   62 1    
   124   62   63 1    
   125   62   64 1    
   126   62  185 1    
   127   63  186 1    
   128   63  187 1    
   129   63  188 1    
   130   64   65 am   BACKBONE|DICT|INTERRES
   131   64  189 1    
   132   65   66 2    
   133   67   68 2    
   134   67   69 am   BACKBONE|DICT|INTERRES
   135   69   70 1    
   136   69  190 1    
   137   70   71 1    
   138   70   72 1    
   139   70  191 1    
   140   71  192 1    
   141   71  193 1    
   142   71  194 1    
   143   72   73 2    
   144   72   74 am   BACKBONE|DICT|INTERRES
   145   74   75 1    
   146   74  195 1    
   147   75   76 1    
   148   75   77 1    
   149   75  196 1    
   150   76  197 1    
   151   76  198 1    
   152   76  199 1    
   153   77   78 2    
   154   77   79 am   BACKBONE|DICT|INTERRES
   155   79   80 1    
   156   79  200 1    
   157   80   81 1    
   158   80   82 1    
   159   80  201 1    
   160   81  202 1    
   161   81  203 1    
   162   81  204 1    
   163   82   83 2    
   164   82   84 am   BACKBONE|DICT|INTERRES
   165   84   85 1    
   166   84  205 1    
   167   85   86 1    
   168   85   87 1    
   169   85  206 1    
   170   86  207 1    
   171   86  208 1    
   172   86  209 1    
   173   87   88 2    
   174   87   89 am   BACKBONE|DICT|INTERRES
   175   89   90 1    
   176   89  210 1    
   177   90   91 1    
   178   90   92 1    
   179   90  211 1    
   180   91  212 1    
   181   91  213 1    
   182   91  214 1    
   183   92   93 2    
   184   92   94 am   BACKBONE|DICT|INTERRES
   185   94   95 1    
   186   94  215 1    
   187   95   96 1    
   188   95   97 1    
   189   95  216 1    
   190   96  217 1    
   191   96  218 1    
   192   96  219 1    
   193   97   98 2    
   194   97   99 am   BACKBONE|DICT|INTERRES
   195   99  100 1    
   196   99  220 1    
   197  100  101 1    
   198  100  102 1    
   199  100  221 1    
   200  101  222 1    
   201  101  223 1    
   202  101  224 1    
   203  102  103 2    
   204  102  104 am   BACKBONE|DICT|INTERRES
   205  104  105 1    
   206  104  225 1    
   207  105  106 1    
   208  105  107 1    
   209  105  226 1    
   210  106  227 1    
   211  106  228 1    
   212  106  229 1    
   213  107  108 2    
   214  107  109 am   BACKBONE|DICT|INTERRES
   215  109  110 1    
   216  109  230 1    
   217  110  111 1    
   218  110  112 1    
   219  110  231 1    
   220  111  232 1    
   221  111  233 1    
   222  111  234 1    
   223  112  113 2    
   224  112  114 am   BACKBONE|DICT|INTERRES
   225  114  115 1    
   226  114  235 1    
   227  115  116 1    
   228  115  117 1    
   229  115  236 1    
   230  116  237 1    
   231  116  238 1    
   232  116  239 1    
   233  117  118 2    
   234  117  119 am   BACKBONE|DICT|INTERRES
   235  119  120 1    
   236  119  240 1    
   237  120  121 1    
   238  120  124 1    
   239  120  241 1    
   240  121  122 am   BACKBONE|DICT|INTERRES
   241  121  123 2    
   242  122  242 1    
   243  122  243 1    
   244  124  125 1    
   245  124  244 1    
   246  124  245 1    
   247  125  126 1    
   248  126  246 1    
   249  126  247 1    
@<TRIPOS>SUBSTRUCTURE
     1 UNK         1 GROUP             0       ****    0 ROOT    
