@<TRIPOS>MOLECULE
3R540
247   249    1
SMALL
USER_CHARGES


@<TRIPOS>ATOM
      1 CA         -2.0521  -11.9733  -46.7046 C.3       0 UNK        -0.1800 
      2 C          -1.7849  -13.4700  -46.5630 C.2       0 UNK         0.5000 
      3 O          -2.4941  -14.1422  -45.8198 O.2       0 UNK        -0.5000 
      4 N          -0.7803  -14.0387  -47.2434 N.am      1 UNK        -0.5000 
      5 CA          0.1704  -13.3769  -48.1514 C.3       1 UNK         0.1400 
      6 C6          0.8118  -14.3939  -49.1276 C.3       23 UNK        -0.0398 
      7 S7         -0.4292  -15.1111  -50.2578 S.3       23 UNK        -0.2404 
      8 C8          0.6182  -15.7434  -51.6059 C.3       23 UNK        -0.0205 
      9 C9          1.0560  -17.1765  -51.3485 C.ar      23 UNK        -0.0193 
     10 C10         0.3156  -18.2363  -51.8768 C.ar      23 UNK        -0.1150 
     11 C11         0.7011  -19.5583  -51.6455 C.ar      23 UNK        -0.0193 
     12 C12         1.8432  -19.8211  -50.8830 C.ar      23 UNK        -0.1150 
     13 C13         2.5905  -18.7689  -50.3434 C.ar      23 UNK        -0.0193 
     14 C14         2.1959  -17.4485  -50.5877 C.ar      23 UNK        -0.1150 
     15 C15         3.8145  -19.0471  -49.4775 C.3       23 UNK        -0.0205 
     16 S16         3.4387  -19.9753  -47.9478 S.3       23 UNK        -0.2404 
     17 C17         1.9611  -19.1255  -47.2964 C.3       23 UNK        -0.0398 
     18 CA          0.7828  -20.1174  -47.1344 C.3       11 UNK         0.1400 
     19 N           0.8850  -20.8598  -45.8778 N.am      11 UNK        -0.5000 
     20 C           0.1160  -21.8818  -45.4853 C.2       10 UNK         0.5000 
     21 O          -0.7572  -22.3801  -46.1951 O.2       10 UNK        -0.5000 
     22 CA          0.3033  -22.3763  -44.0336 C.3       10 UNK         0.1400 
     23 CB          0.2198  -23.9112  -43.9154 C.3       10 UNK        -0.1800 
     24 N           1.5033  -21.8377  -43.3771 N.am      10 UNK        -0.5000 
     25 C           2.7894  -22.1086  -43.6486 C.2       9 UNK         0.5000 
     26 O           3.1562  -22.9597  -44.4585 O.2       9 UNK        -0.5000 
     27 CA          3.8547  -21.2502  -42.9346 C.3       9 UNK         0.1400 
     28 CB          4.5017  -20.2791  -43.9353 C.3       9 UNK        -0.1800 
     29 N           3.3350  -20.4780  -41.8021 N.am      9 UNK        -0.5000 
     30 C           3.0254  -20.9949  -40.6049 C.2       8 UNK         0.5000 
     31 O           3.1712  -22.1829  -40.3156 O.2       8 UNK        -0.5000 
     32 CA          2.4269  -20.0277  -39.5654 C.3       8 UNK         0.1400 
     33 CB          3.5383  -19.2542  -38.8399 C.3       8 UNK        -0.1800 
     34 N           1.4727  -19.0798  -40.1452 N.am      8 UNK        -0.5000 
     35 C           0.2979  -19.4178  -40.6971 C.2       7 UNK         0.5000 
     36 O          -0.1223  -20.5728  -40.7630 O.2       7 UNK        -0.5000 
     37 CA         -0.5181  -18.2808  -41.3383 C.3       7 UNK         0.1400 
     38 CB         -1.2640  -17.4589  -40.2777 C.3       7 UNK        -0.1800 
     39 N           0.3205  -17.4021  -42.1537 N.am      7 UNK        -0.5000 
     40 C           0.9369  -17.7912  -43.2766 C.2       6 UNK         0.5000 
     41 O           0.7667  -18.8906  -43.7997 O.2       6 UNK        -0.5000 
     42 CA          1.9214  -16.8094  -43.9260 C.3       6 UNK         0.1400 
     43 CB          1.2189  -15.9538  -44.9857 C.3       6 UNK        -0.1800 
     44 N           2.6015  -15.9650  -42.9455 N.am      6 UNK        -0.5000 
     45 C           3.5521  -16.4182  -42.1155 C.2       5 UNK         0.5000 
     46 O           3.9728  -17.5749  -42.1268 O.2       5 UNK        -0.5000 
     47 CA          4.0744  -15.4308  -41.0590 C.3       5 UNK         0.1400 
     48 CB          5.1636  -14.5220  -41.6471 C.3       5 UNK        -0.1800 
     49 N           2.9956  -14.6205  -40.4909 N.am      5 UNK        -0.5000 
     50 C           2.0415  -15.1172  -39.6894 C.2       4 UNK         0.5000 
     51 O           2.0012  -16.2948  -39.3331 O.2       4 UNK        -0.5000 
     52 CA          0.9224  -14.1599  -39.2377 C.3       4 UNK         0.1400 
     53 CB          1.2959  -13.4896  -37.9075 C.3       4 UNK        -0.1800 
     54 N           0.5846  -13.1265  -40.2178 N.am      4 UNK        -0.5000 
     55 C           0.1345  -13.3479  -41.4603 C.2       3 UNK         0.5000 
     56 O          -0.0179  -14.4741  -41.9372 O.2       3 UNK        -0.5000 
     57 CA         -0.1729  -12.1118  -42.3352 C.3       3 UNK         0.1400 
     58 CB          0.0394  -10.7593  -41.6185 C.3       3 UNK        -0.1800 
     59 N           0.5696  -12.1270  -43.6002 N.am      3 UNK        -0.5000 
     60 C           1.8965  -12.2546  -43.7582 C.2       2 UNK         0.5000 
     61 O           2.6835  -12.4027  -42.8222 O.2       2 UNK        -0.5000 
     62 CA          2.4168  -12.2468  -45.2078 C.3       2 UNK         0.1400 
     63 CB          3.7916  -12.9297  -45.3535 C.3       2 UNK        -0.1800 
     64 N           1.4440  -12.8761  -46.1027 N.am      2 UNK        -0.5000 
     65 C           1.2632  -12.5845  -47.3965 C.2       1 UNK         0.5000 
     66 O           1.9040  -11.7205  -47.9951 O.2       1 UNK        -0.5000 
     67 C          -0.5684  -19.3895  -47.2486 C.2       11 UNK         0.5000 
     68 O          -1.1565  -19.3844  -48.3273 O.2       11 UNK        -0.5000 
     69 N          -1.0605  -18.8304  -46.1328 N.am      12 UNK        -0.5000 
     70 CA         -2.3662  -18.1699  -46.0622 C.3       12 UNK         0.1400 
     71 CB         -2.5098  -17.4487  -44.7145 C.3       12 UNK        -0.1800 
     72 C          -3.5285  -19.1563  -46.2783 C.2       12 UNK         0.5000 
     73 O          -4.4799  -18.8337  -46.9891 O.2       12 UNK        -0.5000 
     74 N          -3.4057  -20.3575  -45.6951 N.am      13 UNK        -0.5000 
     75 CA         -4.3543  -21.4575  -45.8622 C.3       13 UNK         0.1400 
     76 CB         -4.0626  -22.5560  -44.8286 C.3       13 UNK        -0.1800 
     77 C          -4.3325  -22.0207  -47.2930 C.2       13 UNK         0.5000 
     78 O          -5.3948  -22.2372  -47.8748 O.2       13 UNK        -0.5000 
     79 N          -3.1277  -22.2031  -47.8510 N.am      14 UNK        -0.5000 
     80 CA         -2.9112  -22.6439  -49.2283 C.3       14 UNK         0.1400 
     81 CB         -1.4197  -22.9282  -49.4496 C.3       14 UNK        -0.1800 
     82 C          -3.4463  -21.6418  -50.2675 C.2       14 UNK         0.5000 
     83 O          -4.0574  -22.0653  -51.2470 O.2       14 UNK        -0.5000 
     84 N          -3.2515  -20.3389  -50.0200 N.am      15 UNK        -0.5000 
     85 CA         -3.7942  -19.2490  -50.8322 C.3       15 UNK         0.1400 
     86 CB         -3.1824  -17.9141  -50.3807 C.3       15 UNK        -0.1800 
     87 C          -5.3312  -19.1792  -50.7829 C.2       15 UNK         0.5000 
     88 O          -5.9581  -18.9418  -51.8153 O.2       15 UNK        -0.5000 
     89 N          -5.9105  -19.3997  -49.5931 N.am      16 UNK        -0.5000 
     90 CA         -7.3568  -19.4467  -49.3743 C.3       16 UNK         0.1400 
     91 CB         -7.6559  -19.4157  -47.8678 C.3       16 UNK        -0.1800 
     92 C          -8.0175  -20.6673  -50.0407 C.2       16 UNK         0.5000 
     93 O          -9.0865  -20.5259  -50.6361 O.2       16 UNK        -0.5000 
     94 N          -7.3672  -21.8356  -49.9426 N.am      17 UNK        -0.5000 
     95 CA         -7.7863  -23.0761  -50.5966 C.3       17 UNK         0.1400 
     96 CB         -6.9760  -24.2517  -50.0294 C.3       17 UNK        -0.1800 
     97 C          -7.6421  -23.0104  -52.1277 C.2       17 UNK         0.5000 
     98 O          -8.5258  -23.4848  -52.8433 O.2       17 UNK        -0.5000 
     99 N          -6.5302  -22.4223  -52.5910 N.am      18 UNK        -0.5000 
    100 CA        -6.1008  -22.1763  -53.9706 C.3       18 UNK         0.1400 
    101 CB        -7.0983  -21.2759  -54.7221 C.3       18 UNK        -0.1800 
    102 C         -5.7787  -23.4479  -54.7760 C.2       18 UNK         0.5000 
    103 O         -4.7296  -23.5043  -55.4199 O.2       18 UNK        -0.5000 
    104 N         -6.6896  -24.4312  -54.7570 N.am      19 UNK        -0.5000 
    105 CA        -6.6080  -25.7606  -55.3820 C.3       19 UNK         0.1400 
    106 CB        -5.5464  -26.6100  -54.6532 C.3       19 UNK        -0.1800 
    107 C         -6.3801  -25.7479  -56.9124 C.2       19 UNK         0.5000 
    108 O         -5.9640  -26.7626  -57.4737 O.2       19 UNK        -0.5000 
    109 N         -6.6246  -24.5917  -57.5502 N.am      20 UNK        -0.5000 
    110 CA        -6.2891  -24.2430  -58.9363 C.3       20 UNK         0.1400 
    111 CB        -7.1338  -25.0687  -59.9294 C.3       20 UNK        -0.1800 
    112 C         -4.7717  -24.3080  -59.2384 C.2       20 UNK         0.5000 
    113 O         -4.3905  -24.4950  -60.3957 O.2       20 UNK        -0.5000 
    114 N         -3.9350  -24.1571  -58.2009 N.am      21 UNK        -0.5000 
    115 CA        -2.4785  -24.2940  -58.2707 C.3       21 UNK         0.1400 
    116 CB        -2.0786  -25.6448  -57.6554 C.3       21 UNK        -0.1800 
    117 C         -1.7380  -23.1448  -57.5662 C.2       21 UNK         0.5000 
    118 O         -0.6186  -22.8233  -57.9673 O.2       21 UNK        -0.5000 
    119 N         -2.3545  -22.5495  -56.5387 N.am      22 UNK        -0.5000 
    120 CA        -1.7791  -21.4886  -55.6984 C.3       22 UNK         0.1400 
    121 C         -2.8004  -20.3590  -55.3693 C.2       22 UNK         0.5000 
    122 N         -3.8889  -20.2219  -56.1173 N.am      22 UNK        -0.7600 
    123 O         -2.6075  -19.5815  -54.4404 O.2       22 UNK        -0.5000 
    124 C124       -1.0762  -22.0921  -54.4497 C.3       23 UNK        -0.0398 
    125 S125        0.3616  -21.1088  -53.9037 S.3       23 UNK        -0.2404 
    126 C126       -0.1365  -20.6927  -52.2074 C.3       23 UNK        -0.0205 
    127 H127       -2.3023  -11.7222  -47.7353 H         1 UNK         0.0600 
    128 H128       -2.8941  -11.6768  -46.0788 H         1 UNK         0.0600 
    129 H129       -1.1895  -11.3833  -46.3978 H         1 UNK         0.0600 
    130 H130       -0.6707  -15.0390  -47.1728 H         1 UNK         0.3000 
    131 H131       -0.3759  -12.6484  -48.7534 H         1 UNK         0.0600 
    132 H132        1.5803  -13.9074  -49.7312 H         1 UNK         0.0800 
    133 H133        1.3075  -15.2001  -48.5841 H         1 UNK         0.0800 
    134 H134        1.4868  -15.1005  -51.7541 H         1 UNK         0.0800 
    135 H135        0.0495  -15.6948  -52.5356 H         1 UNK         0.0800 
    136 H136       -0.5690  -18.0349  -52.4653 H         1 UNK         0.1150 
    137 H137        2.1423  -20.8426  -50.6947 H         1 UNK         0.1150 
    138 H138        2.7681  -16.6294  -50.1756 H         1 UNK         0.1150 
    139 H139        4.5417  -19.6118  -50.0622 H         1 UNK         0.0800 
    140 H140        4.3073  -18.1140  -49.2001 H         1 UNK         0.0800 
    141 H141        1.6990  -18.2908  -47.9465 H         1 UNK         0.0800 
    142 H142        2.2188  -18.6689  -46.3419 H         1 UNK         0.0800 
    143 H143        0.8116  -20.8416  -47.9512 H         1 UNK         0.0600 
    144 H144        1.5061  -20.4706  -45.1827 H         1 UNK         0.3000 
    145 H145       -0.5381  -21.9644  -43.4748 H         1 UNK         0.0600 
    146 H146        0.3593  -24.2356  -42.8842 H         1 UNK         0.0600 
    147 H147       -0.7564  -24.2735  -44.2397 H         1 UNK         0.0600 
    148 H148        0.9688  -24.4097  -44.5309 H         1 UNK         0.0600 
    149 H149        1.3220  -21.1053  -42.7030 H         1 UNK         0.3000 
    150 H150        4.6285  -21.9274  -42.5674 H         1 UNK         0.0600 
    151 H151        4.9351  -20.8144  -44.7812 H         1 UNK         0.0600 
    152 H152        5.3042  -19.7078  -43.4685 H         1 UNK         0.0600 
    153 H153        3.7751  -19.5715  -44.3345 H         1 UNK         0.0600 
    154 H154        3.2606  -19.4743  -41.9333 H         1 UNK         0.3000 
    155 H155        1.8927  -20.6271  -38.8253 H         1 UNK         0.0600 
    156 H156        4.0885  -18.6049  -39.5216 H         1 UNK         0.0600 
    157 H157        4.2562  -19.9364  -38.3830 H         1 UNK         0.0600 
    158 H158        3.1292  -18.6315  -38.0441 H         1 UNK         0.0600 
    159 H159        1.7221  -18.0967  -40.0896 H         1 UNK         0.3000 
    160 H160       -1.2624  -18.7387  -41.9914 H         1 UNK         0.0600 
    161 H161       -1.8308  -16.6468  -40.7338 H         1 UNK         0.0600 
    162 H162       -0.5820  -17.0247  -39.5481 H         1 UNK         0.0600 
    163 H163       -1.9706  -18.0838  -39.7305 H         1 UNK         0.0600 
    164 H164        0.4347  -16.4442  -41.8406 H         1 UNK         0.3000 
    165 H165        2.6799  -17.4055  -44.4354 H         1 UNK         0.0600 
    166 H166        1.9539  -15.4328  -45.5959 H         1 UNK         0.0600 
    167 H167        0.6295  -16.5701  -45.6647 H         1 UNK         0.0600 
    168 H168        0.5457  -15.2240  -44.5353 H         1 UNK         0.0600 
    169 H169        2.2619  -15.0212  -42.8244 H         1 UNK         0.3000 
    170 H170        4.5235  -16.0135  -40.2517 H         1 UNK         0.0600 
    171 H171        6.0050  -15.1125  -42.0117 H         1 UNK         0.0600 
    172 H172        4.7938  -13.9321  -42.4854 H         1 UNK         0.0600 
    173 H173        5.5510  -13.8331  -40.8966 H         1 UNK         0.0600 
    174 H174        2.9379  -13.6555  -40.7901 H         1 UNK         0.3000 
    175 H175        0.0251  -14.7590  -39.0741 H         1 UNK         0.0600 
    176 H176        0.4740  -12.8839  -37.5255 H         1 UNK         0.0600 
    177 H177        1.5287  -14.2354  -37.1461 H         1 UNK         0.0600 
    178 H178        2.1691  -12.8446  -38.0133 H         1 UNK         0.0600 
    179 H179        0.7047  -12.1698  -39.9192 H         1 UNK         0.3000 
    180 H180       -1.2296  -12.1860  -42.5955 H         1 UNK         0.0600 
    181 H181        1.0796  -10.6065  -41.3283 H         1 UNK         0.0600 
    182 H182       -0.5767  -10.6829  -40.7216 H         1 UNK         0.0600 
    183 H183       -0.2435   -9.9299  -42.2667 H         1 UNK         0.0600 
    184 H184        0.0071  -12.0073  -44.4287 H         1 UNK         0.3000 
    185 H185        2.5252  -11.1960  -45.4837 H         1 UNK         0.0600 
    186 H186        3.7623  -13.9706  -45.0314 H         1 UNK         0.0600 
    187 H187        4.1387  -12.9078  -46.3865 H         1 UNK         0.0600 
    188 H188        4.5461  -12.4225  -44.7513 H         1 UNK         0.0600 
    189 H189        0.8703  -13.5998  -45.6935 H         1 UNK         0.3000 
    190 H190       -0.5230  -18.9008  -45.2746 H         1 UNK         0.3000 
    191 H191       -2.4109  -17.4204  -46.8557 H         1 UNK         0.0600 
    192 H192       -2.4795  -18.1466  -43.8787 H         1 UNK         0.0600 
    193 H193       -3.4589  -16.9140  -44.6607 H         1 UNK         0.0600 
    194 H194       -1.7201  -16.7118  -44.5699 H         1 UNK         0.0600 
    195 H195       -2.5739  -20.5508  -45.1596 H         1 UNK         0.3000 
    196 H196       -5.3579  -21.0716  -45.6711 H         1 UNK         0.0600 
    197 H197       -4.7822  -23.3711  -44.9156 H         1 UNK         0.0600 
    198 H198       -4.1323  -22.1692  -43.8118 H         1 UNK         0.0600 
    199 H199       -3.0683  -22.9840  -44.9571 H         1 UNK         0.0600 
    200 H200       -2.2962  -22.0570  -47.2852 H         1 UNK         0.3000 
    201 H201       -3.4556  -23.5807  -49.3632 H         1 UNK         0.0600 
    202 H202       -1.0526  -23.6757  -48.7463 H         1 UNK         0.0600 
    203 H203       -0.8172  -22.0287  -49.3244 H         1 UNK         0.0600 
    204 H204       -1.2428  -23.3140  -50.4540 H         1 UNK         0.0600 
    205 H205       -2.6699  -20.0667  -49.2314 H         1 UNK         0.3000 
    206 H206       -3.5012  -19.4255  -51.8687 H         1 UNK         0.0600 
    207 H207       -2.0960  -17.9317  -50.4545 H         1 UNK         0.0600 
    208 H208       -3.5361  -17.0906  -51.0018 H         1 UNK         0.0600 
    209 H209       -3.4385  -17.6817  -49.3466 H         1 UNK         0.0600 
    210 H210       -5.3225  -19.5297  -48.7772 H         1 UNK         0.3000 
    211 H211       -7.7922  -18.5503  -49.8207 H         1 UNK         0.0600 
    212 H212       -7.2177  -20.2692  -47.3504 H         1 UNK         0.0600 
    213 H213       -8.7304  -19.4354  -47.6824 H         1 UNK         0.0600 
    214 H214       -7.2633  -18.5089  -47.4075 H         1 UNK         0.0600 
    215 H215       -6.5292  -21.8820  -49.3688 H         1 UNK         0.3000 
    216 H216       -8.8401  -23.2447  -50.3655 H         1 UNK         0.0600 
    217 H217       -7.2754  -25.1931  -50.4918 H         1 UNK         0.0600 
    218 H218       -7.1293  -24.3529  -48.9548 H         1 UNK         0.0600 
    219 H219       -5.9067  -24.1248  -50.2027 H         1 UNK         0.0600 
    220 H220       -5.8320  -22.1511  -51.9031 H         1 UNK         0.3000 
    221 H221       -5.1659  -21.6216  -53.8808 H         1 UNK         0.0600 
    222 H222       -8.0719  -21.7511  -54.8436 H         1 UNK         0.0600 
    223 H223       -7.2487  -20.3350  -54.1922 H         1 UNK         0.0600 
    224 H224       -6.7291  -21.0321  -55.7187 H         1 UNK         0.0600 
    225 H225       -7.5228  -24.2567  -54.1988 H         1 UNK         0.3000 
    226 H226       -7.5789  -26.2317  -55.2246 H         1 UNK         0.0600 
    227 H227       -4.5393  -26.2269  -54.8216 H         1 UNK         0.0600 
    228 H228       -5.5644  -27.6452  -54.9961 H         1 UNK         0.0600 
    229 H229       -5.7237  -26.6243  -53.5778 H         1 UNK         0.0600 
    230 H230       -6.9736  -23.8304  -56.9859 H         1 UNK         0.3000 
    231 H231       -6.5710  -23.1963  -59.0593 H         1 UNK         0.0600 
    232 H232       -8.1958  -25.0038  -59.6927 H         1 UNK         0.0600 
    233 H233       -6.8522  -26.1221  -59.9242 H         1 UNK         0.0600 
    234 H234       -7.0083  -24.7032  -60.9493 H         1 UNK         0.0600 
    235 H235       -4.3308  -24.0079  -57.2785 H         1 UNK         0.3000 
    236 H236       -2.1476  -24.2825  -59.3108 H         1 UNK         0.0600 
    237 H237       -2.5341  -26.4736  -58.1976 H         1 UNK         0.0600 
    238 H238       -0.9978  -25.7876  -57.6887 H         1 UNK         0.0600 
    239 H239       -2.3901  -25.7175  -56.6128 H         1 UNK         0.0600 
    240 H240       -3.2601  -22.8917  -56.2249 H         1 UNK         0.3000 
    241 H241       -1.0210  -20.9772  -56.2940 H         1 UNK         0.0600 
    242 H242       -4.5318  -19.4744  -55.9121 H         1 UNK         0.3800 
    243 H243       -4.0406  -20.8120  -56.9186 H         1 UNK         0.3800 
    244 H244       -1.7870  -22.2395  -53.6344 H         1 UNK         0.0800 
    245 H245       -0.6898  -23.0859  -54.6798 H         1 UNK         0.0800 
    246 H246       -0.0383  -21.5795  -51.5831 H         1 UNK         0.0800 
    247 H247       -1.1896  -20.4093  -52.1880 H         1 UNK         0.0800 
@<TRIPOS>BOND
     1    1    2 1    
     2    1  127 1    
     3    1  128 1    
     4    1  129 1    
     5    2    3 2    
     6    2    4 am   BACKBONE|DICT|INTERRES
     7    4    5 1    
     8    4  130 1    
     9    5    6 1    
    10    5   65 1    
    11    5  131 1    
    12    6    7 1    
    13    6  132 1    
    14    6  133 1    
    15    7    8 1    
    16    8    9 1    
    17    8  134 1    
    18    8  135 1    
    19    9   10 ar   
    20    9   14 ar   
    21   10   11 ar   
    22   10  136 1    
    23   11   12 ar   
    24   11  126 1    
    25   12   13 ar   
    26   12  137 1    
    27   13   14 ar   
    28   13   15 1    
    29   14  138 1    
    30   15   16 1    
    31   15  139 1    
    32   15  140 1    
    33   16   17 1    
    34   17   18 1    
    35   17  141 1    
    36   17  142 1    
    37   18   19 1    
    38   18   67 1    
    39   18  143 1    
    40   19   20 am   BACKBONE|DICT|INTERRES
    41   19  144 1    
    42   20   21 2    
    43   20   22 1    
    44   22   23 1    
    45   22   24 1    
    46   22  145 1    
    47   23  146 1    
    48   23  147 1    
    49   23  148 1    
    50   24   25 am   BACKBONE|DICT|INTERRES
    51   24  149 1    
    52   25   26 2    
    53   25   27 1    
    54   27   28 1    
    55   27   29 1    
    56   27  150 1    
    57   28  151 1    
    58   28  152 1    
    59   28  153 1    
    60   29   30 am   BACKBONE|DICT|INTERRES
    61   29  154 1    
    62   30   31 2    
    63   30   32 1    
    64   32   33 1    
    65   32   34 1    
    66   32  155 1    
    67   33  156 1    
    68   33  157 1    
    69   33  158 1    
    70   34   35 am   BACKBONE|DICT|INTERRES
    71   34  159 1    
    72   35   36 2    
    73   35   37 1    
    74   37   38 1    
    75   37   39 1    
    76   37  160 1    
    77   38  161 1    
    78   38  162 1    
    79   38  163 1    
    80   39   40 am   BACKBONE|DICT|INTERRES
    81   39  164 1    
    82   40   41 2    
    83   40   42 1    
    84   42   43 1    
    85   42   44 1    
    86   42  165 1    
    87   43  166 1    
    88   43  167 1    
    89   43  168 1    
    90   44   45 am   BACKBONE|DICT|INTERRES
    91   44  169 1    
    92   45   46 2    
    93   45   47 1    
    94   47   48 1    
    95   47   49 1    
    96   47  170 1    
    97   48  171 1    
    98   48  172 1    
    99   48  173 1    
   100   49   50 am   BACKBONE|DICT|INTERRES
   101   49  174 1    
   102   50   51 2    
   103   50   52 1    
   104   52   53 1    
   105   52   54 1    
   106   52  175 1    
   107   53  176 1    
   108   53  177 1    
   109   53  178 1    
   110   54   55 am   BACKBONE|DICT|INTERRES
   111   54  179 1    
   112   55   56 2    
   113   55   57 1    
   114   57   58 1    
   115   57   59 1    
   116   57  180 1    
   117   58  181 1    
   118   58  182 1    
   119   58  183 1    
   120   59   60 am   BACKBONE|DICT|INTERRES
   121   59  184 1    
   122   60   61 2    
   123   60   62 1    
   124   62   63 1    
   125   62   64 1    
   126   62  185 1    
   127   63  186 1    
   128   63  187 1    
   129   63  188 1    
   130   64   65 am   BACKBONE|DICT|INTERRES
   131   64  189 1    
   132   65   66 2    
   133   67   68 2    
   134   67   69 am   BACKBONE|DICT|INTERRES
   135   69   70 1    
   136   69  190 1    
   137   70   71 1    
   138   70   72 1    
   139   70  191 1    
   140   71  192 1    
   141   71  193 1    
   142   71  194 1    
   143   72   73 2    
   144   72   74 am   BACKBONE|DICT|INTERRES
   145   74   75 1    
   146   74  195 1    
   147   75   76 1    
   148   75   77 1    
   149   75  196 1    
   150   76  197 1    
   151   76  198 1    
   152   76  199 1    
   153   77   78 2    
   154   77   79 am   BACKBONE|DICT|INTERRES
   155   79   80 1    
   156   79  200 1    
   157   80   81 1    
   158   80   82 1    
   159   80  201 1    
   160   81  202 1    
   161   81  203 1    
   162   81  204 1    
   163   82   83 2    
   164   82   84 am   BACKBONE|DICT|INTERRES
   165   84   85 1    
   166   84  205 1    
   167   85   86 1    
   168   85   87 1    
   169   85  206 1    
   170   86  207 1    
   171   86  208 1    
   172   86  209 1    
   173   87   88 2    
   174   87   89 am   BACKBONE|DICT|INTERRES
   175   89   90 1    
   176   89  210 1    
   177   90   91 1    
   178   90   92 1    
   179   90  211 1    
   180   91  212 1    
   181   91  213 1    
   182   91  214 1    
   183   92   93 2    
   184   92   94 am   BACKBONE|DICT|INTERRES
   185   94   95 1    
   186   94  215 1    
   187   95   96 1    
   188   95   97 1    
   189   95  216 1    
   190   96  217 1    
   191   96  218 1    
   192   96  219 1    
   193   97   98 2    
   194   97   99 am   BACKBONE|DICT|INTERRES
   195   99  100 1    
   196   99  220 1    
   197  100  101 1    
   198  100  102 1    
   199  100  221 1    
   200  101  222 1    
   201  101  223 1    
   202  101  224 1    
   203  102  103 2    
   204  102  104 am   BACKBONE|DICT|INTERRES
   205  104  105 1    
   206  104  225 1    
   207  105  106 1    
   208  105  107 1    
   209  105  226 1    
   210  106  227 1    
   211  106  228 1    
   212  106  229 1    
   213  107  108 2    
   214  107  109 am   BACKBONE|DICT|INTERRES
   215  109  110 1    
   216  109  230 1    
   217  110  111 1    
   218  110  112 1    
   219  110  231 1    
   220  111  232 1    
   221  111  233 1    
   222  111  234 1    
   223  112  113 2    
   224  112  114 am   BACKBONE|DICT|INTERRES
   225  114  115 1    
   226  114  235 1    
   227  115  116 1    
   228  115  117 1    
   229  115  236 1    
   230  116  237 1    
   231  116  238 1    
   232  116  239 1    
   233  117  118 2    
   234  117  119 am   BACKBONE|DICT|INTERRES
   235  119  120 1    
   236  119  240 1    
   237  120  121 1    
   238  120  124 1    
   239  120  241 1    
   240  121  122 am   BACKBONE|DICT|INTERRES
   241  121  123 2    
   242  122  242 1    
   243  122  243 1    
   244  124  125 1    
   245  124  244 1    
   246  124  245 1    
   247  125  126 1    
   248  126  246 1    
   249  126  247 1    
@<TRIPOS>SUBSTRUCTURE
     1 UNK         1 GROUP             0       ****    0 ROOT    
