@<TRIPOS>MOLECULE
3R540
247   249    1
SMALL
USER_CHARGES


@<TRIPOS>ATOM
      1 CA         -3.8827  -17.0607  -45.0456 C.3       0 UNK        -0.1800 
      2 C          -3.5437  -16.2257  -46.2699 C.2       0 UNK         0.5000 
      3 O          -4.4467  -15.7807  -46.9791 O.2       0 UNK        -0.5000 
      4 N          -2.2487  -16.0073  -46.5245 N.am      1 UNK        -0.5000 
      5 CA         -1.7211  -15.2217  -47.6424 C.3       1 UNK         0.1400 
      6 C6         -0.2750  -15.6330  -48.0123 C.3       23 UNK        -0.0398 
      7 S7         -0.1112  -17.3654  -48.5560 S.3       23 UNK        -0.2404 
      8 C8          1.6341  -17.3399  -49.0687 C.3       23 UNK        -0.0205 
      9 C9          2.0422  -18.6168  -49.7867 C.ar      23 UNK        -0.0193 
     10 C10         1.6393  -18.8324  -51.1073 C.ar      23 UNK        -0.1150 
     11 C11         2.0427  -19.9783  -51.7960 C.ar      23 UNK        -0.0193 
     12 C12         2.8581  -20.9138  -51.1535 C.ar      23 UNK        -0.1150 
     13 C13         3.2844  -20.7054  -49.8385 C.ar      23 UNK        -0.0193 
     14 C14         2.8665  -19.5553  -49.1579 C.ar      23 UNK        -0.1150 
     15 C15         4.2484  -21.6966  -49.1937 C.3       23 UNK        -0.0205 
     16 S16         3.7530  -22.2196  -47.5225 S.3       23 UNK        -0.2404 
     17 C17         2.1567  -23.0346  -47.8494 C.3       23 UNK        -0.0398 
     18 CA          1.8994  -24.2040  -46.8714 C.3       11 UNK         0.1400 
     19 N           1.8350  -23.7529  -45.4811 N.am      11 UNK        -0.5000 
     20 C           2.0469  -24.5328  -44.4121 C.2       10 UNK         0.5000 
     21 O           2.3199  -25.7317  -44.4993 O.2       10 UNK        -0.5000 
     22 CA          1.9319  -23.8755  -43.0154 C.3       10 UNK         0.1400 
     23 CB          2.8606  -24.5277  -41.9699 C.3       10 UNK        -0.1800 
     24 N           2.1034  -22.4182  -43.0320 N.am      10 UNK        -0.5000 
     25 C           3.1807  -21.7188  -43.4241 C.2       9 UNK         0.5000 
     26 O           4.2689  -22.2314  -43.6885 O.2       9 UNK        -0.5000 
     27 CA          3.0043  -20.1858  -43.5504 C.3       9 UNK         0.1400 
     28 CB          3.7979  -19.5956  -44.7339 C.3       9 UNK        -0.1800 
     29 N           1.6076  -19.7289  -43.6111 N.am      9 UNK        -0.5000 
     30 C           0.6537  -20.0866  -44.4874 C.2       8 UNK         0.5000 
     31 O           0.8295  -20.9143  -45.3815 O.2       8 UNK        -0.5000 
     32 CA         -0.7319  -19.4269  -44.3247 C.3       8 UNK         0.1400 
     33 CB         -1.8861  -20.4470  -44.4397 C.3       8 UNK        -0.1800 
     34 N          -0.8618  -18.6100  -43.1082 N.am      8 UNK        -0.5000 
     35 C          -0.9417  -19.0233  -41.8315 C.2       7 UNK         0.5000 
     36 O          -0.9014  -20.2074  -41.4973 O.2       7 UNK        -0.5000 
     37 CA         -1.0303  -17.9414  -40.7310 C.3       7 UNK         0.1400 
     38 CB          0.1831  -18.0287  -39.7902 C.3       7 UNK        -0.1800 
     39 N          -1.1049  -16.5771  -41.2575 N.am      7 UNK        -0.5000 
     40 C          -2.2026  -15.9952  -41.7593 C.2       6 UNK         0.5000 
     41 O          -3.3171  -16.5162  -41.7428 O.2       6 UNK        -0.5000 
     42 CA         -2.0172  -14.6120  -42.4201 C.3       6 UNK         0.1400 
     43 CB         -2.4632  -13.5008  -41.4572 C.3       6 UNK        -0.1800 
     44 N          -0.6455  -14.3298  -42.8635 N.am      6 UNK        -0.5000 
     45 C           0.0454  -15.0351  -43.7687 C.2       5 UNK         0.5000 
     46 O          -0.4004  -16.0253  -44.3516 O.2       5 UNK        -0.5000 
     47 CA          1.4616  -14.5332  -44.0638 C.3       5 UNK         0.1400 
     48 CB          2.3571  -15.5878  -44.7447 C.3       5 UNK        -0.1800 
     49 N           1.3590  -13.3213  -44.8685 N.am      5 UNK        -0.5000 
     50 C           2.2722  -12.3446  -44.8933 C.2       4 UNK         0.5000 
     51 O           3.3494  -12.3949  -44.2980 O.2       4 UNK        -0.5000 
     52 CA          1.9046  -11.0802  -45.6884 C.3       4 UNK         0.1400 
     53 CB          2.1878  -11.2706  -47.1868 C.3       4 UNK        -0.1800 
     54 N           0.5083  -10.6807  -45.4960 N.am      4 UNK        -0.5000 
     55 C           0.0188  -10.1438  -44.3668 C.2       3 UNK         0.5000 
     56 O           0.6980   -9.9598  -43.3561 O.2       3 UNK        -0.5000 
     57 CA         -1.4619   -9.7096  -44.3577 C.3       3 UNK         0.1400 
     58 CB         -1.5705   -8.1763  -44.3338 C.3       3 UNK        -0.1800 
     59 N          -2.2012  -10.2085  -45.5173 N.am      3 UNK        -0.5000 
     60 C          -2.8347  -11.3859  -45.5653 C.2       2 UNK         0.5000 
     61 O          -2.9536  -12.1351  -44.5950 O.2       2 UNK        -0.5000 
     62 CA         -3.4150  -11.8219  -46.9292 C.3       2 UNK         0.1400 
     63 CB         -3.0469  -10.8869  -48.1040 C.3       2 UNK        -0.1800 
     64 N          -3.0451  -13.2010  -47.2582 N.am      2 UNK        -0.5000 
     65 C          -1.8103  -13.7216  -47.2970 C.2       1 UNK         0.5000 
     66 O          -0.7854  -13.0851  -47.0385 O.2       1 UNK        -0.5000 
     67 C           0.5956  -24.9369  -47.2288 C.2       11 UNK         0.5000 
     68 O          -0.4868  -24.4079  -46.9686 O.2       11 UNK        -0.5000 
     69 N           0.7160  -26.1273  -47.8321 N.am      12 UNK        -0.5000 
     70 CA         -0.4046  -27.0138  -48.1605 C.3       12 UNK         0.1400 
     71 CB          0.1379  -28.3358  -48.7239 C.3       12 UNK        -0.1800 
     72 C          -1.4284  -26.3922  -49.1268 C.2       12 UNK         0.5000 
     73 O          -2.6296  -26.5576  -48.9224 O.2       12 UNK        -0.5000 
     74 N          -0.9402  -25.6577  -50.1359 N.am      13 UNK        -0.5000 
     75 CA         -1.7734  -24.9370  -51.1006 C.3       13 UNK         0.1400 
     76 CB         -0.9010  -24.4504  -52.2659 C.3       13 UNK        -0.1800 
     77 C          -2.5338  -23.7631  -50.4584 C.2       13 UNK         0.5000 
     78 O          -3.7077  -23.5535  -50.7639 O.2       13 UNK        -0.5000 
     79 N          -1.8686  -23.0441  -49.5452 N.am      14 UNK        -0.5000 
     80 CA         -2.4610  -21.9383  -48.7979 C.3       14 UNK         0.1400 
     81 CB         -1.3558  -21.0920  -48.1538 C.3       14 UNK        -0.1800 
     82 C          -3.4980  -22.4237  -47.7710 C.2       14 UNK         0.5000 
     83 O          -4.5661  -21.8220  -47.6617 O.2       14 UNK        -0.5000 
     84 N          -3.2052  -23.5458  -47.0984 N.am      15 UNK        -0.5000 
     85 CA         -4.1283  -24.2578  -46.2105 C.3       15 UNK         0.1400 
     86 CB         -3.3709  -25.3816  -45.4881 C.3       15 UNK        -0.1800 
     87 C          -5.3663  -24.8139  -46.9458 C.2       15 UNK         0.5000 
     88 O          -6.4514  -24.8497  -46.3657 O.2       15 UNK        -0.5000 
     89 N          -5.1953  -25.1852  -48.2225 N.am      16 UNK        -0.5000 
     90 CA         -6.2569  -25.5890  -49.1494 C.3       16 UNK         0.1400 
     91 CB         -5.6528  -26.4869  -50.2423 C.3       16 UNK        -0.1800 
     92 C          -7.0310  -24.3994  -49.7644 C.2       16 UNK         0.5000 
     93 O          -7.8689  -24.6205  -50.6397 O.2       16 UNK        -0.5000 
     94 N          -6.7550  -23.1726  -49.2976 N.am      17 UNK        -0.5000 
     95 CA         -7.4009  -21.9057  -49.6506 C.3       17 UNK         0.1400 
     96 CB         -8.9230  -21.9468  -49.3955 C.3       17 UNK        -0.1800 
     97 C          -7.0341  -21.3674  -51.0484 C.2       17 UNK         0.5000 
     98 O          -7.7473  -20.5093  -51.5698 O.2       17 UNK        -0.5000 
     99 N          -5.8956  -21.8065  -51.6024 N.am      18 UNK        -0.5000 
    100 CA        -5.2626  -21.2224  -52.7895 C.3       18 UNK         0.1400 
    101 CB        -4.7713  -22.3489  -53.7169 C.3       18 UNK        -0.1800 
    102 C         -4.1240  -20.2657  -52.3758 C.2       18 UNK         0.5000 
    103 O         -3.1390  -20.1273  -53.0987 O.2       18 UNK        -0.5000 
    104 N         -4.2620  -19.6334  -51.2022 N.am      19 UNK        -0.5000 
    105 CA        -3.2867  -18.7330  -50.5938 C.3       19 UNK         0.1400 
    106 CB        -3.7988  -18.3181  -49.2089 C.3       19 UNK        -0.1800 
    107 C         -3.0018  -17.5101  -51.4809 C.2       19 UNK         0.5000 
    108 O         -3.9229  -16.7513  -51.7887 O.2       19 UNK        -0.5000 
    109 N         -1.7349  -17.3831  -51.8987 N.am      20 UNK        -0.5000 
    110 CA        -1.2059  -16.3887  -52.8404 C.3       20 UNK         0.1400 
    111 CB        -1.3209  -14.9636  -52.2595 C.3       20 UNK        -0.1800 
    112 C         -1.7879  -16.5114  -54.2683 C.2       20 UNK         0.5000 
    113 O         -1.7290  -15.5496  -55.0363 O.2       20 UNK        -0.5000 
    114 N         -2.3160  -17.6932  -54.6114 N.am      21 UNK        -0.5000 
    115 CA        -2.9212  -18.0179  -55.9014 C.3       21 UNK         0.1400 
    116 CB        -4.4140  -17.6358  -55.8800 C.3       21 UNK        -0.1800 
    117 C         -2.6834  -19.5042  -56.2258 C.2       21 UNK         0.5000 
    118 O         -3.5755  -20.1755  -56.7471 O.2       21 UNK        -0.5000 
    119 N         -1.4884  -19.9987  -55.8742 N.am      22 UNK        -0.5000 
    120 CA        -1.1046  -21.4195  -55.9325 C.3       22 UNK         0.1400 
    121 C         -0.9747  -22.0202  -57.3646 C.2       22 UNK         0.5000 
    122 N         -0.9196  -21.2205  -58.4227 N.am      22 UNK        -0.7600 
    123 O         -0.9221  -23.2375  -57.5172 O.2       22 UNK        -0.5000 
    124 C124        0.1857  -21.7021  -55.1193 C.3       23 UNK        -0.0398 
    125 S125        0.1051  -21.1534  -53.3773 S.3       23 UNK        -0.2404 
    126 C126        1.6403  -20.1901  -53.2465 C.3       23 UNK        -0.0205 
    127 H127       -4.3986  -17.9729  -45.3449 H         1 UNK         0.0600 
    128 H128       -4.5352  -16.5001  -44.3765 H         1 UNK         0.0600 
    129 H129       -2.9892  -17.3417  -44.4906 H         1 UNK         0.0600 
    130 H130       -1.5524  -16.3059  -45.8477 H         1 UNK         0.3000 
    131 H131       -2.3444  -15.3886  -48.5236 H         1 UNK         0.0600 
    132 H132        0.3895  -15.4749  -47.1651 H         1 UNK         0.0800 
    133 H133        0.0974  -14.9945  -48.8155 H         1 UNK         0.0800 
    134 H134        2.2605  -17.1767  -48.1902 H         1 UNK         0.0800 
    135 H135        1.8073  -16.4916  -49.7325 H         1 UNK         0.0800 
    136 H136        1.0280  -18.0956  -51.6036 H         1 UNK         0.1150 
    137 H137        3.1828  -21.7933  -51.6918 H         1 UNK         0.1150 
    138 H138        3.2005  -19.3823  -48.1447 H         1 UNK         0.1150 
    139 H139        4.3684  -22.5848  -49.8160 H         1 UNK         0.0800 
    140 H140        5.2324  -21.2304  -49.1335 H         1 UNK         0.0800 
    141 H141        2.1488  -23.3920  -48.8807 H         1 UNK         0.0800 
    142 H142        1.3734  -22.2799  -47.7764 H         1 UNK         0.0800 
    143 H143        2.7298  -24.9073  -46.9660 H         1 UNK         0.0600 
    144 H144        1.5756  -22.7805  -45.3456 H         1 UNK         0.3000 
    145 H145        0.9047  -24.0494  -42.6924 H         1 UNK         0.0600 
    146 H146        2.7579  -24.0477  -40.9968 H         1 UNK         0.0600 
    147 H147        2.6193  -25.5827  -41.8359 H         1 UNK         0.0600 
    148 H148        3.9085  -24.4690  -42.2650 H         1 UNK         0.0600 
    149 H149        1.2673  -21.8859  -42.8348 H         1 UNK         0.3000 
    150 H150        3.4220  -19.7669  -42.6340 H         1 UNK         0.0600 
    151 H151        4.8530  -19.8663  -44.6835 H         1 UNK         0.0600 
    152 H152        3.7459  -18.5073  -44.7388 H         1 UNK         0.0600 
    153 H153        3.4133  -19.9488  -45.6898 H         1 UNK         0.0600 
    154 H154        1.3399  -19.0632  -42.9017 H         1 UNK         0.3000 
    155 H155       -0.8256  -18.7336  -45.1620 H         1 UNK         0.0600 
    156 H156       -2.8559  -19.9618  -44.3323 H         1 UNK         0.0600 
    157 H157       -1.8175  -21.2316  -43.6866 H         1 UNK         0.0600 
    158 H158       -1.8817  -20.9439  -45.4072 H         1 UNK         0.0600 
    159 H159       -0.8487  -17.6100  -43.2818 H         1 UNK         0.3000 
    160 H160       -1.9309  -18.1447  -40.1480 H         1 UNK         0.0600 
    161 H161        1.1187  -17.8449  -40.3197 H         1 UNK         0.0600 
    162 H162        0.2547  -19.0150  -39.3298 H         1 UNK         0.0600 
    163 H163        0.1070  -17.3022  -38.9809 H         1 UNK         0.0600 
    164 H164       -0.2383  -16.0616  -41.2944 H         1 UNK         0.3000 
    165 H165       -2.6606  -14.5848  -43.3020 H         1 UNK         0.0600 
    166 H166       -2.4055  -12.5202  -41.9299 H         1 UNK         0.0600 
    167 H167       -3.4979  -13.6470  -41.1443 H         1 UNK         0.0600 
    168 H168       -1.8473  -13.4767  -40.5574 H         1 UNK         0.0600 
    169 H169       -0.2082  -13.5173  -42.4530 H         1 UNK         0.3000 
    170 H170        1.9147  -14.2855  -43.1013 H         1 UNK         0.0600 
    171 H171        2.3908  -16.5042  -44.1545 H         1 UNK         0.0600 
    172 H172        2.0044  -15.8552  -45.7381 H         1 UNK         0.0600 
    173 H173        3.3820  -15.2304  -44.8433 H         1 UNK         0.0600 
    174 H174        0.5044  -13.2026  -45.4046 H         1 UNK         0.3000 
    175 H175        2.5404  -10.2677  -45.3300 H         1 UNK         0.0600 
    176 H176        3.2359  -11.5214  -47.3547 H         1 UNK         0.0600 
    177 H177        1.5883  -12.0732  -47.6166 H         1 UNK         0.0600 
    178 H178        1.9787  -10.3591  -47.7467 H         1 UNK         0.0600 
    179 H179       -0.1245  -10.8711  -46.2600 H         1 UNK         0.3000 
    180 H180       -1.9109  -10.0946  -43.4396 H         1 UNK         0.0600 
    181 H181       -1.0615   -7.7606  -43.4631 H         1 UNK         0.0600 
    182 H182       -1.1234   -7.7264  -45.2212 H         1 UNK         0.0600 
    183 H183       -2.6112   -7.8559  -44.2826 H         1 UNK         0.0600 
    184 H184       -2.1564   -9.6479  -46.3561 H         1 UNK         0.3000 
    185 H185       -4.4999  -11.8091  -46.8174 H         1 UNK         0.0600 
    186 H186       -3.4207   -9.8754  -47.9410 H         1 UNK         0.0600 
    187 H187       -1.9690  -10.8284  -48.2601 H         1 UNK         0.0600 
    188 H188       -3.4925  -11.2406  -49.0339 H         1 UNK         0.0600 
    189 H189       -3.8167  -13.8489  -47.3783 H         1 UNK         0.3000 
    190 H190        1.6398  -26.4936  -48.0121 H         1 UNK         0.3000 
    191 H191       -0.9297  -27.2346  -47.2289 H         1 UNK         0.0600 
    192 H192        0.7127  -28.1800  -49.6377 H         1 UNK         0.0600 
    193 H193       -0.6761  -29.0223  -48.9611 H         1 UNK         0.0600 
    194 H194        0.7830  -28.8372  -48.0022 H         1 UNK         0.0600 
    195 H195        0.0604  -25.5768  -50.2381 H         1 UNK         0.3000 
    196 H196       -2.5146  -25.6323  -51.5001 H         1 UNK         0.0600 
    197 H197       -0.4469  -25.2879  -52.7956 H         1 UNK         0.0600 
    198 H198       -0.0988  -23.7971  -51.9213 H         1 UNK         0.0600 
    199 H199       -1.4932  -23.8904  -52.9912 H         1 UNK         0.0600 
    200 H200       -0.9268  -23.3104  -49.3031 H         1 UNK         0.3000 
    201 H201       -2.9908  -21.3120  -49.5123 H         1 UNK         0.0600 
    202 H202       -1.7709  -20.2033  -47.6776 H         1 UNK         0.0600 
    203 H203       -0.8182  -21.6552  -47.3923 H         1 UNK         0.0600 
    204 H204       -0.6315  -20.7505  -48.8941 H         1 UNK         0.0600 
    205 H205       -2.2762  -23.9483  -47.2030 H         1 UNK         0.3000 
    206 H206       -4.4809  -23.5470  -45.4604 H         1 UNK         0.0600 
    207 H207       -2.5284  -24.9869  -44.9196 H         1 UNK         0.0600 
    208 H208       -4.0223  -25.9042  -44.7867 H         1 UNK         0.0600 
    209 H209       -2.9833  -26.1200  -46.1901 H         1 UNK         0.0600 
    210 H210       -4.2545  -25.1875  -48.5988 H         1 UNK         0.3000 
    211 H211       -6.9859  -26.1854  -48.5974 H         1 UNK         0.0600 
    212 H212       -6.4251  -26.8718  -50.9091 H         1 UNK         0.0600 
    213 H213       -5.1453  -27.3485  -49.8083 H         1 UNK         0.0600 
    214 H214       -4.9318  -25.9464  -50.8546 H         1 UNK         0.0600 
    215 H215       -6.0188  -23.0886  -48.6068 H         1 UNK         0.3000 
    216 H216       -6.9881  -21.1776  -48.9510 H         1 UNK         0.0600 
    217 H217       -9.3573  -20.9487  -49.4628 H         1 UNK         0.0600 
    218 H218       -9.1465  -22.3281  -48.3991 H         1 UNK         0.0600 
    219 H219       -9.4416  -22.5736  -50.1210 H         1 UNK         0.0600 
    220 H220       -5.3379  -22.5019  -51.1129 H         1 UNK         0.3000 
    221 H221       -5.9853  -20.6287  -53.3523 H         1 UNK         0.0600 
    222 H222       -3.9466  -22.9088  -53.2773 H         1 UNK         0.0600 
    223 H223       -5.5726  -23.0519  -53.9438 H         1 UNK         0.0600 
    224 H224       -4.4178  -21.9434  -54.6655 H         1 UNK         0.0600 
    225 H225       -5.1216  -19.7692  -50.6939 H         1 UNK         0.3000 
    226 H226       -2.3576  -19.2905  -50.4601 H         1 UNK         0.0600 
    227 H227       -4.0106  -19.1824  -48.5800 H         1 UNK         0.0600 
    228 H228       -3.0489  -17.7230  -48.6934 H         1 UNK         0.0600 
    229 H229       -4.7083  -17.7194  -49.2732 H         1 UNK         0.0600 
    230 H230       -1.0737  -18.0843  -51.5970 H         1 UNK         0.3000 
    231 H231       -0.1429  -16.6065  -52.9440 H         1 UNK         0.0600 
    232 H232       -0.8968  -14.9119  -51.2567 H         1 UNK         0.0600 
    233 H233       -2.3571  -14.6293  -52.2038 H         1 UNK         0.0600 
    234 H234       -0.7804  -14.2447  -52.8761 H         1 UNK         0.0600 
    235 H235       -2.3506  -18.4439  -53.9262 H         1 UNK         0.3000 
    236 H236       -2.4273  -17.4476  -56.6906 H         1 UNK         0.0600 
    237 H237       -4.5476  -16.5748  -55.6686 H         1 UNK         0.0600 
    238 H238       -4.8865  -17.8354  -56.8424 H         1 UNK         0.0600 
    239 H239       -4.9570  -18.1990  -55.1198 H         1 UNK         0.0600 
    240 H240       -0.8215  -19.3794  -55.4399 H         1 UNK         0.3000 
    241 H241       -1.9129  -21.9750  -55.4525 H         1 UNK         0.0600 
    242 H242       -0.8392  -21.6198  -59.3448 H         1 UNK         0.3800 
    243 H243       -0.9705  -20.2206  -58.3116 H         1 UNK         0.3800 
    244 H244        0.3971  -22.7729  -55.1063 H         1 UNK         0.0800 
    245 H245        1.0396  -21.2340  -55.6116 H         1 UNK         0.0800 
    246 H246        1.5118  -19.2317  -53.7516 H         1 UNK         0.0800 
    247 H247        2.4455  -20.7088  -53.7692 H         1 UNK         0.0800 
@<TRIPOS>BOND
     1    1    2 1    
     2    1  127 1    
     3    1  128 1    
     4    1  129 1    
     5    2    3 2    
     6    2    4 am   BACKBONE|DICT|INTERRES
     7    4    5 1    
     8    4  130 1    
     9    5    6 1    
    10    5   65 1    
    11    5  131 1    
    12    6    7 1    
    13    6  132 1    
    14    6  133 1    
    15    7    8 1    
    16    8    9 1    
    17    8  134 1    
    18    8  135 1    
    19    9   10 ar   
    20    9   14 ar   
    21   10   11 ar   
    22   10  136 1    
    23   11   12 ar   
    24   11  126 1    
    25   12   13 ar   
    26   12  137 1    
    27   13   14 ar   
    28   13   15 1    
    29   14  138 1    
    30   15   16 1    
    31   15  139 1    
    32   15  140 1    
    33   16   17 1    
    34   17   18 1    
    35   17  141 1    
    36   17  142 1    
    37   18   19 1    
    38   18   67 1    
    39   18  143 1    
    40   19   20 am   BACKBONE|DICT|INTERRES
    41   19  144 1    
    42   20   21 2    
    43   20   22 1    
    44   22   23 1    
    45   22   24 1    
    46   22  145 1    
    47   23  146 1    
    48   23  147 1    
    49   23  148 1    
    50   24   25 am   BACKBONE|DICT|INTERRES
    51   24  149 1    
    52   25   26 2    
    53   25   27 1    
    54   27   28 1    
    55   27   29 1    
    56   27  150 1    
    57   28  151 1    
    58   28  152 1    
    59   28  153 1    
    60   29   30 am   BACKBONE|DICT|INTERRES
    61   29  154 1    
    62   30   31 2    
    63   30   32 1    
    64   32   33 1    
    65   32   34 1    
    66   32  155 1    
    67   33  156 1    
    68   33  157 1    
    69   33  158 1    
    70   34   35 am   BACKBONE|DICT|INTERRES
    71   34  159 1    
    72   35   36 2    
    73   35   37 1    
    74   37   38 1    
    75   37   39 1    
    76   37  160 1    
    77   38  161 1    
    78   38  162 1    
    79   38  163 1    
    80   39   40 am   BACKBONE|DICT|INTERRES
    81   39  164 1    
    82   40   41 2    
    83   40   42 1    
    84   42   43 1    
    85   42   44 1    
    86   42  165 1    
    87   43  166 1    
    88   43  167 1    
    89   43  168 1    
    90   44   45 am   BACKBONE|DICT|INTERRES
    91   44  169 1    
    92   45   46 2    
    93   45   47 1    
    94   47   48 1    
    95   47   49 1    
    96   47  170 1    
    97   48  171 1    
    98   48  172 1    
    99   48  173 1    
   100   49   50 am   BACKBONE|DICT|INTERRES
   101   49  174 1    
   102   50   51 2    
   103   50   52 1    
   104   52   53 1    
   105   52   54 1    
   106   52  175 1    
   107   53  176 1    
   108   53  177 1    
   109   53  178 1    
   110   54   55 am   BACKBONE|DICT|INTERRES
   111   54  179 1    
   112   55   56 2    
   113   55   57 1    
   114   57   58 1    
   115   57   59 1    
   116   57  180 1    
   117   58  181 1    
   118   58  182 1    
   119   58  183 1    
   120   59   60 am   BACKBONE|DICT|INTERRES
   121   59  184 1    
   122   60   61 2    
   123   60   62 1    
   124   62   63 1    
   125   62   64 1    
   126   62  185 1    
   127   63  186 1    
   128   63  187 1    
   129   63  188 1    
   130   64   65 am   BACKBONE|DICT|INTERRES
   131   64  189 1    
   132   65   66 2    
   133   67   68 2    
   134   67   69 am   BACKBONE|DICT|INTERRES
   135   69   70 1    
   136   69  190 1    
   137   70   71 1    
   138   70   72 1    
   139   70  191 1    
   140   71  192 1    
   141   71  193 1    
   142   71  194 1    
   143   72   73 2    
   144   72   74 am   BACKBONE|DICT|INTERRES
   145   74   75 1    
   146   74  195 1    
   147   75   76 1    
   148   75   77 1    
   149   75  196 1    
   150   76  197 1    
   151   76  198 1    
   152   76  199 1    
   153   77   78 2    
   154   77   79 am   BACKBONE|DICT|INTERRES
   155   79   80 1    
   156   79  200 1    
   157   80   81 1    
   158   80   82 1    
   159   80  201 1    
   160   81  202 1    
   161   81  203 1    
   162   81  204 1    
   163   82   83 2    
   164   82   84 am   BACKBONE|DICT|INTERRES
   165   84   85 1    
   166   84  205 1    
   167   85   86 1    
   168   85   87 1    
   169   85  206 1    
   170   86  207 1    
   171   86  208 1    
   172   86  209 1    
   173   87   88 2    
   174   87   89 am   BACKBONE|DICT|INTERRES
   175   89   90 1    
   176   89  210 1    
   177   90   91 1    
   178   90   92 1    
   179   90  211 1    
   180   91  212 1    
   181   91  213 1    
   182   91  214 1    
   183   92   93 2    
   184   92   94 am   BACKBONE|DICT|INTERRES
   185   94   95 1    
   186   94  215 1    
   187   95   96 1    
   188   95   97 1    
   189   95  216 1    
   190   96  217 1    
   191   96  218 1    
   192   96  219 1    
   193   97   98 2    
   194   97   99 am   BACKBONE|DICT|INTERRES
   195   99  100 1    
   196   99  220 1    
   197  100  101 1    
   198  100  102 1    
   199  100  221 1    
   200  101  222 1    
   201  101  223 1    
   202  101  224 1    
   203  102  103 2    
   204  102  104 am   BACKBONE|DICT|INTERRES
   205  104  105 1    
   206  104  225 1    
   207  105  106 1    
   208  105  107 1    
   209  105  226 1    
   210  106  227 1    
   211  106  228 1    
   212  106  229 1    
   213  107  108 2    
   214  107  109 am   BACKBONE|DICT|INTERRES
   215  109  110 1    
   216  109  230 1    
   217  110  111 1    
   218  110  112 1    
   219  110  231 1    
   220  111  232 1    
   221  111  233 1    
   222  111  234 1    
   223  112  113 2    
   224  112  114 am   BACKBONE|DICT|INTERRES
   225  114  115 1    
   226  114  235 1    
   227  115  116 1    
   228  115  117 1    
   229  115  236 1    
   230  116  237 1    
   231  116  238 1    
   232  116  239 1    
   233  117  118 2    
   234  117  119 am   BACKBONE|DICT|INTERRES
   235  119  120 1    
   236  119  240 1    
   237  120  121 1    
   238  120  124 1    
   239  120  241 1    
   240  121  122 am   BACKBONE|DICT|INTERRES
   241  121  123 2    
   242  122  242 1    
   243  122  243 1    
   244  124  125 1    
   245  124  244 1    
   246  124  245 1    
   247  125  126 1    
   248  126  246 1    
   249  126  247 1    
@<TRIPOS>SUBSTRUCTURE
     1 UNK         1 GROUP             0       ****    0 ROOT    
