@<TRIPOS>MOLECULE
3R540
247   249    1
SMALL
USER_CHARGES


@<TRIPOS>ATOM
      1 CA          3.1283  -13.4250  -50.8326 C.3       0 UNK        -0.1800 
      2 C           2.4674  -13.8007  -49.5142 C.2       0 UNK         0.5000 
      3 O           3.0949  -14.4508  -48.6778 O.2       0 UNK        -0.5000 
      4 N           1.2021  -13.4045  -49.3283 N.am      1 UNK        -0.5000 
      5 CA          0.4373  -13.6391  -48.1022 C.3       1 UNK         0.1400 
      6 C6         -1.0893  -13.4781  -48.3344 C.3       23 UNK        -0.0398 
      7 S7         -2.0502  -14.4751  -47.1419 S.3       23 UNK        -0.2404 
      8 C8         -2.9890  -15.6634  -48.1691 C.3       23 UNK        -0.0205 
      9 C9         -2.1856  -16.3718  -49.2580 C.ar      23 UNK        -0.0193 
     10 C10        -2.7810  -16.6005  -50.5017 C.ar      23 UNK        -0.1150 
     11 C11        -2.0630  -17.2007  -51.5392 C.ar      23 UNK        -0.0193 
     12 C12        -0.7319  -17.5712  -51.3292 C.ar      23 UNK        -0.1150 
     13 C13        -0.1243  -17.3575  -50.0884 C.ar      23 UNK        -0.0193 
     14 C14        -0.8657  -16.7854  -49.0502 C.ar      23 UNK        -0.1150 
     15 C15         1.3485  -17.6879  -49.8931 C.3       23 UNK        -0.0205 
     16 S16         1.6260  -19.4414  -49.5024 S.3       23 UNK        -0.2404 
     17 C17         1.1502  -19.4916  -47.7423 C.3       23 UNK        -0.0398 
     18 CA          0.5133  -20.8318  -47.3154 C.3       11 UNK         0.1400 
     19 N           0.4396  -20.9522  -45.8600 N.am      11 UNK        -0.5000 
     20 C           0.1772  -22.0900  -45.2034 C.2       10 UNK         0.5000 
     21 O          -0.0307  -23.1695  -45.7579 O.2       10 UNK        -0.5000 
     22 CA          0.0971  -21.9973  -43.6695 C.3       10 UNK         0.1400 
     23 CB          1.4992  -21.8851  -43.0528 C.3       10 UNK        -0.1800 
     24 N          -0.7295  -20.8805  -43.2115 N.am      10 UNK        -0.5000 
     25 C          -2.0385  -20.7517  -43.4726 C.2       9 UNK         0.5000 
     26 O          -2.6918  -21.5552  -44.1370 O.2       9 UNK        -0.5000 
     27 CA         -2.7284  -19.4922  -42.9282 C.3       9 UNK         0.1400 
     28 CB         -3.0187  -19.6320  -41.4260 C.3       9 UNK        -0.1800 
     29 N          -1.9407  -18.2850  -43.1608 N.am      9 UNK        -0.5000 
     30 C          -1.6651  -17.7735  -44.3680 C.2       8 UNK         0.5000 
     31 O          -2.0268  -18.2701  -45.4341 O.2       8 UNK        -0.5000 
     32 CA         -0.7878  -16.5121  -44.3711 C.3       8 UNK         0.1400 
     33 CB         -1.5579  -15.3202  -43.7771 C.3       8 UNK        -0.1800 
     34 N           0.4568  -16.6971  -43.6272 N.am      8 UNK        -0.5000 
     35 C           1.3739  -17.6447  -43.8727 C.2       7 UNK         0.5000 
     36 O           1.3149  -18.4362  -44.8106 O.2       7 UNK        -0.5000 
     37 CA          2.5327  -17.7529  -42.8708 C.3       7 UNK         0.1400 
     38 CB          3.7131  -16.8896  -43.3356 C.3       7 UNK        -0.1800 
     39 N           2.1354  -17.3801  -41.5096 N.am      7 UNK        -0.5000 
     40 C           1.2644  -18.0784  -40.7620 C.2       6 UNK         0.5000 
     41 O           0.6865  -19.0864  -41.1759 O.2       6 UNK        -0.5000 
     42 CA          0.9286  -17.5546  -39.3474 C.3       6 UNK         0.1400 
     43 CB          0.9981  -18.6753  -38.2900 C.3       6 UNK        -0.1800 
     44 N           1.6914  -16.3714  -38.9234 N.am      6 UNK        -0.5000 
     45 C           3.0027  -16.2837  -38.6598 C.2       5 UNK         0.5000 
     46 O           3.7929  -17.2275  -38.7193 O.2       5 UNK        -0.5000 
     47 CA          3.5250  -14.8762  -38.3105 C.3       5 UNK         0.1400 
     48 CB          4.0876  -14.8377  -36.8810 C.3       5 UNK        -0.1800 
     49 N           4.5560  -14.4258  -39.2482 N.am      5 UNK        -0.5000 
     50 C           4.3924  -14.3038  -40.5716 C.2       4 UNK         0.5000 
     51 O           3.3249  -14.5303  -41.1534 O.2       4 UNK        -0.5000 
     52 CA          5.6255  -13.8642  -41.3784 C.3       4 UNK         0.1400 
     53 CB          6.7517  -14.9148  -41.3204 C.3       4 UNK        -0.1800 
     54 N           5.2101  -13.6477  -42.7585 N.am      4 UNK        -0.5000 
     55 C           5.8464  -12.9285  -43.6884 C.2       3 UNK         0.5000 
     56 O           6.9295  -12.3729  -43.5005 O.2       3 UNK        -0.5000 
     57 CA          5.1554  -12.8025  -45.0635 C.3       3 UNK         0.1400 
     58 CB          5.7744  -13.7894  -46.0653 C.3       3 UNK        -0.1800 
     59 N           3.7060  -13.0233  -45.0222 N.am      3 UNK        -0.5000 
     60 C           2.8209  -12.2067  -44.4326 C.2       2 UNK         0.5000 
     61 O           3.1347  -11.1556  -43.8715 O.2       2 UNK        -0.5000 
     62 CA          1.3468  -12.6626  -44.4670 C.3       2 UNK         0.1400 
     63 CB          0.3549  -11.5403  -44.0946 C.3       2 UNK        -0.1800 
     64 N           0.9613  -13.3021  -45.7320 N.am      2 UNK        -0.5000 
     65 C           0.9451  -12.7423  -46.9515 C.2       1 UNK         0.5000 
     66 O           1.2855  -11.5805  -47.1879 O.2       1 UNK        -0.5000 
     67 C          -0.8576  -21.0743  -47.9762 C.2       11 UNK         0.5000 
     68 O          -0.9218  -21.8246  -48.9490 O.2       11 UNK        -0.5000 
     69 N          -1.9319  -20.4990  -47.4126 N.am      12 UNK        -0.5000 
     70 CA         -3.3028  -20.7159  -47.8776 C.3       12 UNK         0.1400 
     71 CB         -4.2741  -19.8063  -47.1129 C.3       12 UNK        -0.1800 
     72 C          -3.7394  -22.1867  -47.7706 C.2       12 UNK         0.5000 
     73 O          -4.3114  -22.7112  -48.7243 O.2       12 UNK        -0.5000 
     74 N          -3.4353  -22.8354  -46.6369 N.am      13 UNK        -0.5000 
     75 CA         -3.7019  -24.2550  -46.4014 C.3       13 UNK         0.1400 
     76 CB         -3.3868  -24.6104  -44.9409 C.3       13 UNK        -0.1800 
     77 C          -2.9313  -25.1739  -47.3656 C.2       13 UNK         0.5000 
     78 O          -3.5212  -26.1151  -47.8982 O.2       13 UNK        -0.5000 
     79 N          -1.6457  -24.8667  -47.5964 N.am      14 UNK        -0.5000 
     80 CA         -0.7866  -25.5599  -48.5581 C.3       14 UNK         0.1400 
     81 CB          0.6602  -25.0633  -48.4166 C.3       14 UNK        -0.1800 
     82 C          -1.2838  -25.4051  -50.0066 C.2       14 UNK         0.5000 
     83 O          -1.3543  -26.3948  -50.7366 O.2       14 UNK        -0.5000 
     84 N          -1.6803  -24.1823  -50.3802 N.am      15 UNK        -0.5000 
     85 CA         -2.2950  -23.8402  -51.6614 C.3       15 UNK         0.1400 
     86 CB         -2.0291  -22.3549  -51.9656 C.3       15 UNK        -0.1800 
     87 C          -3.7978  -24.1892  -51.6927 C.2       15 UNK         0.5000 
     88 O          -4.6188  -23.3311  -52.0062 O.2       15 UNK        -0.5000 
     89 N          -4.1347  -25.4452  -51.3672 N.am      16 UNK        -0.5000 
     90 CA         -5.4486  -26.0847  -51.5172 C.3       16 UNK         0.1400 
     91 CB         -5.6876  -26.4013  -53.0084 C.3       16 UNK        -0.1800 
     92 C          -6.6356  -25.3232  -50.8792 C.2       16 UNK         0.5000 
     93 O          -7.7347  -25.3349  -51.4359 O.2       16 UNK        -0.5000 
     94 N          -6.3929  -24.6822  -49.7261 N.am      17 UNK        -0.5000 
     95 CA         -7.3156  -23.8045  -48.9944 C.3       17 UNK         0.1400 
     96 CB         -8.5567  -24.5747  -48.4946 C.3       17 UNK        -0.1800 
     97 C          -7.6569  -22.5324  -49.8013 C.2       17 UNK         0.5000 
     98 O          -8.8300  -22.2268  -50.0240 O.2       17 UNK        -0.5000 
     99 N          -6.5983  -21.8234  -50.2165 N.am      18 UNK        -0.5000 
    100 CA        -6.5835  -20.6036  -51.0294 C.3       18 UNK         0.1400 
    101 CB        -7.2065  -19.4192  -50.2624 C.3       18 UNK        -0.1800 
    102 C         -7.1923  -20.8159  -52.4314 C.2       18 UNK         0.5000 
    103 O         -8.0659  -20.0593  -52.8613 O.2       18 UNK        -0.5000 
    104 N         -6.7008  -21.8474  -53.1200 N.am      19 UNK        -0.5000 
    105 CA        -7.0182  -22.2056  -54.4973 C.3       19 UNK         0.1400 
    106 CB        -8.1265  -23.2759  -54.5036 C.3       19 UNK        -0.1800 
    107 C         -5.7180  -22.6578  -55.1881 C.2       19 UNK         0.5000 
    108 O         -4.6354  -22.2625  -54.7512 O.2       19 UNK        -0.5000 
    109 N         -5.8289  -23.4618  -56.2566 N.am      20 UNK        -0.5000 
    110 CA        -4.7277  -24.0686  -57.0176 C.3       20 UNK         0.1400 
    111 CB        -4.0991  -25.2221  -56.2029 C.3       20 UNK        -0.1800 
    112 C         -3.7001  -23.0206  -57.4987 C.2       20 UNK         0.5000 
    113 O         -3.9868  -22.2847  -58.4446 O.2       20 UNK        -0.5000 
    114 N         -2.5555  -22.9319  -56.8060 N.am      21 UNK        -0.5000 
    115 CA        -1.4997  -21.9352  -57.0007 C.3       21 UNK         0.1400 
    116 CB        -0.3439  -22.2462  -56.0370 C.3       21 UNK        -0.1800 
    117 C         -1.9671  -20.4750  -56.8228 C.2       21 UNK         0.5000 
    118 O         -1.3858  -19.5813  -57.4401 O.2       21 UNK        -0.5000 
    119 N         -3.0139  -20.2586  -56.0154 N.am      22 UNK        -0.5000 
    120 CA        -3.7029  -18.9669  -55.8704 C.3       22 UNK         0.1400 
    121 C         -4.6391  -18.6064  -57.0639 C.2       22 UNK         0.5000 
    122 N         -4.8867  -19.4879  -58.0268 N.am      22 UNK        -0.7600 
    123 O         -5.1497  -17.4913  -57.1232 O.2       22 UNK        -0.5000 
    124 C124       -4.4715  -18.8576  -54.5274 C.3       23 UNK        -0.0398 
    125 S125       -3.4212  -19.0765  -53.0518 S.3       23 UNK        -0.2404 
    126 C126       -2.7187  -17.4069  -52.8950 C.3       23 UNK        -0.0205 
    127 H127        2.4565  -12.8561  -51.4757 H         1 UNK         0.0600 
    128 H128        3.4320  -14.3242  -51.3686 H         1 UNK         0.0600 
    129 H129        4.0161  -12.8203  -50.6476 H         1 UNK         0.0600 
    130 H130        0.7487  -12.8417  -50.0335 H         1 UNK         0.3000 
    131 H131        0.6351  -14.6735  -47.8182 H         1 UNK         0.0600 
    132 H132       -1.3558  -13.7906  -49.3445 H         1 UNK         0.0800 
    133 H133       -1.3981  -12.4336  -48.2620 H         1 UNK         0.0800 
    134 H134       -3.8286  -15.1263  -48.6128 H         1 UNK         0.0800 
    135 H135       -3.4204  -16.4184  -47.5112 H         1 UNK         0.0800 
    136 H136       -3.8050  -16.2977  -50.6702 H         1 UNK         0.1150 
    137 H137       -0.1657  -18.0166  -52.1351 H         1 UNK         0.1150 
    138 H138       -0.4052  -16.6300  -48.0869 H         1 UNK         0.1150 
    139 H139        1.8953  -17.4436  -50.8050 H         1 UNK         0.0800 
    140 H140        1.7824  -17.0642  -49.1095 H         1 UNK         0.0800 
    141 H141        0.4857  -18.6644  -47.4950 H         1 UNK         0.0800 
    142 H142        2.0638  -19.3221  -47.1712 H         1 UNK         0.0800 
    143 H143        1.1773  -21.6289  -47.6573 H         1 UNK         0.0600 
    144 H144        0.6080  -20.0985  -45.3333 H         1 UNK         0.3000 
    145 H145       -0.3612  -22.9190  -43.3052 H         1 UNK         0.0600 
    146 H146        1.4519  -21.8760  -41.9637 H         1 UNK         0.0600 
    147 H147        2.1230  -22.7305  -43.3457 H         1 UNK         0.0600 
    148 H148        2.0074  -20.9754  -43.3726 H         1 UNK         0.0600 
    149 H149       -0.2726  -20.1781  -42.6389 H         1 UNK         0.3000 
    150 H150       -3.6802  -19.3800  -43.4519 H         1 UNK         0.0600 
    151 H151       -3.6164  -20.5223  -41.2261 H         1 UNK         0.0600 
    152 H152       -3.5786  -18.7749  -41.0515 H         1 UNK         0.0600 
    153 H153       -2.1011  -19.7146  -40.8420 H         1 UNK         0.0600 
    154 H154       -1.5555  -17.8339  -42.3452 H         1 UNK         0.3000 
    155 H155       -0.5297  -16.2915  -45.4078 H         1 UNK         0.0600 
    156 H156       -1.7385  -15.4429  -42.7087 H         1 UNK         0.0600 
    157 H157       -2.5301  -15.2023  -44.2573 H         1 UNK         0.0600 
    158 H158       -1.0170  -14.3863  -43.9164 H         1 UNK         0.0600 
    159 H159        0.5946  -16.1117  -42.8169 H         1 UNK         0.3000 
    160 H160        2.8627  -18.7930  -42.8489 H         1 UNK         0.0600 
    161 H161        4.5392  -16.9396  -42.6277 H         1 UNK         0.0600 
    162 H162        3.4256  -15.8455  -43.4547 H         1 UNK         0.0600 
    163 H163        4.0901  -17.2338  -44.2996 H         1 UNK         0.0600 
    164 H164        2.5506  -16.5392  -41.1263 H         1 UNK         0.3000 
    165 H165       -0.1107  -17.2275  -39.3998 H         1 UNK         0.0600 
    166 H166        0.7345  -18.3019  -37.3005 H         1 UNK         0.0600 
    167 H167        0.3011  -19.4800  -38.5272 H         1 UNK         0.0600 
    168 H168        1.9927  -19.1175  -38.2292 H         1 UNK         0.0600 
    169 H169        1.1494  -15.5196  -38.8720 H         1 UNK         0.3000 
    170 H170        2.6973  -14.1660  -38.3665 H         1 UNK         0.0600 
    171 H171        3.3360  -15.1563  -36.1576 H         1 UNK         0.0600 
    172 H172        4.9502  -15.4961  -36.7694 H         1 UNK         0.0600 
    173 H173        4.3966  -13.8294  -36.6046 H         1 UNK         0.0600 
    174 H174        5.4669  -14.2459  -38.8523 H         1 UNK         0.3000 
    175 H175        5.9812  -12.9196  -40.9621 H         1 UNK         0.0600 
    176 H176        6.4289  -15.8753  -41.7213 H         1 UNK         0.0600 
    177 H177        7.6236  -14.5939  -41.8904 H         1 UNK         0.0600 
    178 H178        7.0858  -15.0829  -40.2963 H         1 UNK         0.0600 
    179 H179        4.2923  -14.0188  -42.9651 H         1 UNK         0.3000 
    180 H180        5.3330  -11.7884  -45.4276 H         1 UNK         0.0600 
    181 H181        5.6084  -14.8247  -45.7646 H         1 UNK         0.0600 
    182 H182        6.8518  -13.6398  -46.1478 H         1 UNK         0.0600 
    183 H183        5.3522  -13.6572  -47.0618 H         1 UNK         0.0600 
    184 H184        3.3629  -13.8454  -45.4971 H         1 UNK         0.3000 
    185 H185        1.2637  -13.4338  -43.6998 H         1 UNK         0.0600 
    186 H186        0.5449  -11.1697  -43.0867 H         1 UNK         0.0600 
    187 H187        0.4297  -10.6907  -44.7738 H         1 UNK         0.0600 
    188 H188       -0.6745  -11.8975  -44.1184 H         1 UNK         0.0600 
    189 H189        0.6620  -14.2624  -45.6527 H         1 UNK         0.3000 
    190 H190       -1.8159  -19.8766  -46.6187 H         1 UNK         0.3000 
    191 H191       -3.3415  -20.4372  -48.9331 H         1 UNK         0.0600 
    192 H192       -4.2248  -19.9786  -46.0372 H         1 UNK         0.0600 
    193 H193       -5.3038  -19.9803  -47.4268 H         1 UNK         0.0600 
    194 H194       -4.0517  -18.7555  -47.2953 H         1 UNK         0.0600 
    195 H195       -2.9950  -22.3252  -45.8757 H         1 UNK         0.3000 
    196 H196       -4.7681  -24.4231  -46.5666 H         1 UNK         0.0600 
    197 H197       -3.5780  -25.6660  -44.7443 H         1 UNK         0.0600 
    198 H198       -4.0069  -24.0346  -44.2538 H         1 UNK         0.0600 
    199 H199       -2.3430  -24.4126  -44.6943 H         1 UNK         0.0600 
    200 H200       -1.2256  -24.0965  -47.0851 H         1 UNK         0.3000 
    201 H201       -0.8041  -26.6237  -48.3129 H         1 UNK         0.0600 
    202 H202        1.0420  -25.2445  -47.4118 H         1 UNK         0.0600 
    203 H203        0.7420  -23.9948  -48.6168 H         1 UNK         0.0600 
    204 H204        1.3206  -25.5800  -49.1140 H         1 UNK         0.0600 
    205 H205       -1.5724  -23.4117  -49.7242 H         1 UNK         0.3000 
    206 H206       -1.8160  -24.4248  -52.4492 H         1 UNK         0.0600 
    207 H207       -2.4121  -22.0821  -52.9500 H         1 UNK         0.0600 
    208 H208       -2.5114  -21.7038  -51.2352 H         1 UNK         0.0600 
    209 H209       -0.9622  -22.1318  -51.9586 H         1 UNK         0.0600 
    210 H210       -3.3795  -26.0567  -51.0773 H         1 UNK         0.3000 
    211 H211       -5.3849  -27.0343  -50.9844 H         1 UNK         0.0600 
    212 H212       -5.7758  -25.4898  -53.5998 H         1 UNK         0.0600 
    213 H213       -6.6020  -26.9781  -53.1520 H         1 UNK         0.0600 
    214 H214       -4.8688  -26.9893  -53.4230 H         1 UNK         0.0600 
    215 H215       -5.4376  -24.6754  -49.3912 H         1 UNK         0.3000 
    216 H216       -6.7786  -23.4679  -48.1069 H         1 UNK         0.0600 
    217 H217       -9.1629  -23.9466  -47.8411 H         1 UNK         0.0600 
    218 H218       -8.2689  -25.4562  -47.9218 H         1 UNK         0.0600 
    219 H219       -9.1977  -24.9007  -49.3138 H         1 UNK         0.0600 
    220 H220       -5.6819  -22.2018  -49.9892 H         1 UNK         0.3000 
    221 H221       -5.5306  -20.3677  -51.1901 H         1 UNK         0.0600 
    222 H222       -8.2717  -19.5659  -50.0823 H         1 UNK         0.0600 
    223 H223       -6.7195  -19.2729  -49.2989 H         1 UNK         0.0600 
    224 H224       -7.0945  -18.4915  -50.8247 H         1 UNK         0.0600 
    225 H225       -5.9275  -22.3791  -52.7136 H         1 UNK         0.3000 
    226 H226       -7.3708  -21.3233  -55.0347 H         1 UNK         0.0600 
    227 H227       -8.4700  -23.4930  -55.5152 H         1 UNK         0.0600 
    228 H228       -7.7850  -24.2101  -54.0571 H         1 UNK         0.0600 
    229 H229       -8.9960  -22.9408  -53.9378 H         1 UNK         0.0600 
    230 H230       -6.7565  -23.7022  -56.5753 H         1 UNK         0.3000 
    231 H231       -5.1666  -24.5015  -57.9176 H         1 UNK         0.0600 
    232 H232       -4.8330  -26.0060  -56.0162 H         1 UNK         0.0600 
    233 H233       -3.7230  -24.8908  -55.2341 H         1 UNK         0.0600 
    234 H234       -3.2716  -25.6828  -56.7440 H         1 UNK         0.0600 
    235 H235       -2.4446  -23.5449  -56.0123 H         1 UNK         0.3000 
    236 H236       -1.1338  -22.0391  -58.0240 H         1 UNK         0.0600 
    237 H237        0.4779  -21.5417  -56.1718 H         1 UNK         0.0600 
    238 H238       -0.6623  -22.1833  -54.9955 H         1 UNK         0.0600 
    239 H239        0.0556  -23.2461  -56.2075 H         1 UNK         0.0600 
    240 H240       -3.4452  -21.0466  -55.5371 H         1 UNK         0.3000 
    241 H241       -2.9370  -18.1895  -55.8620 H         1 UNK         0.0600 
    242 H242       -4.4682  -20.4121  -58.0259 H         1 UNK         0.3800 
    243 H243       -5.4901  -19.2224  -58.7888 H         1 UNK         0.3800 
    244 H244       -4.9780  -17.8943  -54.4460 H         1 UNK         0.0800 
    245 H245       -5.2612  -19.6076  -54.4897 H         1 UNK         0.0800 
    246 H246       -1.9890  -17.2467  -53.6899 H         1 UNK         0.0800 
    247 H247       -3.5017  -16.6614  -53.0414 H         1 UNK         0.0800 
@<TRIPOS>BOND
     1    1    2 1    
     2    1  127 1    
     3    1  128 1    
     4    1  129 1    
     5    2    3 2    
     6    2    4 am   BACKBONE|DICT|INTERRES
     7    4    5 1    
     8    4  130 1    
     9    5    6 1    
    10    5   65 1    
    11    5  131 1    
    12    6    7 1    
    13    6  132 1    
    14    6  133 1    
    15    7    8 1    
    16    8    9 1    
    17    8  134 1    
    18    8  135 1    
    19    9   10 ar   
    20    9   14 ar   
    21   10   11 ar   
    22   10  136 1    
    23   11   12 ar   
    24   11  126 1    
    25   12   13 ar   
    26   12  137 1    
    27   13   14 ar   
    28   13   15 1    
    29   14  138 1    
    30   15   16 1    
    31   15  139 1    
    32   15  140 1    
    33   16   17 1    
    34   17   18 1    
    35   17  141 1    
    36   17  142 1    
    37   18   19 1    
    38   18   67 1    
    39   18  143 1    
    40   19   20 am   BACKBONE|DICT|INTERRES
    41   19  144 1    
    42   20   21 2    
    43   20   22 1    
    44   22   23 1    
    45   22   24 1    
    46   22  145 1    
    47   23  146 1    
    48   23  147 1    
    49   23  148 1    
    50   24   25 am   BACKBONE|DICT|INTERRES
    51   24  149 1    
    52   25   26 2    
    53   25   27 1    
    54   27   28 1    
    55   27   29 1    
    56   27  150 1    
    57   28  151 1    
    58   28  152 1    
    59   28  153 1    
    60   29   30 am   BACKBONE|DICT|INTERRES
    61   29  154 1    
    62   30   31 2    
    63   30   32 1    
    64   32   33 1    
    65   32   34 1    
    66   32  155 1    
    67   33  156 1    
    68   33  157 1    
    69   33  158 1    
    70   34   35 am   BACKBONE|DICT|INTERRES
    71   34  159 1    
    72   35   36 2    
    73   35   37 1    
    74   37   38 1    
    75   37   39 1    
    76   37  160 1    
    77   38  161 1    
    78   38  162 1    
    79   38  163 1    
    80   39   40 am   BACKBONE|DICT|INTERRES
    81   39  164 1    
    82   40   41 2    
    83   40   42 1    
    84   42   43 1    
    85   42   44 1    
    86   42  165 1    
    87   43  166 1    
    88   43  167 1    
    89   43  168 1    
    90   44   45 am   BACKBONE|DICT|INTERRES
    91   44  169 1    
    92   45   46 2    
    93   45   47 1    
    94   47   48 1    
    95   47   49 1    
    96   47  170 1    
    97   48  171 1    
    98   48  172 1    
    99   48  173 1    
   100   49   50 am   BACKBONE|DICT|INTERRES
   101   49  174 1    
   102   50   51 2    
   103   50   52 1    
   104   52   53 1    
   105   52   54 1    
   106   52  175 1    
   107   53  176 1    
   108   53  177 1    
   109   53  178 1    
   110   54   55 am   BACKBONE|DICT|INTERRES
   111   54  179 1    
   112   55   56 2    
   113   55   57 1    
   114   57   58 1    
   115   57   59 1    
   116   57  180 1    
   117   58  181 1    
   118   58  182 1    
   119   58  183 1    
   120   59   60 am   BACKBONE|DICT|INTERRES
   121   59  184 1    
   122   60   61 2    
   123   60   62 1    
   124   62   63 1    
   125   62   64 1    
   126   62  185 1    
   127   63  186 1    
   128   63  187 1    
   129   63  188 1    
   130   64   65 am   BACKBONE|DICT|INTERRES
   131   64  189 1    
   132   65   66 2    
   133   67   68 2    
   134   67   69 am   BACKBONE|DICT|INTERRES
   135   69   70 1    
   136   69  190 1    
   137   70   71 1    
   138   70   72 1    
   139   70  191 1    
   140   71  192 1    
   141   71  193 1    
   142   71  194 1    
   143   72   73 2    
   144   72   74 am   BACKBONE|DICT|INTERRES
   145   74   75 1    
   146   74  195 1    
   147   75   76 1    
   148   75   77 1    
   149   75  196 1    
   150   76  197 1    
   151   76  198 1    
   152   76  199 1    
   153   77   78 2    
   154   77   79 am   BACKBONE|DICT|INTERRES
   155   79   80 1    
   156   79  200 1    
   157   80   81 1    
   158   80   82 1    
   159   80  201 1    
   160   81  202 1    
   161   81  203 1    
   162   81  204 1    
   163   82   83 2    
   164   82   84 am   BACKBONE|DICT|INTERRES
   165   84   85 1    
   166   84  205 1    
   167   85   86 1    
   168   85   87 1    
   169   85  206 1    
   170   86  207 1    
   171   86  208 1    
   172   86  209 1    
   173   87   88 2    
   174   87   89 am   BACKBONE|DICT|INTERRES
   175   89   90 1    
   176   89  210 1    
   177   90   91 1    
   178   90   92 1    
   179   90  211 1    
   180   91  212 1    
   181   91  213 1    
   182   91  214 1    
   183   92   93 2    
   184   92   94 am   BACKBONE|DICT|INTERRES
   185   94   95 1    
   186   94  215 1    
   187   95   96 1    
   188   95   97 1    
   189   95  216 1    
   190   96  217 1    
   191   96  218 1    
   192   96  219 1    
   193   97   98 2    
   194   97   99 am   BACKBONE|DICT|INTERRES
   195   99  100 1    
   196   99  220 1    
   197  100  101 1    
   198  100  102 1    
   199  100  221 1    
   200  101  222 1    
   201  101  223 1    
   202  101  224 1    
   203  102  103 2    
   204  102  104 am   BACKBONE|DICT|INTERRES
   205  104  105 1    
   206  104  225 1    
   207  105  106 1    
   208  105  107 1    
   209  105  226 1    
   210  106  227 1    
   211  106  228 1    
   212  106  229 1    
   213  107  108 2    
   214  107  109 am   BACKBONE|DICT|INTERRES
   215  109  110 1    
   216  109  230 1    
   217  110  111 1    
   218  110  112 1    
   219  110  231 1    
   220  111  232 1    
   221  111  233 1    
   222  111  234 1    
   223  112  113 2    
   224  112  114 am   BACKBONE|DICT|INTERRES
   225  114  115 1    
   226  114  235 1    
   227  115  116 1    
   228  115  117 1    
   229  115  236 1    
   230  116  237 1    
   231  116  238 1    
   232  116  239 1    
   233  117  118 2    
   234  117  119 am   BACKBONE|DICT|INTERRES
   235  119  120 1    
   236  119  240 1    
   237  120  121 1    
   238  120  124 1    
   239  120  241 1    
   240  121  122 am   BACKBONE|DICT|INTERRES
   241  121  123 2    
   242  122  242 1    
   243  122  243 1    
   244  124  125 1    
   245  124  244 1    
   246  124  245 1    
   247  125  126 1    
   248  126  246 1    
   249  126  247 1    
@<TRIPOS>SUBSTRUCTURE
     1 UNK         1 GROUP             0       ****    0 ROOT    
