@<TRIPOS>MOLECULE
3R540
247   249    1
SMALL
USER_CHARGES


@<TRIPOS>ATOM
      1 CA          3.3960  -15.9968  -50.9345 C.3       0 UNK        -0.1800 
      2 C           3.1797  -15.5847  -49.4856 C.2       0 UNK         0.5000 
      3 O           3.6541  -16.2655  -48.5761 O.2       0 UNK        -0.5000 
      4 N           2.4691  -14.4713  -49.2652 N.am      1 UNK        -0.5000 
      5 CA          2.1700  -13.9058  -47.9462 C.3       1 UNK         0.1400 
      6 C6          0.8872  -13.0343  -47.9637 C.3       23 UNK        -0.0398 
      7 S7         -0.6056  -14.0632  -47.7931 S.3       23 UNK        -0.2404 
      8 C8         -1.0900  -14.3772  -49.5155 C.3       23 UNK        -0.0205 
      9 C9         -1.4621  -15.8389  -49.7082 C.ar      23 UNK        -0.0193 
     10 C10        -2.7328  -16.2995  -49.3506 C.ar      23 UNK        -0.1150 
     11 C11        -3.0779  -17.6406  -49.5398 C.ar      23 UNK        -0.0193 
     12 C12        -2.1465  -18.5160  -50.1026 C.ar      23 UNK        -0.1150 
     13 C13        -0.8595  -18.0794  -50.4357 C.ar      23 UNK        -0.0193 
     14 C14        -0.5312  -16.7348  -50.2409 C.ar      23 UNK        -0.1150 
     15 C15         0.1899  -19.0243  -51.0224 C.3       23 UNK        -0.0205 
     16 S16         0.1238  -20.7460  -50.4140 S.3       23 UNK        -0.2404 
     17 C17         0.2120  -20.5206  -48.6047 C.3       23 UNK        -0.0398 
     18 CA          0.1459  -21.8433  -47.8040 C.3       11 UNK         0.1400 
     19 N           0.3803  -21.6037  -46.3787 N.am      11 UNK        -0.5000 
     20 C           0.5587  -22.5571  -45.4543 C.2       10 UNK         0.5000 
     21 O           0.5841  -23.7602  -45.7075 O.2       10 UNK        -0.5000 
     22 CA          0.6715  -22.0931  -43.9916 C.3       10 UNK         0.1400 
     23 CB          2.0644  -21.5144  -43.7058 C.3       10 UNK        -0.1800 
     24 N          -0.3602  -21.1173  -43.6370 N.am      10 UNK        -0.5000 
     25 C          -1.6763  -21.3765  -43.6530 C.2       9 UNK         0.5000 
     26 O          -2.1525  -22.4795  -43.9208 O.2       9 UNK        -0.5000 
     27 CA         -2.6227  -20.1993  -43.3641 C.3       9 UNK         0.1400 
     28 CB         -2.7435  -19.9545  -41.8528 C.3       9 UNK        -0.1800 
     29 N          -2.2071  -18.9654  -44.0284 N.am      9 UNK        -0.5000 
     30 C          -2.1393  -18.7908  -45.3566 C.2       8 UNK         0.5000 
     31 O          -2.4465  -19.6491  -46.1818 O.2       8 UNK        -0.5000 
     32 CA         -1.5799  -17.4422  -45.8377 C.3       8 UNK         0.1400 
     33 CB         -2.6248  -16.3309  -45.6416 C.3       8 UNK        -0.1800 
     34 N          -0.3376  -17.1022  -45.1403 N.am      8 UNK        -0.5000 
     35 C           0.7967  -17.8148  -45.2272 C.2       7 UNK         0.5000 
     36 O           0.9349  -18.7937  -45.9595 O.2       7 UNK        -0.5000 
     37 CA          1.9542  -17.4092  -44.2980 C.3       7 UNK         0.1400 
     38 CB          2.9244  -16.4524  -44.9980 C.3       7 UNK        -0.1800 
     39 N           1.4813  -16.8174  -43.0458 N.am      7 UNK        -0.5000 
     40 C           0.9383  -17.5448  -42.0588 C.2       6 UNK         0.5000 
     41 O           0.7837  -18.7656  -42.1182 O.2       6 UNK        -0.5000 
     42 CA          0.4504  -16.7800  -40.8176 C.3       6 UNK         0.1400 
     43 CB          1.6352  -16.3166  -39.9569 C.3       6 UNK        -0.1800 
     44 N          -0.3880  -15.6283  -41.1441 N.am      6 UNK        -0.5000 
     45 C          -1.5608  -15.6710  -41.7859 C.2       5 UNK         0.5000 
     46 O          -2.0539  -16.7094  -42.2240 O.2       5 UNK        -0.5000 
     47 CA         -2.3079  -14.3382  -41.9972 C.3       5 UNK         0.1400 
     48 CB         -3.1455  -13.9697  -40.7583 C.3       5 UNK        -0.1800 
     49 N          -1.4566  -13.2200  -42.4280 N.am      5 UNK        -0.5000 
     50 C          -0.4770  -12.5984  -41.7577 C.2       4 UNK         0.5000 
     51 O          -0.1465  -12.8631  -40.5993 O.2       4 UNK        -0.5000 
     52 CA          0.2955  -11.5197  -42.5371 C.3       4 UNK         0.1400 
     53 CB          0.0104  -10.1234  -41.9631 C.3       4 UNK        -0.1800 
     54 N           1.7399  -11.7599  -42.5295 N.am      4 UNK        -0.5000 
     55 C           2.3402  -12.8624  -42.9951 C.2       3 UNK         0.5000 
     56 O           1.7404  -13.8354  -43.4616 O.2       3 UNK        -0.5000 
     57 CA          3.8715  -12.8861  -42.9469 C.3       3 UNK         0.1400 
     58 CB          4.3778  -13.8370  -41.8507 C.3       3 UNK        -0.1800 
     59 N           4.3372  -13.3454  -44.2481 N.am      3 UNK        -0.5000 
     60 C           5.4115  -12.8966  -44.9061 C.2       2 UNK         0.5000 
     61 O           6.2036  -12.0748  -44.4435 O.2       2 UNK        -0.5000 
     62 CA          5.6386  -13.4530  -46.3275 C.3       2 UNK         0.1400 
     63 CB          6.6565  -14.6032  -46.2951 C.3       2 UNK        -0.1800 
     64 N           4.4113  -13.9309  -46.9700 N.am      2 UNK        -0.5000 
     65 C           3.3990  -13.1586  -47.3854 C.2       1 UNK         0.5000 
     66 O           3.4182  -11.9276  -47.3429 O.2       1 UNK        -0.5000 
     67 C          -1.1684  -22.6218  -48.0409 C.2       11 UNK         0.5000 
     68 O          -1.1684  -23.5962  -48.7960 O.2       11 UNK        -0.5000 
     69 N          -2.2545  -22.2164  -47.3665 N.am      12 UNK        -0.5000 
     70 CA         -3.5574  -22.8845  -47.4055 C.3       12 UNK         0.1400 
     71 CB         -4.5838  -22.0810  -46.5946 C.3       12 UNK        -0.1800 
     72 C          -3.5052  -24.3495  -46.9343 C.2       12 UNK         0.5000 
     73 O          -4.1571  -25.2007  -47.5383 O.2       12 UNK        -0.5000 
     74 N          -2.7156  -24.6178  -45.8876 N.am      13 UNK        -0.5000 
     75 CA         -2.4966  -25.9529  -45.3424 C.3       13 UNK         0.1400 
     76 CB         -1.9518  -25.8345  -43.9095 C.3       13 UNK        -0.1800 
     77 C          -1.5626  -26.8084  -46.2177 C.2       13 UNK         0.5000 
     78 O          -1.9424  -27.9126  -46.6095 O.2       13 UNK        -0.5000 
     79 N          -0.3464  -26.3091  -46.4742 N.am      14 UNK        -0.5000 
     80 CA          0.7497  -27.0948  -47.0433 C.3       14 UNK         0.1400 
     81 CB          2.0901  -26.4982  -46.5861 C.3       14 UNK        -0.1800 
     82 C           0.7155  -27.1970  -48.5757 C.2       14 UNK         0.5000 
     83 O           1.0871  -28.2418  -49.1121 O.2       14 UNK        -0.5000 
     84 N           0.3012  -26.1195  -49.2531 N.am      15 UNK        -0.5000 
     85 CA          0.3377  -25.9970  -50.7134 C.3       15 UNK         0.1400 
     86 CB          1.1108  -24.7172  -51.0802 C.3       15 UNK        -0.1800 
     87 C          -1.0688  -25.9833  -51.3357 C.2       15 UNK         0.5000 
     88 O          -1.1859  -25.7573  -52.5407 O.2       15 UNK        -0.5000 
     89 N          -2.1134  -26.1782  -50.5149 N.am      16 UNK        -0.5000 
     90 CA         -3.5371  -26.0856  -50.8685 C.3       16 UNK         0.1400 
     91 CB         -3.9420  -27.2372  -51.8124 C.3       16 UNK        -0.1800 
     92 C          -3.9204  -24.6915  -51.4165 C.2       16 UNK         0.5000 
     93 O          -4.7655  -24.5853  -52.3054 O.2       16 UNK        -0.5000 
     94 N          -3.2486  -23.6582  -50.8872 N.am      17 UNK        -0.5000 
     95 CA         -3.2857  -22.2432  -51.2696 C.3       17 UNK         0.1400 
     96 CB         -4.7117  -21.6599  -51.2163 C.3       17 UNK        -0.1800 
     97 C          -2.5642  -21.9237  -52.5949 C.2       17 UNK         0.5000 
     98 O          -2.5794  -20.7685  -53.0200 O.2       17 UNK        -0.5000 
     99 N          -1.9041  -22.9207  -53.2043 N.am      18 UNK        -0.5000 
    100 CA        -1.1469  -22.8357  -54.4529 C.3       18 UNK         0.1400 
    101 CB         0.1625  -22.0443  -54.2288 C.3       18 UNK        -0.1800 
    102 C         -2.0245  -22.3072  -55.6082 C.2       18 UNK         0.5000 
    103 O         -2.9819  -22.9813  -55.9923 O.2       18 UNK        -0.5000 
    104 N         -1.6936  -21.1215  -56.1322 N.am      19 UNK        -0.5000 
    105 CA        -2.4301  -20.4416  -57.1963 C.3       19 UNK         0.1400 
    106 CB        -1.4158  -19.7101  -58.0914 C.3       19 UNK        -0.1800 
    107 C         -3.4900  -19.4532  -56.6675 C.2       19 UNK         0.5000 
    108 O         -4.2675  -18.9371  -57.4726 O.2       19 UNK        -0.5000 
    109 N         -3.5016  -19.1693  -55.3568 N.am      20 UNK        -0.5000 
    110 CA        -4.4198  -18.2127  -54.7408 C.3       20 UNK         0.1400 
    111 CB        -3.8041  -17.6787  -53.4389 C.3       20 UNK        -0.1800 
    112 C         -5.7934  -18.8558  -54.4832 C.2       20 UNK         0.5000 
    113 O         -5.8685  -19.9953  -54.0190 O.2       20 UNK        -0.5000 
    114 N         -6.8636  -18.1041  -54.7637 N.am      21 UNK        -0.5000 
    115 CA        -8.2569  -18.5265  -54.6055 C.3       21 UNK         0.1400 
    116 CB        -9.1112  -17.8077  -55.6661 C.3       21 UNK        -0.1800 
    117 C         -8.7630  -18.2857  -53.1675 C.2       21 UNK         0.5000 
    118 O         -9.7663  -17.5975  -52.9692 O.2       21 UNK        -0.5000 
    119 N         -8.0425  -18.8366  -52.1843 N.am      22 UNK        -0.5000 
    120 CA        -8.3269  -18.6826  -50.7453 C.3       22 UNK         0.1400 
    121 C         -9.4873  -19.5750  -50.2136 C.2       22 UNK         0.5000 
    122 N        -10.0131  -20.5191  -50.9848 N.am      22 UNK        -0.7600 
    123 O         -9.9259  -19.4013  -49.0799 O.2       22 UNK        -0.5000 
    124 C124       -7.0546  -18.8644  -49.8786 C.3       23 UNK        -0.0398 
    125 S125       -5.6981  -17.7571  -50.3844 S.3       23 UNK        -0.2404 
    126 C126       -4.4484  -18.1529  -49.1280 C.3       23 UNK        -0.0205 
    127 H127        2.8300  -15.3695  -51.6236 H         1 UNK         0.0600 
    128 H128        4.4525  -15.9201  -51.1912 H         1 UNK         0.0600 
    129 H129        3.0836  -17.0302  -51.0819 H         1 UNK         0.0600 
    130 H130        2.1464  -13.9312  -50.0547 H         1 UNK         0.3000 
    131 H131        1.9843  -14.7359  -47.2644 H         1 UNK         0.0600 
    132 H132        0.8665  -12.3487  -47.1144 H         1 UNK         0.0800 
    133 H133        0.8319  -12.4080  -48.8553 H         1 UNK         0.0800 
    134 H134       -1.9366  -13.7390  -49.7726 H         1 UNK         0.0800 
    135 H135       -0.2834  -14.1044  -50.1966 H         1 UNK         0.0800 
    136 H136       -3.4521  -15.6150  -48.9236 H         1 UNK         0.1150 
    137 H137       -2.4231  -19.5445  -50.2671 H         1 UNK         0.1150 
    138 H138        0.4535  -16.3814  -50.5083 H         1 UNK         0.1150 
    139 H139        0.0703  -19.0380  -52.1063 H         1 UNK         0.0800 
    140 H140        1.1910  -18.6392  -50.8246 H         1 UNK         0.0800 
    141 H141       -0.5817  -19.8481  -48.2779 H         1 UNK         0.0800 
    142 H142        1.1489  -20.0061  -48.3865 H         1 UNK         0.0800 
    143 H143        0.9601  -22.4814  -48.1543 H         1 UNK         0.0600 
    144 H144        0.4026  -20.6295  -46.0890 H         1 UNK         0.3000 
    145 H145        0.5319  -22.9682  -43.3534 H         1 UNK         0.0600 
    146 H146        2.1609  -21.2113  -42.6631 H         1 UNK         0.0600 
    147 H147        2.8404  -22.2551  -43.9030 H         1 UNK         0.0600 
    148 H148        2.2760  -20.6465  -44.3293 H         1 UNK         0.0600 
    149 H149       -0.0445  -20.1963  -43.3520 H         1 UNK         0.3000 
    150 H150       -3.6107  -20.4646  -43.7449 H         1 UNK         0.0600 
    151 H151       -3.0623  -20.8593  -41.3338 H         1 UNK         0.0600 
    152 H152       -3.4791  -19.1792  -41.6378 H         1 UNK         0.0600 
    153 H153       -1.7935  -19.6416  -41.4179 H         1 UNK         0.0600 
    154 H154       -1.9681  -18.1870  -43.4194 H         1 UNK         0.3000 
    155 H155       -1.3537  -17.5207  -46.9035 H         1 UNK         0.0600 
    156 H156       -2.2167  -15.3470  -45.8611 H         1 UNK         0.0600 
    157 H157       -3.0126  -16.3039  -44.6243 H         1 UNK         0.0600 
    158 H158       -3.4758  -16.4850  -46.3053 H         1 UNK         0.0600 
    159 H159       -0.3706  -16.3298  -44.4928 H         1 UNK         0.3000 
    160 H160        2.5138  -18.3150  -44.0576 H         1 UNK         0.0600 
    161 H161        2.4371  -15.5134  -45.2465 H         1 UNK         0.0600 
    162 H162        3.3001  -16.8882  -45.9244 H         1 UNK         0.0600 
    163 H163        3.7860  -16.2350  -44.3668 H         1 UNK         0.0600 
    164 H164        1.5391  -15.8075  -42.9607 H         1 UNK         0.3000 
    165 H165       -0.1528  -17.4695  -40.2233 H         1 UNK         0.0600 
    166 H166        2.2369  -15.5665  -40.4705 H         1 UNK         0.0600 
    167 H167        1.2920  -15.8817  -39.0181 H         1 UNK         0.0600 
    168 H168        2.2904  -17.1525  -39.7077 H         1 UNK         0.0600 
    169 H169       -0.0719  -14.7173  -40.8222 H         1 UNK         0.3000 
    170 H170       -3.0061  -14.5042  -42.8190 H         1 UNK         0.0600 
    171 H171       -3.8528  -14.7648  -40.5191 H         1 UNK         0.0600 
    172 H172       -2.5256  -13.8122  -39.8754 H         1 UNK         0.0600 
    173 H173       -3.7234  -13.0615  -40.9292 H         1 UNK         0.0600 
    174 H174       -1.6075  -12.9339  -43.3854 H         1 UNK         0.3000 
    175 H175       -0.0319  -11.5327  -43.5789 H         1 UNK         0.0600 
    176 H176        0.5013   -9.3467  -42.5497 H         1 UNK         0.0600 
    177 H177       -1.0591   -9.9088  -41.9718 H         1 UNK         0.0600 
    178 H178        0.3544  -10.0343  -40.9318 H         1 UNK         0.0600 
    179 H179        2.3083  -11.0241  -42.1366 H         1 UNK         0.3000 
    180 H180        4.2385  -11.8765  -42.7496 H         1 UNK         0.0600 
    181 H181        4.0547  -14.8636  -42.0280 H         1 UNK         0.0600 
    182 H182        4.0061  -13.5372  -40.8702 H         1 UNK         0.0600 
    183 H183        5.4668  -13.8347  -41.8020 H         1 UNK         0.0600 
    184 H184        3.7117  -13.9866  -44.7148 H         1 UNK         0.3000 
    185 H185        6.0504  -12.6457  -46.9365 H         1 UNK         0.0600 
    186 H186        6.8799  -14.9606  -47.3006 H         1 UNK         0.0600 
    187 H187        7.5980  -14.2804  -45.8489 H         1 UNK         0.0600 
    188 H188        6.2889  -15.4487  -45.7121 H         1 UNK         0.0600 
    189 H189        4.3415  -14.9285  -47.1411 H         1 UNK         0.3000 
    190 H190       -2.1979  -21.3752  -46.7959 H         1 UNK         0.3000 
    191 H191       -3.8965  -22.8872  -48.4396 H         1 UNK         0.0600 
    192 H192       -4.6923  -21.0700  -46.9874 H         1 UNK         0.0600 
    193 H193       -5.5670  -22.5513  -46.6339 H         1 UNK         0.0600 
    194 H194       -4.2980  -22.0051  -45.5460 H         1 UNK         0.0600 
    195 H195       -2.2554  -23.8480  -45.4122 H         1 UNK         0.3000 
    196 H196       -3.4601  -26.4643  -45.2874 H         1 UNK         0.0600 
    197 H197       -1.7707  -26.8188  -43.4761 H         1 UNK         0.0600 
    198 H198       -2.6616  -25.3192  -43.2622 H         1 UNK         0.0600 
    199 H199       -1.0124  -25.2813  -43.8765 H         1 UNK         0.0600 
    200 H200       -0.1071  -25.3752  -46.1438 H         1 UNK         0.3000 
    201 H201        0.6914  -28.1103  -46.6450 H         1 UNK         0.0600 
    202 H202        2.1501  -26.4480  -45.4987 H         1 UNK         0.0600 
    203 H203        2.2369  -25.4905  -46.9767 H         1 UNK         0.0600 
    204 H204        2.9266  -27.1074  -46.9308 H         1 UNK         0.0600 
    205 H205       -0.0336  -25.3050  -48.7487 H         1 UNK         0.3000 
    206 H206        0.8668  -26.8414  -51.1588 H         1 UNK         0.0600 
    207 H207        2.1005  -24.7087  -50.6238 H         1 UNK         0.0600 
    208 H208        1.2527  -24.6414  -52.1588 H         1 UNK         0.0600 
    209 H209        0.5856  -23.8182  -50.7580 H         1 UNK         0.0600 
    210 H210       -1.9119  -26.3389  -49.5379 H         1 UNK         0.3000 
    211 H211       -4.0965  -26.2148  -49.9424 H         1 UNK         0.0600 
    212 H212       -3.4775  -27.1414  -52.7942 H         1 UNK         0.0600 
    213 H213       -5.0218  -27.2566  -51.9634 H         1 UNK         0.0600 
    214 H214       -3.6563  -28.2043  -51.3988 H         1 UNK         0.0600 
    215 H215       -2.5473  -23.8762  -50.1843 H         1 UNK         0.3000 
    216 H216       -2.7093  -21.7382  -50.4969 H         1 UNK         0.0600 
    217 H217       -5.1966  -21.8758  -50.2650 H         1 UNK         0.0600 
    218 H218       -5.3418  -22.0505  -52.0153 H         1 UNK         0.0600 
    219 H219       -4.6881  -20.5760  -51.3329 H         1 UNK         0.0600 
    220 H220       -1.9491  -23.8482  -52.7985 H         1 UNK         0.3000 
    221 H221       -0.8733  -23.8579  -54.7179 H         1 UNK         0.0600 
    222 H222       -0.0209  -21.0131  -53.9255 H         1 UNK         0.0600 
    223 H223        0.7648  -22.5077  -53.4475 H         1 UNK         0.0600 
    224 H224        0.7722  -22.0257  -55.1330 H         1 UNK         0.0600 
    225 H225       -0.9090  -20.6236  -55.7371 H         1 UNK         0.3000 
    226 H226       -2.9517  -21.1768  -57.8126 H         1 UNK         0.0600 
    227 H227       -0.6887  -20.4049  -58.5124 H         1 UNK         0.0600 
    228 H228       -1.9132  -19.2179  -58.9282 H         1 UNK         0.0600 
    229 H229       -0.8690  -18.9453  -57.5386 H         1 UNK         0.0600 
    230 H230       -2.9307  -19.7125  -54.7165 H         1 UNK         0.3000 
    231 H231       -4.5454  -17.3647  -55.4177 H         1 UNK         0.0600 
    232 H232       -2.8044  -17.2771  -53.6041 H         1 UNK         0.0600 
    233 H233       -3.7296  -18.4551  -52.6777 H         1 UNK         0.0600 
    234 H234       -4.4123  -16.8747  -53.0237 H         1 UNK         0.0600 
    235 H235       -6.7236  -17.1626  -55.1008 H         1 UNK         0.3000 
    236 H236       -8.3331  -19.5990  -54.7968 H         1 UNK         0.0600 
    237 H237       -8.7580  -18.0308  -56.6730 H         1 UNK         0.0600 
    238 H238      -10.1529  -18.1265  -55.6124 H         1 UNK         0.0600 
    239 H239       -9.0904  -16.7250  -55.5356 H         1 UNK         0.0600 
    240 H240       -7.2205  -19.3735  -52.4335 H         1 UNK         0.3000 
    241 H241       -8.6634  -17.6552  -50.5925 H         1 UNK         0.0600 
    242 H242       -9.6647  -20.6725  -51.9173 H         1 UNK         0.3800 
    243 H243      -10.7675  -21.0865  -50.6312 H         1 UNK         0.3800 
    244 H244       -7.2764  -18.6663  -48.8283 H         1 UNK         0.0800 
    245 H245       -6.7050  -19.8960  -49.9310 H         1 UNK         0.0800 
    246 H246       -4.7398  -17.7138  -48.1730 H         1 UNK         0.0800 
    247 H247       -4.4115  -19.2324  -48.9718 H         1 UNK         0.0800 
@<TRIPOS>BOND
     1    1    2 1    
     2    1  127 1    
     3    1  128 1    
     4    1  129 1    
     5    2    3 2    
     6    2    4 am   BACKBONE|DICT|INTERRES
     7    4    5 1    
     8    4  130 1    
     9    5    6 1    
    10    5   65 1    
    11    5  131 1    
    12    6    7 1    
    13    6  132 1    
    14    6  133 1    
    15    7    8 1    
    16    8    9 1    
    17    8  134 1    
    18    8  135 1    
    19    9   10 ar   
    20    9   14 ar   
    21   10   11 ar   
    22   10  136 1    
    23   11   12 ar   
    24   11  126 1    
    25   12   13 ar   
    26   12  137 1    
    27   13   14 ar   
    28   13   15 1    
    29   14  138 1    
    30   15   16 1    
    31   15  139 1    
    32   15  140 1    
    33   16   17 1    
    34   17   18 1    
    35   17  141 1    
    36   17  142 1    
    37   18   19 1    
    38   18   67 1    
    39   18  143 1    
    40   19   20 am   BACKBONE|DICT|INTERRES
    41   19  144 1    
    42   20   21 2    
    43   20   22 1    
    44   22   23 1    
    45   22   24 1    
    46   22  145 1    
    47   23  146 1    
    48   23  147 1    
    49   23  148 1    
    50   24   25 am   BACKBONE|DICT|INTERRES
    51   24  149 1    
    52   25   26 2    
    53   25   27 1    
    54   27   28 1    
    55   27   29 1    
    56   27  150 1    
    57   28  151 1    
    58   28  152 1    
    59   28  153 1    
    60   29   30 am   BACKBONE|DICT|INTERRES
    61   29  154 1    
    62   30   31 2    
    63   30   32 1    
    64   32   33 1    
    65   32   34 1    
    66   32  155 1    
    67   33  156 1    
    68   33  157 1    
    69   33  158 1    
    70   34   35 am   BACKBONE|DICT|INTERRES
    71   34  159 1    
    72   35   36 2    
    73   35   37 1    
    74   37   38 1    
    75   37   39 1    
    76   37  160 1    
    77   38  161 1    
    78   38  162 1    
    79   38  163 1    
    80   39   40 am   BACKBONE|DICT|INTERRES
    81   39  164 1    
    82   40   41 2    
    83   40   42 1    
    84   42   43 1    
    85   42   44 1    
    86   42  165 1    
    87   43  166 1    
    88   43  167 1    
    89   43  168 1    
    90   44   45 am   BACKBONE|DICT|INTERRES
    91   44  169 1    
    92   45   46 2    
    93   45   47 1    
    94   47   48 1    
    95   47   49 1    
    96   47  170 1    
    97   48  171 1    
    98   48  172 1    
    99   48  173 1    
   100   49   50 am   BACKBONE|DICT|INTERRES
   101   49  174 1    
   102   50   51 2    
   103   50   52 1    
   104   52   53 1    
   105   52   54 1    
   106   52  175 1    
   107   53  176 1    
   108   53  177 1    
   109   53  178 1    
   110   54   55 am   BACKBONE|DICT|INTERRES
   111   54  179 1    
   112   55   56 2    
   113   55   57 1    
   114   57   58 1    
   115   57   59 1    
   116   57  180 1    
   117   58  181 1    
   118   58  182 1    
   119   58  183 1    
   120   59   60 am   BACKBONE|DICT|INTERRES
   121   59  184 1    
   122   60   61 2    
   123   60   62 1    
   124   62   63 1    
   125   62   64 1    
   126   62  185 1    
   127   63  186 1    
   128   63  187 1    
   129   63  188 1    
   130   64   65 am   BACKBONE|DICT|INTERRES
   131   64  189 1    
   132   65   66 2    
   133   67   68 2    
   134   67   69 am   BACKBONE|DICT|INTERRES
   135   69   70 1    
   136   69  190 1    
   137   70   71 1    
   138   70   72 1    
   139   70  191 1    
   140   71  192 1    
   141   71  193 1    
   142   71  194 1    
   143   72   73 2    
   144   72   74 am   BACKBONE|DICT|INTERRES
   145   74   75 1    
   146   74  195 1    
   147   75   76 1    
   148   75   77 1    
   149   75  196 1    
   150   76  197 1    
   151   76  198 1    
   152   76  199 1    
   153   77   78 2    
   154   77   79 am   BACKBONE|DICT|INTERRES
   155   79   80 1    
   156   79  200 1    
   157   80   81 1    
   158   80   82 1    
   159   80  201 1    
   160   81  202 1    
   161   81  203 1    
   162   81  204 1    
   163   82   83 2    
   164   82   84 am   BACKBONE|DICT|INTERRES
   165   84   85 1    
   166   84  205 1    
   167   85   86 1    
   168   85   87 1    
   169   85  206 1    
   170   86  207 1    
   171   86  208 1    
   172   86  209 1    
   173   87   88 2    
   174   87   89 am   BACKBONE|DICT|INTERRES
   175   89   90 1    
   176   89  210 1    
   177   90   91 1    
   178   90   92 1    
   179   90  211 1    
   180   91  212 1    
   181   91  213 1    
   182   91  214 1    
   183   92   93 2    
   184   92   94 am   BACKBONE|DICT|INTERRES
   185   94   95 1    
   186   94  215 1    
   187   95   96 1    
   188   95   97 1    
   189   95  216 1    
   190   96  217 1    
   191   96  218 1    
   192   96  219 1    
   193   97   98 2    
   194   97   99 am   BACKBONE|DICT|INTERRES
   195   99  100 1    
   196   99  220 1    
   197  100  101 1    
   198  100  102 1    
   199  100  221 1    
   200  101  222 1    
   201  101  223 1    
   202  101  224 1    
   203  102  103 2    
   204  102  104 am   BACKBONE|DICT|INTERRES
   205  104  105 1    
   206  104  225 1    
   207  105  106 1    
   208  105  107 1    
   209  105  226 1    
   210  106  227 1    
   211  106  228 1    
   212  106  229 1    
   213  107  108 2    
   214  107  109 am   BACKBONE|DICT|INTERRES
   215  109  110 1    
   216  109  230 1    
   217  110  111 1    
   218  110  112 1    
   219  110  231 1    
   220  111  232 1    
   221  111  233 1    
   222  111  234 1    
   223  112  113 2    
   224  112  114 am   BACKBONE|DICT|INTERRES
   225  114  115 1    
   226  114  235 1    
   227  115  116 1    
   228  115  117 1    
   229  115  236 1    
   230  116  237 1    
   231  116  238 1    
   232  116  239 1    
   233  117  118 2    
   234  117  119 am   BACKBONE|DICT|INTERRES
   235  119  120 1    
   236  119  240 1    
   237  120  121 1    
   238  120  124 1    
   239  120  241 1    
   240  121  122 am   BACKBONE|DICT|INTERRES
   241  121  123 2    
   242  122  242 1    
   243  122  243 1    
   244  124  125 1    
   245  124  244 1    
   246  124  245 1    
   247  125  126 1    
   248  126  246 1    
   249  126  247 1    
@<TRIPOS>SUBSTRUCTURE
     1 UNK         1 GROUP             0       ****    0 ROOT    
