@<TRIPOS>MOLECULE
3R540
247   249    1
SMALL
USER_CHARGES


@<TRIPOS>ATOM
      1 CA         -3.7099  -15.2441  -47.9351 C.3       0 UNK        -0.1800 
      2 C          -2.9628  -14.1530  -48.6905 C.2       0 UNK         0.5000 
      3 O          -3.5809  -13.3647  -49.4051 O.2       0 UNK        -0.5000 
      4 N          -1.6386  -14.0982  -48.5218 N.am      1 UNK        -0.5000 
      5 CA         -0.7355  -13.1741  -49.2111 C.3       1 UNK         0.1400 
      6 C6         -0.3892  -13.6155  -50.6686 C.3       23 UNK        -0.0398 
      7 S7         -0.3022  -15.4198  -50.9570 S.3       23 UNK        -0.2404 
      8 C8          1.4800  -15.7668  -50.9677 C.3       23 UNK        -0.0205 
      9 C9          1.7150  -17.2516  -51.1908 C.ar      23 UNK        -0.0193 
     10 C10         1.5885  -17.7894  -52.4742 C.ar      23 UNK        -0.1150 
     11 C11         1.7514  -19.1629  -52.6971 C.ar      23 UNK        -0.0193 
     12 C12         2.0407  -19.9923  -51.6111 C.ar      23 UNK        -0.1150 
     13 C13         2.1566  -19.4699  -50.3207 C.ar      23 UNK        -0.0193 
     14 C14         2.0067  -18.0958  -50.1157 C.ar      23 UNK        -0.1150 
     15 C15         2.3798  -20.4081  -49.1486 C.3       23 UNK        -0.0205 
     16 S16         0.7779  -20.9885  -48.5209 S.3       23 UNK        -0.2404 
     17 C17         1.1756  -22.6803  -47.9828 C.3       23 UNK        -0.0398 
     18 CA          0.1943  -23.2846  -46.9502 C.3       11 UNK         0.1400 
     19 N           0.3993  -22.7735  -45.5914 N.am      11 UNK        -0.5000 
     20 C          -0.0252  -23.4263  -44.4989 C.2       10 UNK         0.5000 
     21 O          -0.6371  -24.4932  -44.5426 O.2       10 UNK        -0.5000 
     22 CA          0.2451  -22.7794  -43.1321 C.3       10 UNK         0.1400 
     23 CB          1.7216  -22.9336  -42.7380 C.3       10 UNK        -0.1800 
     24 N          -0.1445  -21.3722  -43.0858 N.am      10 UNK        -0.5000 
     25 C          -1.4006  -20.9255  -43.2282 C.2       9 UNK         0.5000 
     26 O          -2.3739  -21.6617  -43.3942 O.2       9 UNK        -0.5000 
     27 CA         -1.5967  -19.3974  -43.2278 C.3       9 UNK         0.1400 
     28 CB         -1.5867  -18.8395  -41.7971 C.3       9 UNK        -0.1800 
     29 N          -0.5916  -18.7016  -44.0309 N.am      9 UNK        -0.5000 
     30 C          -0.4299  -18.8726  -45.3505 C.2       8 UNK         0.5000 
     31 O          -1.1415  -19.6033  -46.0357 O.2       8 UNK        -0.5000 
     32 CA          0.7551  -18.1442  -46.0025 C.3       8 UNK         0.1400 
     33 CB          0.4167  -16.6707  -46.2649 C.3       8 UNK        -0.1800 
     34 N           1.9671  -18.2464  -45.1910 N.am      8 UNK        -0.5000 
     35 C           2.6371  -19.3885  -44.9753 C.2       7 UNK         0.5000 
     36 O           2.3235  -20.4765  -45.4591 O.2       7 UNK        -0.5000 
     37 CA          3.8409  -19.3037  -44.0208 C.3       7 UNK         0.1400 
     38 CB          5.0743  -18.7497  -44.7498 C.3       7 UNK        -0.1800 
     39 N           3.5632  -18.4865  -42.8383 N.am      7 UNK        -0.5000 
     40 C           2.6718  -18.8098  -41.8906 C.2       6 UNK         0.5000 
     41 O           1.9992  -19.8387  -41.9060 O.2       6 UNK        -0.5000 
     42 CA          2.4665  -17.7944  -40.7534 C.3       6 UNK         0.1400 
     43 CB          3.5070  -18.0072  -39.6439 C.3       6 UNK        -0.1800 
     44 N           2.5080  -16.4002  -41.1997 N.am      6 UNK        -0.5000 
     45 C           1.6515  -15.8549  -42.0727 C.2       5 UNK         0.5000 
     46 O           0.7722  -16.4887  -42.6610 O.2       5 UNK        -0.5000 
     47 CA          1.8272  -14.3547  -42.3533 C.3       5 UNK         0.1400 
     48 CB          2.4464  -14.1274  -43.7414 C.3       5 UNK        -0.1800 
     49 N           0.5416  -13.6648  -42.2615 N.am      5 UNK        -0.5000 
     50 C          -0.0546  -13.3516  -41.1002 C.2       4 UNK         0.5000 
     51 O           0.4517  -13.5804  -40.0003 O.2       4 UNK        -0.5000 
     52 CA         -1.4258  -12.6454  -41.1489 C.3       4 UNK         0.1400 
     53 CB         -1.2670  -11.1486  -40.8376 C.3       4 UNK        -0.1800 
     54 N          -2.1107  -12.7822  -42.4321 N.am      4 UNK        -0.5000 
     55 C          -2.7374  -13.8867  -42.8575 C.2       3 UNK         0.5000 
     56 O          -2.8793  -14.8993  -42.1720 O.2       3 UNK        -0.5000 
     57 CA         -3.2925  -13.8579  -44.2984 C.3       3 UNK         0.1400 
     58 CB         -4.8071  -13.6003  -44.2835 C.3       3 UNK        -0.1800 
     59 N          -2.6520  -12.8733  -45.1827 N.am      3 UNK        -0.5000 
     60 C          -1.3529  -12.8740  -45.5070 C.2       2 UNK         0.5000 
     61 O          -0.5393  -13.6677  -45.0358 O.2       2 UNK        -0.5000 
     62 CA         -0.8768  -11.7955  -46.4922 C.3       2 UNK         0.1400 
     63 CB         -0.5755  -10.4945  -45.7322 C.3       2 UNK        -0.1800 
     64 N           0.3526  -12.2394  -47.1550 N.am      2 UNK        -0.5000 
     65 C           0.4949  -12.8972  -48.3164 C.2       1 UNK         0.5000 
     66 O           1.6038  -13.2896  -48.6728 O.2       1 UNK        -0.5000 
     67 C          -1.2890  -23.2304  -47.3845 C.2       11 UNK         0.5000 
     68 O          -1.7297  -24.1114  -48.1260 O.2       11 UNK        -0.5000 
     69 N          -2.0473  -22.2401  -46.8847 N.am      12 UNK        -0.5000 
     70 CA         -3.4985  -22.1529  -47.0421 C.3       12 UNK         0.1400 
     71 CB         -4.0294  -20.8072  -46.5270 C.3       12 UNK        -0.1800 
     72 C          -4.2267  -23.3189  -46.3534 C.2       12 UNK         0.5000 
     73 O          -5.1001  -23.9309  -46.9664 O.2       12 UNK        -0.5000 
     74 N          -3.8298  -23.6336  -45.1136 N.am      13 UNK        -0.5000 
     75 CA         -4.3534  -24.7686  -44.3538 C.3       13 UNK         0.1400 
     76 CB         -3.8619  -24.6834  -42.9007 C.3       13 UNK        -0.1800 
     77 C          -3.9840  -26.1275  -44.9793 C.2       13 UNK         0.5000 
     78 O          -4.8218  -27.0300  -45.0054 O.2       13 UNK        -0.5000 
     79 N          -2.7422  -26.2475  -45.4669 N.am      14 UNK        -0.5000 
     80 CA         -2.2011  -27.4735  -46.0470 C.3       14 UNK         0.1400 
     81 CB         -0.6669  -27.3954  -46.0753 C.3       14 UNK        -0.1800 
     82 C          -2.7454  -27.7891  -47.4510 C.2       14 UNK         0.5000 
     83 O          -3.1059  -28.9403  -47.7023 O.2       14 UNK        -0.5000 
     84 N          -2.7520  -26.7940  -48.3501 N.am      15 UNK        -0.5000 
     85 CA         -2.9403  -27.0156  -49.7879 C.3       15 UNK         0.1400 
     86 CB         -1.5533  -27.1868  -50.4376 C.3       15 UNK        -0.1800 
     87 C          -3.7496  -25.9166  -50.4996 C.2       15 UNK         0.5000 
     88 O          -3.8796  -25.9840  -51.7226 O.2       15 UNK        -0.5000 
     89 N          -4.2622  -24.9214  -49.7585 N.am      16 UNK        -0.5000 
     90 CA         -4.9965  -23.7463  -50.2566 C.3       16 UNK         0.1400 
     91 CB         -6.3276  -24.1620  -50.9182 C.3       16 UNK        -0.1800 
     92 C          -4.1565  -22.8175  -51.1627 C.2       16 UNK         0.5000 
     93 O          -4.7305  -22.0214  -51.9043 O.2       16 UNK        -0.5000 
     94 N          -2.8204  -22.9210  -51.0965 N.am      17 UNK        -0.5000 
     95 CA         -1.8950  -22.2998  -52.0482 C.3       17 UNK         0.1400 
     96 CB         -0.4742  -22.8246  -51.8030 C.3       17 UNK        -0.1800 
     97 C          -1.9331  -20.7618  -52.0482 C.2       17 UNK         0.5000 
     98 O          -2.0040  -20.1614  -53.1220 O.2       17 UNK        -0.5000 
     99 N          -1.9301  -20.1570  -50.8521 N.am      18 UNK        -0.5000 
    100 CA        -2.0383  -18.7070  -50.6765 C.3       18 UNK         0.1400 
    101 CB        -1.6595  -18.3225  -49.2391 C.3       18 UNK        -0.1800 
    102 C         -3.4402  -18.1738  -51.0191 C.2       18 UNK         0.5000 
    103 O         -3.5564  -17.0848  -51.5786 O.2       18 UNK        -0.5000 
    104 N         -4.4791  -18.9622  -50.7065 N.am      19 UNK        -0.5000 
    105 CA        -5.8792  -18.6477  -51.0022 C.3       19 UNK         0.1400 
    106 CB        -6.7932  -19.6209  -50.2413 C.3       19 UNK        -0.1800 
    107 C         -6.1766  -18.6717  -52.5135 C.2       19 UNK         0.5000 
    108 O         -6.9041  -17.8110  -53.0090 O.2       19 UNK        -0.5000 
    109 N         -5.5692  -19.6329  -53.2205 N.am      20 UNK        -0.5000 
    110 CA        -5.5952  -19.7609  -54.6772 C.3       20 UNK         0.1400 
    111 CB        -5.2419  -21.2120  -55.0428 C.3       20 UNK        -0.1800 
    112 C         -4.6390  -18.7859  -55.3946 C.2       20 UNK         0.5000 
    113 O         -4.6660  -18.7259  -56.6249 O.2       20 UNK        -0.5000 
    114 N         -3.7849  -18.0807  -54.6355 N.am      21 UNK        -0.5000 
    115 CA        -2.7278  -17.1677  -55.0878 C.3       21 UNK         0.1400 
    116 CB        -3.3434  -15.8689  -55.6460 C.3       21 UNK        -0.1800 
    117 C         -1.7442  -17.8449  -56.0671 C.2       21 UNK         0.5000 
    118 O         -1.3720  -17.2598  -57.0860 O.2       21 UNK        -0.5000 
    119 N         -1.3835  -19.0930  -55.7441 N.am      22 UNK        -0.5000 
    120 CA        -0.5632  -20.0157  -56.5476 C.3       22 UNK         0.1400 
    121 C         -1.2631  -20.5697  -57.8273 C.2       22 UNK         0.5000 
    122 N         -2.5457  -20.3170  -58.0631 N.am      22 UNK        -0.7600 
    123 O         -0.6375  -21.2764  -58.6131 O.2       22 UNK        -0.5000 
    124 C124        0.8744  -19.4919  -56.8556 C.3       23 UNK        -0.0398 
    125 S125        1.7730  -18.6741  -55.4850 S.3       23 UNK        -0.2404 
    126 C126        1.5347  -19.8022  -54.0673 C.3       23 UNK        -0.0205 
    127 H127       -3.0570  -15.7827  -47.2477 H         1 UNK         0.0600 
    128 H128       -4.1322  -15.9623  -48.6382 H         1 UNK         0.0600 
    129 H129       -4.5263  -14.8110  -47.3580 H         1 UNK         0.0600 
    130 H130       -1.1785  -14.7632  -47.9170 H         1 UNK         0.3000 
    131 H131       -1.2348  -12.2084  -49.3078 H         1 UNK         0.0600 
    132 H132       -1.1800  -13.2526  -51.3264 H         1 UNK         0.0800 
    133 H133        0.5187  -13.1345  -51.0363 H         1 UNK         0.0800 
    134 H134        1.9655  -15.1882  -51.7548 H         1 UNK         0.0800 
    135 H135        1.9245  -15.4539  -50.0232 H         1 UNK         0.0800 
    136 H136        1.3265  -17.1293  -53.2879 H         1 UNK         0.1150 
    137 H137        2.1391  -21.0580  -51.7620 H         1 UNK         0.1150 
    138 H138        2.0771  -17.6908  -49.1160 H         1 UNK         0.1150 
    139 H139        2.9919  -21.2541  -49.4646 H         1 UNK         0.0800 
    140 H140        2.9251  -19.9079  -48.3469 H         1 UNK         0.0800 
    141 H141        2.1872  -22.6931  -47.5742 H         1 UNK         0.0800 
    142 H142        1.2068  -23.3125  -48.8713 H         1 UNK         0.0800 
    143 H143        0.4454  -24.3463  -46.9112 H         1 UNK         0.0600 
    144 H144        0.9055  -21.8969  -45.4997 H         1 UNK         0.3000 
    145 H145       -0.3562  -23.3121  -42.3924 H         1 UNK         0.0600 
    146 H146        1.8943  -22.5871  -41.7191 H         1 UNK         0.0600 
    147 H147        2.0315  -23.9785  -42.7815 H         1 UNK         0.0600 
    148 H148        2.3777  -22.3675  -43.3996 H         1 UNK         0.0600 
    149 H149        0.5991  -20.7041  -42.9033 H         1 UNK         0.3000 
    150 H150       -2.5742  -19.1879  -43.6670 H         1 UNK         0.0600 
    151 H151       -2.3516  -19.3193  -41.1854 H         1 UNK         0.0600 
    152 H152       -1.7886  -17.7678  -41.7914 H         1 UNK         0.0600 
    153 H153       -0.6254  -19.0000  -41.3088 H         1 UNK         0.0600 
    154 H154        0.0107  -18.0440  -43.5430 H         1 UNK         0.3000 
    155 H155        0.9546  -18.6139  -46.9652 H         1 UNK         0.0600 
    156 H156        0.1888  -16.1462  -45.3376 H         1 UNK         0.0600 
    157 H157       -0.4559  -16.5840  -46.9123 H         1 UNK         0.0600 
    158 H158        1.2403  -16.1514  -46.7554 H         1 UNK         0.0600 
    159 H159        2.2611  -17.4122  -44.7063 H         1 UNK         0.3000 
    160 H160        4.0705  -20.3173  -43.6852 H         1 UNK         0.0600 
    161 H161        4.9202  -17.7228  -45.0838 H         1 UNK         0.0600 
    162 H162        5.3083  -19.3496  -45.6303 H         1 UNK         0.0600 
    163 H163        5.9530  -18.7649  -44.1048 H         1 UNK         0.0600 
    164 H164        4.0710  -17.6190  -42.7480 H         1 UNK         0.3000 
    165 H165        1.4768  -17.9746  -40.3287 H         1 UNK         0.0600 
    166 H166        3.3119  -17.3579  -38.7901 H         1 UNK         0.0600 
    167 H167        3.4843  -19.0353  -39.2798 H         1 UNK         0.0600 
    168 H168        4.5196  -17.8058  -39.9955 H         1 UNK         0.0600 
    169 H169        3.2029  -15.8113  -40.7636 H         1 UNK         0.3000 
    170 H170        2.5048  -13.9255  -41.6120 H         1 UNK         0.0600 
    171 H171        3.4483  -14.5548  -43.7943 H         1 UNK         0.0600 
    172 H172        1.8555  -14.5883  -44.5322 H         1 UNK         0.0600 
    173 H173        2.5332  -13.0643  -43.9661 H         1 UNK         0.0600 
    174 H174        0.0419  -13.5361  -43.1354 H         1 UNK         0.3000 
    175 H175       -2.0510  -13.0904  -40.3720 H         1 UNK         0.0600 
    176 H176       -0.6552  -10.6446  -41.5870 H         1 UNK         0.0600 
    177 H177       -2.2348  -10.6480  -40.8009 H         1 UNK         0.0600 
    178 H178       -0.7889  -10.9986  -39.8687 H         1 UNK         0.0600 
    179 H179       -2.0514  -11.9971  -43.0627 H         1 UNK         0.3000 
    180 H180       -3.1181  -14.8473  -44.7268 H         1 UNK         0.0600 
    181 H181       -5.0423  -12.6154  -43.8781 H         1 UNK         0.0600 
    182 H182       -5.3235  -14.3395  -43.6696 H         1 UNK         0.0600 
    183 H183       -5.2310  -13.6608  -45.2857 H         1 UNK         0.0600 
    184 H184       -3.2600  -12.1740  -45.5846 H         1 UNK         0.3000 
    185 H185       -1.6675  -11.5942  -47.2151 H         1 UNK         0.0600 
    186 H186       -1.4693  -10.1097  -45.2394 H         1 UNK         0.0600 
    187 H187        0.1858  -10.6409  -44.9644 H         1 UNK         0.0600 
    188 H188       -0.2211   -9.7171  -46.4094 H         1 UNK         0.0600 
    189 H189        1.1806  -12.1391  -46.5879 H         1 UNK         0.3000 
    190 H190       -1.6037  -21.4986  -46.3496 H         1 UNK         0.3000 
    191 H191       -3.7068  -22.2000  -48.1096 H         1 UNK         0.0600 
    192 H192       -3.6142  -19.9742  -47.0901 H         1 UNK         0.0600 
    193 H193       -5.1141  -20.7510  -46.6261 H         1 UNK         0.0600 
    194 H194       -3.7879  -20.6520  -45.4757 H         1 UNK         0.0600 
    195 H195       -3.1294  -23.0587  -44.6552 H         1 UNK         0.3000 
    196 H196       -5.4428  -24.6930  -44.3460 H         1 UNK         0.0600 
    197 H197       -4.2537  -25.5094  -42.3061 H         1 UNK         0.0600 
    198 H198       -4.1900  -23.7574  -42.4284 H         1 UNK         0.0600 
    199 H199       -2.7738  -24.7206  -42.8395 H         1 UNK         0.0600 
    200 H200       -2.0905  -25.4795  -45.3319 H         1 UNK         0.3000 
    201 H201       -2.4751  -28.3041  -45.3927 H         1 UNK         0.0600 
    202 H202       -0.2603  -27.2494  -45.0744 H         1 UNK         0.0600 
    203 H203       -0.3173  -26.5754  -46.7024 H         1 UNK         0.0600 
    204 H204       -0.2358  -28.3163  -46.4699 H         1 UNK         0.0600 
    205 H205       -2.4172  -25.8720  -48.0806 H         1 UNK         0.3000 
    206 H206       -3.5075  -27.9341  -49.9515 H         1 UNK         0.0600 
    207 H207       -1.0087  -28.0202  -49.9937 H         1 UNK         0.0600 
    208 H208       -1.6349  -27.3911  -51.5059 H         1 UNK         0.0600 
    209 H209       -0.9454  -26.2887  -50.3189 H         1 UNK         0.0600 
    210 H210       -4.1351  -24.9542  -48.7550 H         1 UNK         0.3000 
    211 H211       -5.2661  -23.1467  -49.3905 H         1 UNK         0.0600 
    212 H212       -6.1702  -24.6801  -51.8643 H         1 UNK         0.0600 
    213 H213       -6.9490  -23.2904  -51.1274 H         1 UNK         0.0600 
    214 H214       -6.9034  -24.8184  -50.2658 H         1 UNK         0.0600 
    215 H215       -2.4252  -23.5709  -50.4306 H         1 UNK         0.3000 
    216 H216       -2.1972  -22.6250  -53.0461 H         1 UNK         0.0600 
    217 H217        0.2263  -22.4051  -52.5256 H         1 UNK         0.0600 
    218 H218       -0.4317  -23.9094  -51.9025 H         1 UNK         0.0600 
    219 H219       -0.1172  -22.5664  -50.8077 H         1 UNK         0.0600 
    220 H220       -1.8339  -20.7170  -50.0181 H         1 UNK         0.3000 
    221 H221       -1.3277  -18.2289  -51.3541 H         1 UNK         0.0600 
    222 H222       -2.2465  -18.8686  -48.5035 H         1 UNK         0.0600 
    223 H223       -0.6079  -18.5199  -49.0436 H         1 UNK         0.0600 
    224 H224       -1.8178  -17.2590  -49.0625 H         1 UNK         0.0600 
    225 H225       -4.2921  -19.8627  -50.2935 H         1 UNK         0.3000 
    226 H226       -6.0819  -17.6378  -50.6391 H         1 UNK         0.0600 
    227 H227       -6.6191  -19.5675  -49.1664 H         1 UNK         0.0600 
    228 H228       -7.8433  -19.3810  -50.4125 H         1 UNK         0.0600 
    229 H229       -6.6393  -20.6534  -50.5554 H         1 UNK         0.0600 
    230 H230       -5.0529  -20.3524  -52.7197 H         1 UNK         0.3000 
    231 H231       -6.6065  -19.5522  -55.0317 H         1 UNK         0.0600 
    232 H232       -5.9312  -21.9156  -54.5756 H         1 UNK         0.0600 
    233 H233       -4.2319  -21.4705  -54.7210 H         1 UNK         0.0600 
    234 H234       -5.2950  -21.3724  -56.1203 H         1 UNK         0.0600 
    235 H235       -3.8286  -18.2231  -53.6355 H         1 UNK         0.3000 
    236 H236       -2.1466  -16.9070  -54.2018 H         1 UNK         0.0600 
    237 H237       -2.5682  -15.1395  -55.8833 H         1 UNK         0.0600 
    238 H238       -3.9139  -16.0506  -56.5574 H         1 UNK         0.0600 
    239 H239       -4.0107  -15.4071  -54.9183 H         1 UNK         0.0600 
    240 H240       -1.7344  -19.4749  -54.8686 H         1 UNK         0.3000 
    241 H241       -0.4555  -20.9026  -55.9241 H         1 UNK         0.0600 
    242 H242       -3.0907  -19.7187  -57.4530 H         1 UNK         0.3800 
    243 H243       -2.9745  -20.6972  -58.8918 H         1 UNK         0.3800 
    244 H244        0.8360  -18.7758  -57.6780 H         1 UNK         0.0800 
    245 H245        1.4979  -20.3138  -57.2109 H         1 UNK         0.0800 
    246 H246        0.5223  -20.1972  -54.0619 H         1 UNK         0.0800 
    247 H247        2.2025  -20.6557  -54.1930 H         1 UNK         0.0800 
@<TRIPOS>BOND
     1    1    2 1    
     2    1  127 1    
     3    1  128 1    
     4    1  129 1    
     5    2    3 2    
     6    2    4 am   BACKBONE|DICT|INTERRES
     7    4    5 1    
     8    4  130 1    
     9    5    6 1    
    10    5   65 1    
    11    5  131 1    
    12    6    7 1    
    13    6  132 1    
    14    6  133 1    
    15    7    8 1    
    16    8    9 1    
    17    8  134 1    
    18    8  135 1    
    19    9   10 ar   
    20    9   14 ar   
    21   10   11 ar   
    22   10  136 1    
    23   11   12 ar   
    24   11  126 1    
    25   12   13 ar   
    26   12  137 1    
    27   13   14 ar   
    28   13   15 1    
    29   14  138 1    
    30   15   16 1    
    31   15  139 1    
    32   15  140 1    
    33   16   17 1    
    34   17   18 1    
    35   17  141 1    
    36   17  142 1    
    37   18   19 1    
    38   18   67 1    
    39   18  143 1    
    40   19   20 am   BACKBONE|DICT|INTERRES
    41   19  144 1    
    42   20   21 2    
    43   20   22 1    
    44   22   23 1    
    45   22   24 1    
    46   22  145 1    
    47   23  146 1    
    48   23  147 1    
    49   23  148 1    
    50   24   25 am   BACKBONE|DICT|INTERRES
    51   24  149 1    
    52   25   26 2    
    53   25   27 1    
    54   27   28 1    
    55   27   29 1    
    56   27  150 1    
    57   28  151 1    
    58   28  152 1    
    59   28  153 1    
    60   29   30 am   BACKBONE|DICT|INTERRES
    61   29  154 1    
    62   30   31 2    
    63   30   32 1    
    64   32   33 1    
    65   32   34 1    
    66   32  155 1    
    67   33  156 1    
    68   33  157 1    
    69   33  158 1    
    70   34   35 am   BACKBONE|DICT|INTERRES
    71   34  159 1    
    72   35   36 2    
    73   35   37 1    
    74   37   38 1    
    75   37   39 1    
    76   37  160 1    
    77   38  161 1    
    78   38  162 1    
    79   38  163 1    
    80   39   40 am   BACKBONE|DICT|INTERRES
    81   39  164 1    
    82   40   41 2    
    83   40   42 1    
    84   42   43 1    
    85   42   44 1    
    86   42  165 1    
    87   43  166 1    
    88   43  167 1    
    89   43  168 1    
    90   44   45 am   BACKBONE|DICT|INTERRES
    91   44  169 1    
    92   45   46 2    
    93   45   47 1    
    94   47   48 1    
    95   47   49 1    
    96   47  170 1    
    97   48  171 1    
    98   48  172 1    
    99   48  173 1    
   100   49   50 am   BACKBONE|DICT|INTERRES
   101   49  174 1    
   102   50   51 2    
   103   50   52 1    
   104   52   53 1    
   105   52   54 1    
   106   52  175 1    
   107   53  176 1    
   108   53  177 1    
   109   53  178 1    
   110   54   55 am   BACKBONE|DICT|INTERRES
   111   54  179 1    
   112   55   56 2    
   113   55   57 1    
   114   57   58 1    
   115   57   59 1    
   116   57  180 1    
   117   58  181 1    
   118   58  182 1    
   119   58  183 1    
   120   59   60 am   BACKBONE|DICT|INTERRES
   121   59  184 1    
   122   60   61 2    
   123   60   62 1    
   124   62   63 1    
   125   62   64 1    
   126   62  185 1    
   127   63  186 1    
   128   63  187 1    
   129   63  188 1    
   130   64   65 am   BACKBONE|DICT|INTERRES
   131   64  189 1    
   132   65   66 2    
   133   67   68 2    
   134   67   69 am   BACKBONE|DICT|INTERRES
   135   69   70 1    
   136   69  190 1    
   137   70   71 1    
   138   70   72 1    
   139   70  191 1    
   140   71  192 1    
   141   71  193 1    
   142   71  194 1    
   143   72   73 2    
   144   72   74 am   BACKBONE|DICT|INTERRES
   145   74   75 1    
   146   74  195 1    
   147   75   76 1    
   148   75   77 1    
   149   75  196 1    
   150   76  197 1    
   151   76  198 1    
   152   76  199 1    
   153   77   78 2    
   154   77   79 am   BACKBONE|DICT|INTERRES
   155   79   80 1    
   156   79  200 1    
   157   80   81 1    
   158   80   82 1    
   159   80  201 1    
   160   81  202 1    
   161   81  203 1    
   162   81  204 1    
   163   82   83 2    
   164   82   84 am   BACKBONE|DICT|INTERRES
   165   84   85 1    
   166   84  205 1    
   167   85   86 1    
   168   85   87 1    
   169   85  206 1    
   170   86  207 1    
   171   86  208 1    
   172   86  209 1    
   173   87   88 2    
   174   87   89 am   BACKBONE|DICT|INTERRES
   175   89   90 1    
   176   89  210 1    
   177   90   91 1    
   178   90   92 1    
   179   90  211 1    
   180   91  212 1    
   181   91  213 1    
   182   91  214 1    
   183   92   93 2    
   184   92   94 am   BACKBONE|DICT|INTERRES
   185   94   95 1    
   186   94  215 1    
   187   95   96 1    
   188   95   97 1    
   189   95  216 1    
   190   96  217 1    
   191   96  218 1    
   192   96  219 1    
   193   97   98 2    
   194   97   99 am   BACKBONE|DICT|INTERRES
   195   99  100 1    
   196   99  220 1    
   197  100  101 1    
   198  100  102 1    
   199  100  221 1    
   200  101  222 1    
   201  101  223 1    
   202  101  224 1    
   203  102  103 2    
   204  102  104 am   BACKBONE|DICT|INTERRES
   205  104  105 1    
   206  104  225 1    
   207  105  106 1    
   208  105  107 1    
   209  105  226 1    
   210  106  227 1    
   211  106  228 1    
   212  106  229 1    
   213  107  108 2    
   214  107  109 am   BACKBONE|DICT|INTERRES
   215  109  110 1    
   216  109  230 1    
   217  110  111 1    
   218  110  112 1    
   219  110  231 1    
   220  111  232 1    
   221  111  233 1    
   222  111  234 1    
   223  112  113 2    
   224  112  114 am   BACKBONE|DICT|INTERRES
   225  114  115 1    
   226  114  235 1    
   227  115  116 1    
   228  115  117 1    
   229  115  236 1    
   230  116  237 1    
   231  116  238 1    
   232  116  239 1    
   233  117  118 2    
   234  117  119 am   BACKBONE|DICT|INTERRES
   235  119  120 1    
   236  119  240 1    
   237  120  121 1    
   238  120  124 1    
   239  120  241 1    
   240  121  122 am   BACKBONE|DICT|INTERRES
   241  121  123 2    
   242  122  242 1    
   243  122  243 1    
   244  124  125 1    
   245  124  244 1    
   246  124  245 1    
   247  125  126 1    
   248  126  246 1    
   249  126  247 1    
@<TRIPOS>SUBSTRUCTURE
     1 UNK         1 GROUP             0       ****    0 ROOT    
