@<TRIPOS>MOLECULE
3R540
247   249    1
SMALL
USER_CHARGES


@<TRIPOS>ATOM
      1 CA          2.9727  -15.8938  -47.0003 C.3       0 UNK        -0.1800 
      2 C           2.1075  -14.8137  -47.6307 C.2       0 UNK         0.5000 
      3 O           2.5332  -14.1744  -48.5925 O.2       0 UNK        -0.5000 
      4 N           0.8973  -14.6105  -47.0928 N.am      1 UNK        -0.5000 
      5 CA         -0.1712  -13.7191  -47.5753 C.3       1 UNK         0.1400 
      6 C6         -0.6417  -13.9857  -49.0330 C.3       23 UNK        -0.0398 
      7 S7         -0.9791  -15.7487  -49.3721 S.3       23 UNK        -0.2404 
      8 C8          0.2194  -16.0741  -50.6961 C.3       23 UNK        -0.0205 
      9 C9          0.4409  -17.5623  -50.8986 C.ar      23 UNK        -0.0193 
     10 C10        -0.2928  -18.2645  -51.8579 C.ar      23 UNK        -0.1150 
     11 C11        -0.0327  -19.6173  -52.0956 C.ar      23 UNK        -0.0193 
     12 C12         0.9658  -20.2661  -51.3628 C.ar      23 UNK        -0.1150 
     13 C13         1.6913  -19.5786  -50.3832 C.ar      23 UNK        -0.0193 
     14 C14         1.4189  -18.2274  -50.1541 C.ar      23 UNK        -0.1150 
     15 C15         2.8163  -20.2664  -49.6192 C.3       23 UNK        -0.0205 
     16 S16         2.3090  -21.8310  -48.8404 S.3       23 UNK        -0.2404 
     17 C17         1.3246  -21.2512  -47.4187 C.3       23 UNK        -0.0398 
     18 CA          1.0096  -22.4152  -46.4462 C.3       11 UNK         0.1400 
     19 N           0.7441  -21.9560  -45.0808 N.am      11 UNK        -0.5000 
     20 C           0.7128  -22.7602  -44.0072 C.2       10 UNK         0.5000 
     21 O           0.9644  -23.9645  -44.0485 O.2       10 UNK        -0.5000 
     22 CA          0.2953  -22.1249  -42.6682 C.3       10 UNK         0.1400 
     23 CB          1.4874  -21.4260  -41.9981 C.3       10 UNK        -0.1800 
     24 N          -0.8119  -21.1815  -42.8214 N.am      10 UNK        -0.5000 
     25 C          -2.0501  -21.5257  -43.2032 C.2       9 UNK         0.5000 
     26 O          -2.4116  -22.6900  -43.3760 O.2       9 UNK        -0.5000 
     27 CA         -3.0386  -20.3766  -43.4794 C.3       9 UNK         0.1400 
     28 CB         -3.7258  -19.9239  -42.1829 C.3       9 UNK        -0.1800 
     29 N          -2.4138  -19.2228  -44.1300 N.am      9 UNK        -0.5000 
     30 C          -1.8355  -19.2460  -45.3394 C.2       8 UNK         0.5000 
     31 O          -1.7738  -20.2455  -46.0503 O.2       8 UNK        -0.5000 
     32 CA         -1.1613  -17.9479  -45.8103 C.3       8 UNK         0.1400 
     33 CB         -2.2208  -16.9390  -46.2719 C.3       8 UNK        -0.1800 
     34 N          -0.3134  -17.3677  -44.7655 N.am      8 UNK        -0.5000 
     35 C           0.7836  -17.9688  -44.2770 C.2       7 UNK         0.5000 
     36 O           1.2454  -19.0152  -44.7312 O.2       7 UNK        -0.5000 
     37 CA          1.4427  -17.3283  -43.0421 C.3       7 UNK         0.1400 
     38 CB          2.4742  -16.2634  -43.4446 C.3       7 UNK        -0.1800 
     39 N           0.4519  -16.7445  -42.1383 N.am      7 UNK        -0.5000 
     40 C          -0.3859  -17.4646  -41.3774 C.2       6 UNK         0.5000 
     41 O          -0.3747  -18.6936  -41.3281 O.2       6 UNK        -0.5000 
     42 CA         -1.4447  -16.6827  -40.5773 C.3       6 UNK         0.1400 
     43 CB         -0.8717  -16.2251  -39.2280 C.3       6 UNK        -0.1800 
     44 N          -1.9502  -15.5197  -41.3079 N.am      6 UNK        -0.5000 
     45 C          -2.6461  -15.5820  -42.4528 C.2       5 UNK         0.5000 
     46 O          -3.0120  -16.6383  -42.9651 O.2       5 UNK        -0.5000 
     47 CA         -2.9186  -14.2472  -43.1753 C.3       5 UNK         0.1400 
     48 CB         -4.2830  -13.6773  -42.7622 C.3       5 UNK        -0.1800 
     49 N          -1.8737  -13.2526  -42.9130 N.am      5 UNK        -0.5000 
     50 C          -0.6128  -13.3550  -43.3515 C.2       4 UNK         0.5000 
     51 O          -0.2232  -14.2392  -44.1218 O.2       4 UNK        -0.5000 
     52 CA          0.3939  -12.3710  -42.7419 C.3       4 UNK         0.1400 
     53 CB          0.8228  -12.8794  -41.3480 C.3       4 UNK        -0.1800 
     54 N           1.5446  -12.2619  -43.6315 N.am      4 UNK        -0.5000 
     55 C           2.5908  -11.4390  -43.4832 C.2       3 UNK         0.5000 
     56 O           2.7216  -10.6432  -42.5526 O.2       3 UNK        -0.5000 
     57 CA          3.6612  -11.4978  -44.5868 C.3       3 UNK         0.1400 
     58 CB          4.4780  -12.7967  -44.4916 C.3       3 UNK        -0.1800 
     59 N           3.0651  -11.3931  -45.9169 N.am      3 UNK        -0.5000 
     60 C           2.5089  -10.2807  -46.4200 C.2       2 UNK         0.5000 
     61 O           2.5209   -9.1879  -45.8527 O.2       2 UNK        -0.5000 
     62 CA          1.8056  -10.4212  -47.7820 C.3       2 UNK         0.1400 
     63 CB          2.7797  -10.1173  -48.9301 C.3       2 UNK        -0.1800 
     64 N           1.2467  -11.7595  -47.9698 N.am      2 UNK        -0.5000 
     65 C           0.1575  -12.2309  -47.3514 C.2       1 UNK         0.5000 
     66 O          -0.5527  -11.5537  -46.6078 O.2       1 UNK        -0.5000 
     67 C          -0.1250  -23.3146  -46.9795 C.2       11 UNK         0.5000 
     68 O           0.1596  -24.3554  -47.5723 O.2       11 UNK        -0.5000 
     69 N          -1.3853  -22.9307  -46.7225 N.am      12 UNK        -0.5000 
     70 CA         -2.6096  -23.6123  -47.1603 C.3       12 UNK         0.1400 
     71 CB         -3.8412  -22.8531  -46.6432 C.3       12 UNK        -0.1800 
     72 C          -2.7069  -25.0933  -46.7533 C.2       12 UNK         0.5000 
     73 O          -3.3581  -25.8628  -47.4576 O.2       12 UNK        -0.5000 
     74 N          -2.0265  -25.4805  -45.6661 N.am      13 UNK        -0.5000 
     75 CA         -1.8878  -26.8666  -45.2160 C.3       13 UNK         0.1400 
     76 CB         -1.1622  -26.8794  -43.8623 C.3       13 UNK        -0.1800 
     77 C          -1.1626  -27.7817  -46.2275 C.2       13 UNK         0.5000 
     78 O          -1.4021  -28.9899  -46.2167 O.2       13 UNK        -0.5000 
     79 N          -0.3088  -27.1986  -47.0805 N.am      14 UNK        -0.5000 
     80 CA          0.4045  -27.8844  -48.1570 C.3       14 UNK         0.1400 
     81 CB          1.9129  -27.6399  -47.9909 C.3       14 UNK        -0.1800 
     82 C          -0.0661  -27.4015  -49.5399 C.2       14 UNK         0.5000 
     83 O          -0.2256  -28.2211  -50.4448 O.2       14 UNK        -0.5000 
     84 N          -0.2696  -26.0851  -49.6882 N.am      15 UNK        -0.5000 
     85 CA         -0.5954  -25.4261  -50.9540 C.3       15 UNK         0.1400 
     86 CB         -0.2284  -23.9382  -50.8486 C.3       15 UNK        -0.1800 
     87 C          -2.0647  -25.5760  -51.3844 C.2       15 UNK         0.5000 
     88 O          -2.3642  -25.3409  -52.5552 O.2       15 UNK        -0.5000 
     89 N          -2.9563  -25.9192  -50.4426 N.am      16 UNK        -0.5000 
     90 CA         -4.4053  -26.1402  -50.5724 C.3       16 UNK         0.1400 
     91 CB         -4.7057  -27.2856  -51.5580 C.3       16 UNK        -0.1800 
     92 C          -5.2444  -24.8898  -50.9125 C.2       16 UNK         0.5000 
     93 O          -6.3685  -24.7757  -50.4230 O.2       16 UNK        -0.5000 
     94 N          -4.7039  -23.9855  -51.7353 N.am      17 UNK        -0.5000 
     95 CA         -5.3818  -22.8129  -52.2836 C.3       17 UNK         0.1400 
     96 CB         -5.6820  -23.0612  -53.7716 C.3       17 UNK        -0.1800 
     97 C          -4.5779  -21.5247  -52.0362 C.2       17 UNK         0.5000 
     98 O          -4.5394  -20.6448  -52.8960 O.2       17 UNK        -0.5000 
     99 N          -3.9696  -21.4119  -50.8506 N.am      18 UNK        -0.5000 
    100 CA        -3.4938  -20.1391  -50.3083 C.3       18 UNK         0.1400 
    101 CB        -2.2396  -20.3860  -49.4566 C.3       18 UNK        -0.1800 
    102 C         -4.6336  -19.5466  -49.4514 C.2       18 UNK         0.5000 
    103 O         -5.2806  -20.3083  -48.7328 O.2       18 UNK        -0.5000 
    104 N         -4.9263  -18.2398  -49.4907 N.am      19 UNK        -0.5000 
    105 CA        -4.3155  -17.1738  -50.2912 C.3       19 UNK         0.1400 
    106 CB        -4.4956  -15.8521  -49.5232 C.3       19 UNK        -0.1800 
    107 C         -4.9174  -17.0394  -51.7080 C.2       19 UNK         0.5000 
    108 O         -4.5437  -16.1132  -52.4280 O.2       19 UNK        -0.5000 
    109 N         -5.8488  -17.9303  -52.0783 N.am      20 UNK        -0.5000 
    110 CA        -6.6412  -17.9524  -53.3165 C.3       20 UNK         0.1400 
    111 CB        -7.7984  -18.9499  -53.1231 C.3       20 UNK        -0.1800 
    112 C         -5.8444  -18.2257  -54.6181 C.2       20 UNK         0.5000 
    113 O         -6.2328  -19.0787  -55.4204 O.2       20 UNK        -0.5000 
    114 N         -4.7429  -17.4885  -54.8086 N.am      21 UNK        -0.5000 
    115 CA        -3.8655  -17.4353  -55.9848 C.3       21 UNK         0.1400 
    116 CB        -4.6230  -16.8239  -57.1817 C.3       21 UNK        -0.1800 
    117 C         -3.1774  -18.7672  -56.3561 C.2       21 UNK         0.5000 
    118 O         -2.6432  -18.8798  -57.4610 O.2       21 UNK        -0.5000 
    119 N         -3.1933  -19.7440  -55.4398 N.am      22 UNK        -0.5000 
    120 CA        -2.6784  -21.1116  -55.6185 C.3       22 UNK         0.1400 
    121 C         -3.5169  -21.9643  -56.6203 C.2       22 UNK         0.5000 
    122 N         -4.7672  -21.6085  -56.8979 N.am      22 UNK        -0.7600 
    123 O         -3.0446  -22.9752  -57.1332 O.2       22 UNK        -0.5000 
    124 C124       -1.1471  -21.1747  -55.8986 C.3       23 UNK        -0.0398 
    125 S125       -0.0673  -20.1906  -54.7914 S.3       23 UNK        -0.2404 
    126 C126       -0.8281  -20.3718  -53.1473 C.3       23 UNK        -0.0205 
    127 H127        3.7025  -15.4500  -46.3243 H         1 UNK         0.0600 
    128 H128        3.5133  -16.4406  -47.7728 H         1 UNK         0.0600 
    129 H129        2.3708  -16.6125  -46.4453 H         1 UNK         0.0600 
    130 H130        0.6415  -15.1339  -46.2670 H         1 UNK         0.3000 
    131 H131       -1.0232  -13.9245  -46.9271 H         1 UNK         0.0600 
    132 H132       -1.5596  -13.4306  -49.2336 H         1 UNK         0.0800 
    133 H133        0.0903  -13.6140  -49.7515 H         1 UNK         0.0800 
    134 H134       -0.1318  -15.6121  -51.6200 H         1 UNK         0.0800 
    135 H135        1.1729  -15.6001  -50.4608 H         1 UNK         0.0800 
    136 H136       -1.0509  -17.7537  -52.4350 H         1 UNK         0.1150 
    137 H137        1.1824  -21.3069  -51.5573 H         1 UNK         0.1150 
    138 H138        1.9879  -17.6804  -49.4160 H         1 UNK         0.1150 
    139 H139        3.6254  -20.4762  -50.3198 H         1 UNK         0.0800 
    140 H140        3.2355  -19.6074  -48.8572 H         1 UNK         0.0800 
    141 H141        0.4178  -20.7548  -47.7700 H         1 UNK         0.0800 
    142 H142        1.9109  -20.4874  -46.9063 H         1 UNK         0.0800 
    143 H143        1.9029  -23.0408  -46.3801 H         1 UNK         0.0600 
    144 H144        0.5653  -20.9652  -44.9591 H         1 UNK         0.3000 
    145 H145       -0.0391  -22.9285  -42.0087 H         1 UNK         0.0600 
    146 H146        1.2115  -21.0231  -41.0234 H         1 UNK         0.0600 
    147 H147        2.3099  -22.1247  -41.8403 H         1 UNK         0.0600 
    148 H148        1.8675  -20.6046  -42.6049 H         1 UNK         0.0600 
    149 H149       -0.6162  -20.2075  -42.6147 H         1 UNK         0.3000 
    150 H150       -3.8066  -20.7574  -44.1555 H         1 UNK         0.0600 
    151 H151       -4.2395  -20.7572  -41.7021 H         1 UNK         0.0600 
    152 H152       -4.4700  -19.1518  -42.3798 H         1 UNK         0.0600 
    153 H153       -3.0092  -19.5225  -41.4665 H         1 UNK         0.0600 
    154 H154       -2.4644  -18.3380  -43.6322 H         1 UNK         0.3000 
    155 H155       -0.5237  -18.1838  -46.6656 H         1 UNK         0.0600 
    156 H156       -2.7300  -17.3097  -47.1619 H         1 UNK         0.0600 
    157 H157       -1.7731  -15.9826  -46.5250 H         1 UNK         0.0600 
    158 H158       -2.9842  -16.7577  -45.5172 H         1 UNK         0.0600 
    159 H159       -0.6285  -16.5079  -44.3368 H         1 UNK         0.3000 
    160 H160        1.9720  -18.1158  -42.5015 H         1 UNK         0.0600 
    161 H161        2.0324  -15.4685  -44.0433 H         1 UNK         0.0600 
    162 H162        3.2773  -16.7083  -44.0330 H         1 UNK         0.0600 
    163 H163        2.9331  -15.8057  -42.5681 H         1 UNK         0.0600 
    164 H164        0.3547  -15.7412  -42.1579 H         1 UNK         0.3000 
    165 H165       -2.2836  -17.3547  -40.3851 H         1 UNK         0.0600 
    166 H166       -1.6323  -15.7298  -38.6242 H         1 UNK         0.0600 
    167 H167       -0.5046  -17.0757  -38.6521 H         1 UNK         0.0600 
    168 H168       -0.0395  -15.5315  -39.3558 H         1 UNK         0.0600 
    169 H169       -1.7119  -14.6120  -40.9388 H         1 UNK         0.3000 
    170 H170       -2.9405  -14.4481  -44.2487 H         1 UNK         0.0600 
    171 H171       -5.0818  -14.3911  -42.9682 H         1 UNK         0.0600 
    172 H172       -4.3180  -13.4435  -41.6974 H         1 UNK         0.0600 
    173 H173       -4.5128  -12.7660  -43.3146 H         1 UNK         0.0600 
    174 H174       -2.1192  -12.4959  -42.2904 H         1 UNK         0.3000 
    175 H175       -0.0778  -11.3903  -42.6553 H         1 UNK         0.0600 
    176 H176        1.3670  -13.8222  -41.4141 H         1 UNK         0.0600 
    177 H177        1.4645  -12.1633  -40.8357 H         1 UNK         0.0600 
    178 H178       -0.0391  -13.0402  -40.6998 H         1 UNK         0.0600 
    179 H179        1.4950  -12.8722  -44.4359 H         1 UNK         0.3000 
    180 H180        4.3423  -10.6557  -44.4459 H         1 UNK         0.0600 
    181 H181        3.8557  -13.6803  -44.6332 H         1 UNK         0.0600 
    182 H182        4.9534  -12.8858  -43.5139 H         1 UNK         0.0600 
    183 H183        5.2697  -12.8206  -45.2405 H         1 UNK         0.0600 
    184 H184        3.0209  -12.2366  -46.4680 H         1 UNK         0.3000 
    185 H185        0.9921   -9.6935  -47.8180 H         1 UNK         0.0600 
    186 H186        3.2042   -9.1177  -48.8278 H         1 UNK         0.0600 
    187 H187        3.6083  -10.8263  -48.9539 H         1 UNK         0.0600 
    188 H188        2.2752  -10.1587  -49.8956 H         1 UNK         0.0600 
    189 H189        1.8006  -12.4221  -48.5068 H         1 UNK         0.3000 
    190 H190       -1.5212  -22.0288  -46.2689 H         1 UNK         0.3000 
    191 H191       -2.6201  -23.5746  -48.2511 H         1 UNK         0.0600 
    192 H192       -3.9202  -22.9095  -45.5579 H         1 UNK         0.0600 
    193 H193       -4.7586  -23.2724  -47.0584 H         1 UNK         0.0600 
    194 H194       -3.8177  -21.8000  -46.9182 H         1 UNK         0.0600 
    195 H195       -1.5205  -24.7781  -45.1440 H         1 UNK         0.3000 
    196 H196       -2.8921  -27.2694  -45.0706 H         1 UNK         0.0600 
    197 H197       -1.0940  -27.8929  -43.4651 H         1 UNK         0.0600 
    198 H198       -1.6902  -26.2752  -43.1242 H         1 UNK         0.0600 
    199 H199       -0.1465  -26.4918  -43.9488 H         1 UNK         0.0600 
    200 H200       -0.1822  -26.1926  -47.0292 H         1 UNK         0.3000 
    201 H201        0.2312  -28.9615  -48.1106 H         1 UNK         0.0600 
    202 H202        2.2720  -28.0374  -47.0415 H         1 UNK         0.0600 
    203 H203        2.1555  -26.5766  -48.0206 H         1 UNK         0.0600 
    204 H204        2.4788  -28.1299  -48.7841 H         1 UNK         0.0600 
    205 H205       -0.0890  -25.4663  -48.8992 H         1 UNK         0.3000 
    206 H206        0.0197  -25.8693  -51.7400 H         1 UNK         0.0600 
    207 H207        0.8235  -23.8112  -50.5939 H         1 UNK         0.0600 
    208 H208       -0.3936  -23.4296  -51.7978 H         1 UNK         0.0600 
    209 H209       -0.8218  -23.4249  -50.0915 H         1 UNK         0.0600 
    210 H210       -2.6080  -26.0518  -49.5010 H         1 UNK         0.3000 
    211 H211       -4.7411  -26.4726  -49.5896 H         1 UNK         0.0600 
    212 H212       -4.4326  -27.0272  -52.5814 H         1 UNK         0.0600 
    213 H213       -5.7690  -27.5284  -51.5584 H         1 UNK         0.0600 
    214 H214       -4.1657  -28.1922  -51.2846 H         1 UNK         0.0600 
    215 H215       -3.7833  -24.1961  -52.1122 H         1 UNK         0.3000 
    216 H216       -6.3366  -22.6571  -51.7778 H         1 UNK         0.0600 
    217 H217       -6.1645  -22.1986  -54.2337 H         1 UNK         0.0600 
    218 H218       -6.3530  -23.9108  -53.8979 H         1 UNK         0.0600 
    219 H219       -4.7707  -23.2746  -54.3290 H         1 UNK         0.0600 
    220 H220       -4.1022  -22.1554  -50.1808 H         1 UNK         0.3000 
    221 H221       -3.2240  -19.4702  -51.1250 H         1 UNK         0.0600 
    222 H222       -2.4622  -20.9695  -48.5664 H         1 UNK         0.0600 
    223 H223       -1.4788  -20.9270  -50.0170 H         1 UNK         0.0600 
    224 H224       -1.7980  -19.4439  -49.1287 H         1 UNK         0.0600 
    225 H225       -5.6885  -17.9300  -48.9059 H         1 UNK         0.3000 
    226 H226       -3.2458  -17.3579  -50.3963 H         1 UNK         0.0600 
    227 H227       -4.0679  -15.9094  -48.5230 H         1 UNK         0.0600 
    228 H228       -3.9972  -15.0275  -50.0346 H         1 UNK         0.0600 
    229 H229       -5.5481  -15.5851  -49.4208 H         1 UNK         0.0600 
    230 H230       -6.0708  -18.6604  -51.4190 H         1 UNK         0.3000 
    231 H231       -7.0820  -16.9608  -53.4354 H         1 UNK         0.0600 
    232 H232       -8.4710  -18.9455  -53.9818 H         1 UNK         0.0600 
    233 H233       -8.3964  -18.6986  -52.2470 H         1 UNK         0.0600 
    234 H234       -7.4299  -19.9691  -52.9988 H         1 UNK         0.0600 
    235 H235       -4.5066  -16.8429  -54.0566 H         1 UNK         0.3000 
    236 H236       -3.0585  -16.7503  -55.7214 H         1 UNK         0.0600 
    237 H237       -5.4126  -17.4855  -57.5393 H         1 UNK         0.0600 
    238 H238       -5.0791  -15.8706  -56.9146 H         1 UNK         0.0600 
    239 H239       -3.9509  -16.6345  -58.0195 H         1 UNK         0.0600 
    240 H240       -3.7084  -19.5931  -54.5803 H         1 UNK         0.3000 
    241 H241       -2.8390  -21.6107  -54.6643 H         1 UNK         0.0600 
    242 H242       -5.3119  -22.1630  -57.5388 H         1 UNK         0.3800 
    243 H243       -5.1775  -20.7912  -56.4632 H         1 UNK         0.3800 
    244 H244       -0.8069  -22.2098  -55.8385 H         1 UNK         0.0800 
    245 H245       -0.9406  -20.8584  -56.9219 H         1 UNK         0.0800 
    246 H246       -0.8978  -21.4282  -52.8892 H         1 UNK         0.0800 
    247 H247       -1.8469  -19.9875  -53.1568 H         1 UNK         0.0800 
@<TRIPOS>BOND
     1    1    2 1    
     2    1  127 1    
     3    1  128 1    
     4    1  129 1    
     5    2    3 2    
     6    2    4 am   BACKBONE|DICT|INTERRES
     7    4    5 1    
     8    4  130 1    
     9    5    6 1    
    10    5   65 1    
    11    5  131 1    
    12    6    7 1    
    13    6  132 1    
    14    6  133 1    
    15    7    8 1    
    16    8    9 1    
    17    8  134 1    
    18    8  135 1    
    19    9   10 ar   
    20    9   14 ar   
    21   10   11 ar   
    22   10  136 1    
    23   11   12 ar   
    24   11  126 1    
    25   12   13 ar   
    26   12  137 1    
    27   13   14 ar   
    28   13   15 1    
    29   14  138 1    
    30   15   16 1    
    31   15  139 1    
    32   15  140 1    
    33   16   17 1    
    34   17   18 1    
    35   17  141 1    
    36   17  142 1    
    37   18   19 1    
    38   18   67 1    
    39   18  143 1    
    40   19   20 am   BACKBONE|DICT|INTERRES
    41   19  144 1    
    42   20   21 2    
    43   20   22 1    
    44   22   23 1    
    45   22   24 1    
    46   22  145 1    
    47   23  146 1    
    48   23  147 1    
    49   23  148 1    
    50   24   25 am   BACKBONE|DICT|INTERRES
    51   24  149 1    
    52   25   26 2    
    53   25   27 1    
    54   27   28 1    
    55   27   29 1    
    56   27  150 1    
    57   28  151 1    
    58   28  152 1    
    59   28  153 1    
    60   29   30 am   BACKBONE|DICT|INTERRES
    61   29  154 1    
    62   30   31 2    
    63   30   32 1    
    64   32   33 1    
    65   32   34 1    
    66   32  155 1    
    67   33  156 1    
    68   33  157 1    
    69   33  158 1    
    70   34   35 am   BACKBONE|DICT|INTERRES
    71   34  159 1    
    72   35   36 2    
    73   35   37 1    
    74   37   38 1    
    75   37   39 1    
    76   37  160 1    
    77   38  161 1    
    78   38  162 1    
    79   38  163 1    
    80   39   40 am   BACKBONE|DICT|INTERRES
    81   39  164 1    
    82   40   41 2    
    83   40   42 1    
    84   42   43 1    
    85   42   44 1    
    86   42  165 1    
    87   43  166 1    
    88   43  167 1    
    89   43  168 1    
    90   44   45 am   BACKBONE|DICT|INTERRES
    91   44  169 1    
    92   45   46 2    
    93   45   47 1    
    94   47   48 1    
    95   47   49 1    
    96   47  170 1    
    97   48  171 1    
    98   48  172 1    
    99   48  173 1    
   100   49   50 am   BACKBONE|DICT|INTERRES
   101   49  174 1    
   102   50   51 2    
   103   50   52 1    
   104   52   53 1    
   105   52   54 1    
   106   52  175 1    
   107   53  176 1    
   108   53  177 1    
   109   53  178 1    
   110   54   55 am   BACKBONE|DICT|INTERRES
   111   54  179 1    
   112   55   56 2    
   113   55   57 1    
   114   57   58 1    
   115   57   59 1    
   116   57  180 1    
   117   58  181 1    
   118   58  182 1    
   119   58  183 1    
   120   59   60 am   BACKBONE|DICT|INTERRES
   121   59  184 1    
   122   60   61 2    
   123   60   62 1    
   124   62   63 1    
   125   62   64 1    
   126   62  185 1    
   127   63  186 1    
   128   63  187 1    
   129   63  188 1    
   130   64   65 am   BACKBONE|DICT|INTERRES
   131   64  189 1    
   132   65   66 2    
   133   67   68 2    
   134   67   69 am   BACKBONE|DICT|INTERRES
   135   69   70 1    
   136   69  190 1    
   137   70   71 1    
   138   70   72 1    
   139   70  191 1    
   140   71  192 1    
   141   71  193 1    
   142   71  194 1    
   143   72   73 2    
   144   72   74 am   BACKBONE|DICT|INTERRES
   145   74   75 1    
   146   74  195 1    
   147   75   76 1    
   148   75   77 1    
   149   75  196 1    
   150   76  197 1    
   151   76  198 1    
   152   76  199 1    
   153   77   78 2    
   154   77   79 am   BACKBONE|DICT|INTERRES
   155   79   80 1    
   156   79  200 1    
   157   80   81 1    
   158   80   82 1    
   159   80  201 1    
   160   81  202 1    
   161   81  203 1    
   162   81  204 1    
   163   82   83 2    
   164   82   84 am   BACKBONE|DICT|INTERRES
   165   84   85 1    
   166   84  205 1    
   167   85   86 1    
   168   85   87 1    
   169   85  206 1    
   170   86  207 1    
   171   86  208 1    
   172   86  209 1    
   173   87   88 2    
   174   87   89 am   BACKBONE|DICT|INTERRES
   175   89   90 1    
   176   89  210 1    
   177   90   91 1    
   178   90   92 1    
   179   90  211 1    
   180   91  212 1    
   181   91  213 1    
   182   91  214 1    
   183   92   93 2    
   184   92   94 am   BACKBONE|DICT|INTERRES
   185   94   95 1    
   186   94  215 1    
   187   95   96 1    
   188   95   97 1    
   189   95  216 1    
   190   96  217 1    
   191   96  218 1    
   192   96  219 1    
   193   97   98 2    
   194   97   99 am   BACKBONE|DICT|INTERRES
   195   99  100 1    
   196   99  220 1    
   197  100  101 1    
   198  100  102 1    
   199  100  221 1    
   200  101  222 1    
   201  101  223 1    
   202  101  224 1    
   203  102  103 2    
   204  102  104 am   BACKBONE|DICT|INTERRES
   205  104  105 1    
   206  104  225 1    
   207  105  106 1    
   208  105  107 1    
   209  105  226 1    
   210  106  227 1    
   211  106  228 1    
   212  106  229 1    
   213  107  108 2    
   214  107  109 am   BACKBONE|DICT|INTERRES
   215  109  110 1    
   216  109  230 1    
   217  110  111 1    
   218  110  112 1    
   219  110  231 1    
   220  111  232 1    
   221  111  233 1    
   222  111  234 1    
   223  112  113 2    
   224  112  114 am   BACKBONE|DICT|INTERRES
   225  114  115 1    
   226  114  235 1    
   227  115  116 1    
   228  115  117 1    
   229  115  236 1    
   230  116  237 1    
   231  116  238 1    
   232  116  239 1    
   233  117  118 2    
   234  117  119 am   BACKBONE|DICT|INTERRES
   235  119  120 1    
   236  119  240 1    
   237  120  121 1    
   238  120  124 1    
   239  120  241 1    
   240  121  122 am   BACKBONE|DICT|INTERRES
   241  121  123 2    
   242  122  242 1    
   243  122  243 1    
   244  124  125 1    
   245  124  244 1    
   246  124  245 1    
   247  125  126 1    
   248  126  246 1    
   249  126  247 1    
@<TRIPOS>SUBSTRUCTURE
     1 UNK         1 GROUP             0       ****    0 ROOT    
