@<TRIPOS>MOLECULE
3R540
247   249    1
SMALL
USER_CHARGES


@<TRIPOS>ATOM
      1 CA         -3.9953  -10.8645  -49.7616 C.3       0 UNK        -0.1800 
      2 C          -2.7598  -11.5414  -49.1858 C.2       0 UNK         0.5000 
      3 O          -1.6877  -10.9377  -49.1548 O.2       0 UNK        -0.5000 
      4 N          -2.9060  -12.7913  -48.7274 N.am      1 UNK        -0.5000 
      5 CA         -1.8225  -13.6164  -48.1690 C.3       1 UNK         0.1400 
      6 C6         -2.1052  -15.1387  -48.3046 C.3       23 UNK        -0.0398 
      7 S7         -2.8299  -15.6790  -49.8995 S.3       23 UNK        -0.2404 
      8 C8         -1.7468  -14.9351  -51.1624 C.3       23 UNK        -0.0205 
      9 C9         -0.6098  -15.8632  -51.5543 C.ar      23 UNK        -0.0193 
     10 C10        -0.7367  -16.6716  -52.6865 C.ar      23 UNK        -0.1150 
     11 C11         0.3031  -17.5182  -53.0779 C.ar      23 UNK        -0.0193 
     12 C12         1.4785  -17.5524  -52.3230 C.ar      23 UNK        -0.1150 
     13 C13         1.6183  -16.7501  -51.1857 C.ar      23 UNK        -0.0193 
     14 C14         0.5701  -15.9052  -50.8060 C.ar      23 UNK        -0.1150 
     15 C15         2.9141  -16.7776  -50.3883 C.3       23 UNK        -0.0205 
     16 S16         3.2627  -18.4154  -49.6724 S.3       23 UNK        -0.2404 
     17 C17         2.0547  -18.5066  -48.3100 C.3       23 UNK        -0.0398 
     18 CA          1.3520  -19.8901  -48.2369 C.3       11 UNK         0.1400 
     19 N           1.3050  -20.4066  -46.8660 N.am      11 UNK        -0.5000 
     20 C           1.0440  -21.6785  -46.5324 C.2       10 UNK         0.5000 
     21 O           0.8960  -22.5815  -47.3548 O.2       10 UNK        -0.5000 
     22 CA          0.9035  -21.9994  -45.0311 C.3       10 UNK         0.1400 
     23 CB          2.2020  -22.6201  -44.4948 C.3       10 UNK        -0.1800 
     24 N           0.5484  -20.8384  -44.2099 N.am      10 UNK        -0.5000 
     25 C          -0.6131  -20.1730  -44.2816 C.2       9 UNK         0.5000 
     26 O          -1.5336  -20.4901  -45.0336 O.2       9 UNK        -0.5000 
     27 CA         -0.7379  -18.8969  -43.4309 C.3       9 UNK         0.1400 
     28 CB         -1.0498  -19.2345  -41.9660 C.3       9 UNK        -0.1800 
     29 N           0.4642  -18.0663  -43.4975 N.am      9 UNK        -0.5000 
     30 C           0.9310  -17.4833  -44.6112 C.2       8 UNK         0.5000 
     31 O           0.3761  -17.5561  -45.7072 O.2       8 UNK        -0.5000 
     32 CA          2.2698  -16.7377  -44.4832 C.3       8 UNK         0.1400 
     33 CB          2.0660  -15.3267  -43.9092 C.3       8 UNK        -0.1800 
     34 N           3.2181  -17.4778  -43.6499 N.am      8 UNK        -0.5000 
     35 C           3.8381  -18.6047  -44.0288 C.2       7 UNK         0.5000 
     36 O           3.7093  -19.1147  -45.1410 O.2       7 UNK        -0.5000 
     37 CA          4.7268  -19.2948  -42.9772 C.3       7 UNK         0.1400 
     38 CB          6.1325  -18.6761  -42.9673 C.3       7 UNK        -0.1800 
     39 N           4.1622  -19.2346  -41.6279 N.am      7 UNK        -0.5000 
     40 C           3.0374  -19.8574  -41.2489 C.2       6 UNK         0.5000 
     41 O           2.3663  -20.5694  -41.9938 O.2       6 UNK        -0.5000 
     42 CA          2.5496  -19.5951  -39.8118 C.3       6 UNK         0.1400 
     43 CB          3.2207  -20.5656  -38.8288 C.3       6 UNK        -0.1800 
     44 N           2.7648  -18.2166  -39.3601 N.am      6 UNK        -0.5000 
     45 C           2.2632  -17.1305  -39.9611 C.2       5 UNK         0.5000 
     46 O           1.5921  -17.1679  -40.9978 O.2       5 UNK        -0.5000 
     47 CA          2.6018  -15.7770  -39.3245 C.3       5 UNK         0.1400 
     48 CB          4.0450  -15.3593  -39.6533 C.3       5 UNK        -0.1800 
     49 N           1.6812  -14.7891  -39.8670 N.am      5 UNK        -0.5000 
     50 C           1.1325  -13.7642  -39.2106 C.2       4 UNK         0.5000 
     51 O           1.4117  -13.4681  -38.0480 O.2       4 UNK        -0.5000 
     52 CA          0.0960  -12.9230  -39.9831 C.3       4 UNK         0.1400 
     53 CB          0.6883  -11.5576  -40.3664 C.3       4 UNK        -0.1800 
     54 N          -0.4025  -13.5694  -41.2014 N.am      4 UNK        -0.5000 
     55 C          -1.2689  -14.5925  -41.2415 C.2       3 UNK         0.5000 
     56 O          -1.7148  -15.1448  -40.2349 O.2       3 UNK        -0.5000 
     57 CA         -1.6994  -15.0642  -42.6496 C.3       3 UNK         0.1400 
     58 CB         -3.0262  -15.8506  -42.6479 C.3       3 UNK        -0.1800 
     59 N          -1.7398  -13.9789  -43.6387 N.am      3 UNK        -0.5000 
     60 C          -2.4815  -12.8630  -43.5913 C.2       2 UNK         0.5000 
     61 O          -3.2882  -12.6089  -42.6966 O.2       2 UNK        -0.5000 
     62 CA         -2.2831  -11.8446  -44.7284 C.3       2 UNK         0.1400 
     63 CB         -0.9973  -11.0217  -44.5160 C.3       2 UNK        -0.1800 
     64 N          -2.3428  -12.4134  -46.0808 N.am      2 UNK        -0.5000 
     65 C          -1.4946  -13.2475  -46.7029 C.2       1 UNK         0.5000 
     66 O          -0.4960  -13.7300  -46.1678 O.2       1 UNK        -0.5000 
     67 C          -0.0493  -19.8661  -48.8872 C.2       11 UNK         0.5000 
     68 O          -0.1538  -20.0459  -50.0994 O.2       11 UNK        -0.5000 
     69 N          -1.0966  -19.6856  -48.0676 N.am      12 UNK        -0.5000 
     70 CA         -2.4920  -19.8317  -48.4738 C.3       12 UNK         0.1400 
     71 CB         -3.3798  -18.8998  -47.6356 C.3       12 UNK        -0.1800 
     72 C          -2.9540  -21.2917  -48.3458 C.2       12 UNK         0.5000 
     73 O          -3.4971  -21.8419  -49.3052 O.2       12 UNK        -0.5000 
     74 N          -2.6941  -21.8861  -47.1722 N.am      13 UNK        -0.5000 
     75 CA         -3.0694  -23.2299  -46.7239 C.3       13 UNK         0.1400 
     76 CB         -2.4513  -24.3132  -47.6312 C.3       13 UNK        -0.1800 
     77 C          -4.5910  -23.4203  -46.5494 C.2       13 UNK         0.5000 
     78 O          -5.3833  -22.5102  -46.8116 O.2       13 UNK        -0.5000 
     79 N          -4.9729  -24.6144  -46.0754 N.am      14 UNK        -0.5000 
     80 CA         -6.3595  -25.0386  -45.8791 C.3       14 UNK         0.1400 
     81 CB         -6.3758  -26.4393  -45.2489 C.3       14 UNK        -0.1800 
     82 C          -7.1435  -25.0300  -47.2026 C.2       14 UNK         0.5000 
     83 O          -6.6288  -25.5072  -48.2163 O.2       14 UNK        -0.5000 
     84 N          -8.3503  -24.4477  -47.1725 N.am      15 UNK        -0.5000 
     85 CA         -9.2608  -24.2473  -48.3095 C.3       15 UNK         0.1400 
     86 CB         -9.8138  -25.6026  -48.7988 C.3       15 UNK        -0.1800 
     87 C          -8.6585  -23.4082  -49.4621 C.2       15 UNK         0.5000 
     88 O          -9.1366  -23.5017  -50.5937 O.2       15 UNK        -0.5000 
     89 N          -7.6179  -22.6149  -49.1560 N.am      16 UNK        -0.5000 
     90 CA         -6.8049  -21.8160  -50.0788 C.3       16 UNK         0.1400 
     91 CB         -7.6455  -20.6876  -50.7140 C.3       16 UNK        -0.1800 
     92 C          -6.0537  -22.6697  -51.1269 C.2       16 UNK         0.5000 
     93 O          -5.7879  -22.1874  -52.2285 O.2       16 UNK        -0.5000 
     94 N          -5.7262  -23.9246  -50.7804 N.am      17 UNK        -0.5000 
     95 CA         -5.1236  -24.9072  -51.6835 C.3       17 UNK         0.1400 
     96 CB         -5.0494  -26.2695  -50.9791 C.3       17 UNK        -0.1800 
     97 C          -3.7403  -24.5082  -52.2283 C.2       17 UNK         0.5000 
     98 O          -3.4717  -24.7306  -53.4098 O.2       17 UNK        -0.5000 
     99 N          -2.8933  -23.9120  -51.3781 N.am      18 UNK        -0.5000 
    100 CA        -1.5686  -23.4362  -51.7768 C.3       18 UNK         0.1400 
    101 CB        -0.6262  -23.3715  -50.5678 C.3       18 UNK        -0.1800 
    102 C         -1.6492  -22.0906  -52.5133 C.2       18 UNK         0.5000 
    103 O         -0.8707  -21.8816  -53.4426 O.2       18 UNK        -0.5000 
    104 N         -2.6225  -21.2423  -52.1447 N.am      19 UNK        -0.5000 
    105 CA        -2.9435  -19.9952  -52.8447 C.3       19 UNK         0.1400 
    106 CB        -3.9578  -19.1620  -52.0431 C.3       19 UNK        -0.1800 
    107 C         -3.4355  -20.2293  -54.2853 C.2       19 UNK         0.5000 
    108 O         -3.0662  -19.4755  -55.1853 O.2       19 UNK        -0.5000 
    109 N         -4.2428  -21.2795  -54.4814 N.am      20 UNK        -0.5000 
    110 CA        -4.7283  -21.7173  -55.7888 C.3       20 UNK         0.1400 
    111 CB        -5.8429  -22.7561  -55.5912 C.3       20 UNK        -0.1800 
    112 C         -3.6099  -22.2825  -56.6858 C.2       20 UNK         0.5000 
    113 O         -3.6357  -22.0572  -57.8964 O.2       20 UNK        -0.5000 
    114 N         -2.6593  -23.0088  -56.0824 N.am      21 UNK        -0.5000 
    115 CA        -1.5287  -23.6275  -56.7711 C.3       21 UNK         0.1400 
    116 CB        -0.9905  -24.7902  -55.9199 C.3       21 UNK        -0.1800 
    117 C         -0.4196  -22.6112  -57.0996 C.2       21 UNK         0.5000 
    118 O         -0.1020  -22.4098  -58.2721 O.2       21 UNK        -0.5000 
    119 N          0.1534  -22.0044  -56.0526 N.am      22 UNK        -0.5000 
    120 CA         1.2755  -21.0506  -56.0844 C.3       22 UNK         0.1400 
    121 C          2.6150  -21.5898  -56.6781 C.2       22 UNK         0.5000 
    122 N          2.8274  -22.8991  -56.7350 N.am      22 UNK        -0.7600 
    123 O          3.4897  -20.8200  -57.0663 O.2       22 UNK        -0.5000 
    124 C124        0.8524  -19.6557  -56.6363 C.3       23 UNK        -0.0398 
    125 S125        1.3988  -18.2920  -55.5492 S.3       23 UNK        -0.2404 
    126 C126        0.1146  -18.4432  -54.2701 C.3       23 UNK        -0.0205 
    127 H127       -3.8206  -10.5879  -50.8013 H         1 UNK         0.0600 
    128 H128       -4.2234   -9.9585  -49.2000 H         1 UNK         0.0600 
    129 H129       -4.8686  -11.5164  -49.7257 H         1 UNK         0.0600 
    130 H130       -3.8054  -13.2464  -48.8011 H         1 UNK         0.3000 
    131 H131       -0.9104  -13.4020  -48.7287 H         1 UNK         0.0600 
    132 H132       -2.8010  -15.4580  -47.5267 H         1 UNK         0.0800 
    133 H133       -1.1896  -15.7085  -48.1343 H         1 UNK         0.0800 
    134 H134       -1.3529  -13.9715  -50.8444 H         1 UNK         0.0800 
    135 H135       -2.3581  -14.7175  -52.0395 H         1 UNK         0.0800 
    136 H136       -1.6545  -16.6490  -53.2575 H         1 UNK         0.1150 
    137 H137        2.2820  -18.2143  -52.6140 H         1 UNK         0.1150 
    138 H138        0.6720  -15.2766  -49.9328 H         1 UNK         0.1150 
    139 H139        3.7359  -16.5055  -51.0518 H         1 UNK         0.0800 
    140 H140        2.9044  -16.0307  -49.5929 H         1 UNK         0.0800 
    141 H141        1.3366  -17.6868  -48.3785 H         1 UNK         0.0800 
    142 H142        2.6194  -18.3132  -47.3984 H         1 UNK         0.0800 
    143 H143        1.9425  -20.6113  -48.8067 H         1 UNK         0.0600 
    144 H144        1.4406  -19.7324  -46.1254 H         1 UNK         0.3000 
    145 H145        0.1049  -22.7373  -44.9305 H         1 UNK         0.0600 
    146 H146        2.0872  -22.9406  -43.4592 H         1 UNK         0.0600 
    147 H147        2.4875  -23.4978  -45.0761 H         1 UNK         0.0600 
    148 H148        3.0309  -21.9125  -44.5372 H         1 UNK         0.0600 
    149 H149        1.2396  -20.5470  -43.5231 H         1 UNK         0.3000 
    150 H150       -1.5684  -18.3115  -43.8303 H         1 UNK         0.0600 
    151 H151       -1.9892  -19.7823  -41.8847 H         1 UNK         0.0600 
    152 H152       -1.1442  -18.3313  -41.3626 H         1 UNK         0.0600 
    153 H153       -0.2705  -19.8518  -41.5198 H         1 UNK         0.0600 
    154 H154        0.9704  -17.9263  -42.6271 H         1 UNK         0.3000 
    155 H155        2.6947  -16.6357  -45.4840 H         1 UNK         0.0600 
    156 H156        1.6347  -15.3492  -42.9097 H         1 UNK         0.0600 
    157 H157        1.3960  -14.7440  -44.5416 H         1 UNK         0.0600 
    158 H158        3.0100  -14.7845  -43.8535 H         1 UNK         0.0600 
    159 H159        3.3329  -17.1591  -42.6993 H         1 UNK         0.3000 
    160 H160        4.8184  -20.3460  -43.2592 H         1 UNK         0.0600 
    161 H161        6.1109  -17.6283  -42.6647 H         1 UNK         0.0600 
    162 H162        6.5859  -18.7224  -43.9585 H         1 UNK         0.0600 
    163 H163        6.7933  -19.2097  -42.2840 H         1 UNK         0.0600 
    164 H164        4.6497  -18.6663  -40.9512 H         1 UNK         0.3000 
    165 H165        1.4743  -19.7824  -39.7919 H         1 UNK         0.0600 
    166 H166        2.8115  -20.4557  -37.8243 H         1 UNK         0.0600 
    167 H167        3.0600  -21.6012  -39.1317 H         1 UNK         0.0600 
    168 H168        4.2978  -20.4031  -38.7730 H         1 UNK         0.0600 
    169 H169        3.3148  -18.1013  -38.5210 H         1 UNK         0.3000 
    170 H170        2.4728  -15.8608  -38.2434 H         1 UNK         0.0600 
    171 H171        4.7645  -16.0755  -39.2550 H         1 UNK         0.0600 
    172 H172        4.2087  -15.2898  -40.7296 H         1 UNK         0.0600 
    173 H173        4.2809  -14.3883  -39.2175 H         1 UNK         0.0600 
    174 H174        1.3305  -15.0155  -40.7872 H         1 UNK         0.3000 
    175 H175       -0.7501  -12.7535  -39.3139 H         1 UNK         0.0600 
    176 H176        1.5358  -11.6630  -41.0449 H         1 UNK         0.0600 
    177 H177       -0.0561  -10.9270  -40.8532 H         1 UNK         0.0600 
    178 H178        1.0391  -11.0209  -39.4839 H         1 UNK         0.0600 
    179 H179       -0.0955  -13.1720  -42.0767 H         1 UNK         0.3000 
    180 H180       -0.9187  -15.7455  -42.9828 H         1 UNK         0.0600 
    181 H181       -3.2784  -16.1974  -43.6500 H         1 UNK         0.0600 
    182 H182       -3.8558  -15.2443  -42.2835 H         1 UNK         0.0600 
    183 H183       -2.9614  -16.7312  -42.0084 H         1 UNK         0.0600 
    184 H184       -1.1228  -14.0753  -44.4424 H         1 UNK         0.3000 
    185 H185       -3.1220  -11.1491  -44.6703 H         1 UNK         0.0600 
    186 H186       -1.0113  -10.5229  -43.5460 H         1 UNK         0.0600 
    187 H187       -0.1010  -11.6414  -44.5485 H         1 UNK         0.0600 
    188 H188       -0.8963  -10.2480  -45.2772 H         1 UNK         0.0600 
    189 H189       -3.1407  -12.1151  -46.6240 H         1 UNK         0.3000 
    190 H190       -0.9221  -19.5631  -47.0789 H         1 UNK         0.3000 
    191 H191       -2.5891  -19.5400  -49.5177 H         1 UNK         0.0600 
    192 H192       -4.4222  -18.9727  -47.9483 H         1 UNK         0.0600 
    193 H193       -3.0764  -17.8613  -47.7536 H         1 UNK         0.0600 
    194 H194       -3.3378  -19.1389  -46.5727 H         1 UNK         0.0600 
    195 H195       -2.2698  -21.3135  -46.4449 H         1 UNK         0.3000 
    196 H196       -2.6286  -23.3352  -45.7316 H         1 UNK         0.0600 
    197 H197       -2.9343  -24.3504  -48.6065 H         1 UNK         0.0600 
    198 H198       -1.3873  -24.1353  -47.7837 H         1 UNK         0.0600 
    199 H199       -2.5447  -25.3047  -47.1882 H         1 UNK         0.0600 
    200 H200       -4.2683  -25.3149  -45.8995 H         1 UNK         0.3000 
    201 H201       -6.8260  -24.3395  -45.1820 H         1 UNK         0.0600 
    202 H202       -5.8964  -27.1764  -45.8947 H         1 UNK         0.0600 
    203 H203       -7.3983  -26.7750  -45.0710 H         1 UNK         0.0600 
    204 H204       -5.8602  -26.4472  -44.2884 H         1 UNK         0.0600 
    205 H205       -8.6736  -24.0666  -46.2937 H         1 UNK         0.3000 
    206 H206      -10.1018  -23.6676  -47.9267 H         1 UNK         0.0600 
    207 H207      -10.2382  -26.1763  -47.9750 H         1 UNK         0.0600 
    208 H208      -10.6064  -25.4615  -49.5345 H         1 UNK         0.0600 
    209 H209       -9.0389  -26.2105  -49.2669 H         1 UNK         0.0600 
    210 H210       -7.2808  -22.6294  -48.2013 H         1 UNK         0.3000 
    211 H211       -6.0395  -21.3410  -49.4656 H         1 UNK         0.0600 
    212 H212       -7.0189  -19.9952  -51.2756 H         1 UNK         0.0600 
    213 H213       -8.1640  -20.1058  -49.9521 H         1 UNK         0.0600 
    214 H214       -8.3926  -21.0775  -51.4055 H         1 UNK         0.0600 
    215 H215       -5.9904  -24.2614  -49.8615 H         1 UNK         0.3000 
    216 H216       -5.7907  -25.0090  -52.5420 H         1 UNK         0.0600 
    217 H217       -4.4512  -26.2189  -50.0683 H         1 UNK         0.0600 
    218 H218       -4.6012  -27.0237  -51.6273 H         1 UNK         0.0600 
    219 H219       -6.0432  -26.6258  -50.7070 H         1 UNK         0.0600 
    220 H220       -3.2153  -23.6555  -50.4527 H         1 UNK         0.3000 
    221 H221       -1.1364  -24.1587  -52.4725 H         1 UNK         0.0600 
    222 H222       -0.5049  -24.3528  -50.1098 H         1 UNK         0.0600 
    223 H223       -0.9855  -22.6863  -49.8039 H         1 UNK         0.0600 
    224 H224        0.3648  -23.0274  -50.8660 H         1 UNK         0.0600 
    225 H225       -3.2039  -21.4949  -51.3544 H         1 UNK         0.3000 
    226 H226       -2.0275  -19.4110  -52.9057 H         1 UNK         0.0600 
    227 H227       -4.7108  -19.7855  -51.5647 H         1 UNK         0.0600 
    228 H228       -3.4606  -18.5773  -51.2715 H         1 UNK         0.0600 
    229 H229       -4.4793  -18.4445  -52.6783 H         1 UNK         0.0600 
    230 H230       -4.5823  -21.7904  -53.6706 H         1 UNK         0.3000 
    231 H231       -5.1574  -20.8515  -56.2974 H         1 UNK         0.0600 
    232 H232       -5.4822  -23.6370  -55.0591 H         1 UNK         0.0600 
    233 H233       -6.2416  -23.0899  -56.5499 H         1 UNK         0.0600 
    234 H234       -6.6729  -22.3390  -55.0203 H         1 UNK         0.0600 
    235 H235       -2.7278  -23.1611  -55.0852 H         1 UNK         0.3000 
    236 H236       -1.8836  -24.0483  -57.7145 H         1 UNK         0.0600 
    237 H237       -1.7560  -25.5521  -55.7708 H         1 UNK         0.0600 
    238 H238       -0.1429  -25.2730  -56.4077 H         1 UNK         0.0600 
    239 H239       -0.6604  -24.4581  -54.9353 H         1 UNK         0.0600 
    240 H240       -0.2209  -22.1799  -55.1221 H         1 UNK         0.3000 
    241 H241        1.5166  -20.9357  -55.0277 H         1 UNK         0.0600 
    242 H242        3.6969  -23.2444  -57.1105 H         1 UNK         0.3800 
    243 H243        2.1293  -23.5473  -56.4086 H         1 UNK         0.3800 
    244 H244       -0.2328  -19.5887  -56.7320 H         1 UNK         0.0800 
    245 H245        1.2353  -19.4881  -57.6442 H         1 UNK         0.0800 
    246 H246       -0.8490  -18.2562  -54.7429 H         1 UNK         0.0800 
    247 H247        0.0917  -19.4674  -53.9000 H         1 UNK         0.0800 
@<TRIPOS>BOND
     1    1    2 1    
     2    1  127 1    
     3    1  128 1    
     4    1  129 1    
     5    2    3 2    
     6    2    4 am   BACKBONE|DICT|INTERRES
     7    4    5 1    
     8    4  130 1    
     9    5    6 1    
    10    5   65 1    
    11    5  131 1    
    12    6    7 1    
    13    6  132 1    
    14    6  133 1    
    15    7    8 1    
    16    8    9 1    
    17    8  134 1    
    18    8  135 1    
    19    9   10 ar   
    20    9   14 ar   
    21   10   11 ar   
    22   10  136 1    
    23   11   12 ar   
    24   11  126 1    
    25   12   13 ar   
    26   12  137 1    
    27   13   14 ar   
    28   13   15 1    
    29   14  138 1    
    30   15   16 1    
    31   15  139 1    
    32   15  140 1    
    33   16   17 1    
    34   17   18 1    
    35   17  141 1    
    36   17  142 1    
    37   18   19 1    
    38   18   67 1    
    39   18  143 1    
    40   19   20 am   BACKBONE|DICT|INTERRES
    41   19  144 1    
    42   20   21 2    
    43   20   22 1    
    44   22   23 1    
    45   22   24 1    
    46   22  145 1    
    47   23  146 1    
    48   23  147 1    
    49   23  148 1    
    50   24   25 am   BACKBONE|DICT|INTERRES
    51   24  149 1    
    52   25   26 2    
    53   25   27 1    
    54   27   28 1    
    55   27   29 1    
    56   27  150 1    
    57   28  151 1    
    58   28  152 1    
    59   28  153 1    
    60   29   30 am   BACKBONE|DICT|INTERRES
    61   29  154 1    
    62   30   31 2    
    63   30   32 1    
    64   32   33 1    
    65   32   34 1    
    66   32  155 1    
    67   33  156 1    
    68   33  157 1    
    69   33  158 1    
    70   34   35 am   BACKBONE|DICT|INTERRES
    71   34  159 1    
    72   35   36 2    
    73   35   37 1    
    74   37   38 1    
    75   37   39 1    
    76   37  160 1    
    77   38  161 1    
    78   38  162 1    
    79   38  163 1    
    80   39   40 am   BACKBONE|DICT|INTERRES
    81   39  164 1    
    82   40   41 2    
    83   40   42 1    
    84   42   43 1    
    85   42   44 1    
    86   42  165 1    
    87   43  166 1    
    88   43  167 1    
    89   43  168 1    
    90   44   45 am   BACKBONE|DICT|INTERRES
    91   44  169 1    
    92   45   46 2    
    93   45   47 1    
    94   47   48 1    
    95   47   49 1    
    96   47  170 1    
    97   48  171 1    
    98   48  172 1    
    99   48  173 1    
   100   49   50 am   BACKBONE|DICT|INTERRES
   101   49  174 1    
   102   50   51 2    
   103   50   52 1    
   104   52   53 1    
   105   52   54 1    
   106   52  175 1    
   107   53  176 1    
   108   53  177 1    
   109   53  178 1    
   110   54   55 am   BACKBONE|DICT|INTERRES
   111   54  179 1    
   112   55   56 2    
   113   55   57 1    
   114   57   58 1    
   115   57   59 1    
   116   57  180 1    
   117   58  181 1    
   118   58  182 1    
   119   58  183 1    
   120   59   60 am   BACKBONE|DICT|INTERRES
   121   59  184 1    
   122   60   61 2    
   123   60   62 1    
   124   62   63 1    
   125   62   64 1    
   126   62  185 1    
   127   63  186 1    
   128   63  187 1    
   129   63  188 1    
   130   64   65 am   BACKBONE|DICT|INTERRES
   131   64  189 1    
   132   65   66 2    
   133   67   68 2    
   134   67   69 am   BACKBONE|DICT|INTERRES
   135   69   70 1    
   136   69  190 1    
   137   70   71 1    
   138   70   72 1    
   139   70  191 1    
   140   71  192 1    
   141   71  193 1    
   142   71  194 1    
   143   72   73 2    
   144   72   74 am   BACKBONE|DICT|INTERRES
   145   74   75 1    
   146   74  195 1    
   147   75   76 1    
   148   75   77 1    
   149   75  196 1    
   150   76  197 1    
   151   76  198 1    
   152   76  199 1    
   153   77   78 2    
   154   77   79 am   BACKBONE|DICT|INTERRES
   155   79   80 1    
   156   79  200 1    
   157   80   81 1    
   158   80   82 1    
   159   80  201 1    
   160   81  202 1    
   161   81  203 1    
   162   81  204 1    
   163   82   83 2    
   164   82   84 am   BACKBONE|DICT|INTERRES
   165   84   85 1    
   166   84  205 1    
   167   85   86 1    
   168   85   87 1    
   169   85  206 1    
   170   86  207 1    
   171   86  208 1    
   172   86  209 1    
   173   87   88 2    
   174   87   89 am   BACKBONE|DICT|INTERRES
   175   89   90 1    
   176   89  210 1    
   177   90   91 1    
   178   90   92 1    
   179   90  211 1    
   180   91  212 1    
   181   91  213 1    
   182   91  214 1    
   183   92   93 2    
   184   92   94 am   BACKBONE|DICT|INTERRES
   185   94   95 1    
   186   94  215 1    
   187   95   96 1    
   188   95   97 1    
   189   95  216 1    
   190   96  217 1    
   191   96  218 1    
   192   96  219 1    
   193   97   98 2    
   194   97   99 am   BACKBONE|DICT|INTERRES
   195   99  100 1    
   196   99  220 1    
   197  100  101 1    
   198  100  102 1    
   199  100  221 1    
   200  101  222 1    
   201  101  223 1    
   202  101  224 1    
   203  102  103 2    
   204  102  104 am   BACKBONE|DICT|INTERRES
   205  104  105 1    
   206  104  225 1    
   207  105  106 1    
   208  105  107 1    
   209  105  226 1    
   210  106  227 1    
   211  106  228 1    
   212  106  229 1    
   213  107  108 2    
   214  107  109 am   BACKBONE|DICT|INTERRES
   215  109  110 1    
   216  109  230 1    
   217  110  111 1    
   218  110  112 1    
   219  110  231 1    
   220  111  232 1    
   221  111  233 1    
   222  111  234 1    
   223  112  113 2    
   224  112  114 am   BACKBONE|DICT|INTERRES
   225  114  115 1    
   226  114  235 1    
   227  115  116 1    
   228  115  117 1    
   229  115  236 1    
   230  116  237 1    
   231  116  238 1    
   232  116  239 1    
   233  117  118 2    
   234  117  119 am   BACKBONE|DICT|INTERRES
   235  119  120 1    
   236  119  240 1    
   237  120  121 1    
   238  120  124 1    
   239  120  241 1    
   240  121  122 am   BACKBONE|DICT|INTERRES
   241  121  123 2    
   242  122  242 1    
   243  122  243 1    
   244  124  125 1    
   245  124  244 1    
   246  124  245 1    
   247  125  126 1    
   248  126  246 1    
   249  126  247 1    
@<TRIPOS>SUBSTRUCTURE
     1 UNK         1 GROUP             0       ****    0 ROOT    
