@<TRIPOS>MOLECULE
3R540
247   249    1
SMALL
USER_CHARGES


@<TRIPOS>ATOM
      1 CA          5.1050  -13.5796  -47.9831 C.3       0 UNK        -0.1800 
      2 C           3.7535  -12.9290  -47.7313 C.2       0 UNK         0.5000 
      3 O           3.4276  -11.9225  -48.3619 O.2       0 UNK        -0.5000 
      4 N           2.9569  -13.5040  -46.8243 N.am      1 UNK        -0.5000 
      5 CA          1.5832  -13.0954  -46.5373 C.3       1 UNK         0.1400 
      6 C6          1.1083  -13.6658  -45.1825 C.3       23 UNK        -0.0398 
      7 S7         -0.4832  -12.9651  -44.6233 S.3       23 UNK        -0.2404 
      8 C8         -1.2683  -14.4179  -43.8580 C.3       23 UNK        -0.0205 
      9 C9         -2.1521  -15.1936  -44.8256 C.ar      23 UNK        -0.0193 
     10 C10        -3.5394  -15.2005  -44.6563 C.ar      23 UNK        -0.1150 
     11 C11        -4.3629  -15.9680  -45.4862 C.ar      23 UNK        -0.0193 
     12 C12        -3.7783  -16.7289  -46.5076 C.ar      23 UNK        -0.1150 
     13 C13        -2.3976  -16.6946  -46.7167 C.ar      23 UNK        -0.0193 
     14 C14        -1.5916  -15.9385  -45.8647 C.ar      23 UNK        -0.1150 
     15 C15        -1.7676  -17.4334  -47.8856 C.3       23 UNK        -0.0205 
     16 S16        -0.5766  -18.6975  -47.3471 S.3       23 UNK        -0.2404 
     17 C17        -1.7059  -20.0559  -46.9280 C.3       23 UNK        -0.0398 
     18 CA         -0.9527  -21.3907  -46.7293 C.3       11 UNK         0.1400 
     19 N          -0.1294  -21.4240  -45.5162 N.am      11 UNK        -0.5000 
     20 C           0.7233  -22.4145  -45.2096 C.2       10 UNK         0.5000 
     21 O           0.9934  -23.3422  -45.9712 O.2       10 UNK        -0.5000 
     22 CA          1.3194  -22.4144  -43.7904 C.3       10 UNK         0.1400 
     23 CB          2.5943  -21.5637  -43.7018 C.3       10 UNK        -0.1800 
     24 N           0.3497  -21.9589  -42.7962 N.am      10 UNK        -0.5000 
     25 C          -0.7149  -22.6729  -42.4044 C.2       9 UNK         0.5000 
     26 O          -0.9609  -23.8099  -42.8070 O.2       9 UNK        -0.5000 
     27 CA         -1.6880  -21.9820  -41.4317 C.3       9 UNK         0.1400 
     28 CB         -1.2198  -22.1623  -39.9802 C.3       9 UNK        -0.1800 
     29 N          -1.8463  -20.5546  -41.7155 N.am      9 UNK        -0.5000 
     30 C          -2.4223  -20.0601  -42.8207 C.2       8 UNK         0.5000 
     31 O          -2.9218  -20.7598  -43.7002 O.2       8 UNK        -0.5000 
     32 CA         -2.3920  -18.5298  -42.9900 C.3       8 UNK         0.1400 
     33 CB         -3.5998  -17.8977  -42.2820 C.3       8 UNK        -0.1800 
     34 N          -1.1594  -17.9194  -42.4825 N.am      8 UNK        -0.5000 
     35 C           0.0704  -18.1763  -42.9477 C.2       7 UNK         0.5000 
     36 O           0.3118  -18.9746  -43.8563 O.2       7 UNK        -0.5000 
     37 CA          1.2236  -17.4727  -42.2237 C.3       7 UNK         0.1400 
     38 CB          1.5345  -18.1816  -40.8923 C.3       7 UNK        -0.1800 
     39 N           2.4141  -17.4781  -43.0674 N.am      7 UNK        -0.5000 
     40 C           3.4185  -16.5977  -42.9815 C.2       6 UNK         0.5000 
     41 O           3.4201  -15.6472  -42.1981 O.2       6 UNK        -0.5000 
     42 CA          4.6426  -16.8097  -43.8968 C.3       6 UNK         0.1400 
     43 CB          5.8154  -17.3881  -43.0895 C.3       6 UNK        -0.1800 
     44 N           4.3991  -17.6782  -45.0511 N.am      6 UNK        -0.5000 
     45 C           3.6676  -17.3330  -46.1165 C.2       5 UNK         0.5000 
     46 O           3.0827  -16.2534  -46.2076 O.2       5 UNK        -0.5000 
     47 CA          3.5906  -18.3756  -47.2489 C.3       5 UNK         0.1400 
     48 CB          2.9061  -19.6660  -46.7702 C.3       5 UNK        -0.1800 
     49 N           2.8815  -17.8757  -48.4263 N.am      5 UNK        -0.5000 
     50 C           3.4114  -17.0658  -49.3522 C.2       4 UNK         0.5000 
     51 O           4.5638  -16.6325  -49.2952 O.2       4 UNK        -0.5000 
     52 CA          2.5455  -16.7155  -50.5762 C.3       4 UNK         0.1400 
     53 CB          1.1568  -17.3797  -50.5859 C.3       4 UNK        -0.1800 
     54 N           2.3781  -15.2684  -50.6561 N.am      4 UNK        -0.5000 
     55 C           2.7789  -14.4969  -51.6762 C.2       3 UNK         0.5000 
     56 O           3.3614  -14.9361  -52.6698 O.2       3 UNK        -0.5000 
     57 CA          2.4971  -12.9795  -51.5744 C.3       3 UNK         0.1400 
     58 CB          2.2944  -12.3120  -52.9511 C.3       3 UNK        -0.1800 
     59 N           1.4028  -12.6406  -50.6584 N.am      3 UNK        -0.5000 
     60 C           0.1051  -12.9759  -50.7617 C.2       2 UNK         0.5000 
     61 O          -0.3791  -13.5444  -51.7410 O.2       2 UNK        -0.5000 
     62 CA         -0.7916  -12.6318  -49.5466 C.3       2 UNK         0.1400 
     63 CB         -1.9912  -13.5904  -49.4043 C.3       2 UNK        -0.1800 
     64 N          -0.0437  -12.5451  -48.2833 N.am      2 UNK        -0.5000 
     65 C           0.6965  -13.5154  -47.7260 C.2       1 UNK         0.5000 
     66 O           0.7749  -14.6632  -48.1698 O.2       1 UNK        -0.5000 
     67 C          -1.9416  -22.5697  -46.7665 C.2       11 UNK         0.5000 
     68 O          -2.0131  -23.2533  -47.7863 O.2       11 UNK        -0.5000 
     69 N          -2.6623  -22.8128  -45.6621 N.am      12 UNK        -0.5000 
     70 CA         -3.6141  -23.9176  -45.5137 C.3       12 UNK         0.1400 
     71 CB         -4.3170  -23.8233  -44.1520 C.3       12 UNK        -0.1800 
     72 C          -2.9642  -25.3004  -45.7061 C.2       12 UNK         0.5000 
     73 O          -3.5162  -26.1326  -46.4270 O.2       12 UNK        -0.5000 
     74 N          -1.7714  -25.4901  -45.1233 N.am      13 UNK        -0.5000 
     75 CA         -0.9316  -26.6795  -45.2953 C.3       13 UNK         0.1400 
     76 CB          0.2590  -26.5990  -44.3284 C.3       13 UNK        -0.1800 
     77 C          -0.4390  -26.8863  -46.7436 C.2       13 UNK         0.5000 
     78 O          -0.2115  -28.0262  -47.1487 O.2       13 UNK        -0.5000 
     79 N          -0.3222  -25.7920  -47.5058 N.am      14 UNK        -0.5000 
     80 CA          0.0283  -25.7611  -48.9256 C.3       14 UNK         0.1400 
     81 CB          0.9095  -24.5259  -49.1876 C.3       14 UNK        -0.1800 
     82 C          -1.2178  -25.7840  -49.8387 C.2       14 UNK         0.5000 
     83 O          -1.1454  -25.3010  -50.9695 O.2       14 UNK        -0.5000 
     84 N          -2.3410  -26.3263  -49.3415 N.am      15 UNK        -0.5000 
     85 CA         -3.6348  -26.4691  -50.0201 C.3       15 UNK         0.1400 
     86 CB         -3.5270  -27.4486  -51.2080 C.3       15 UNK        -0.1800 
     87 C          -4.2386  -25.1069  -50.4139 C.2       15 UNK         0.5000 
     88 O          -4.5957  -24.8913  -51.5737 O.2       15 UNK        -0.5000 
     89 N          -4.2929  -24.1974  -49.4307 N.am      16 UNK        -0.5000 
     90 CA         -4.7060  -22.7944  -49.5471 C.3       16 UNK         0.1400 
     91 CB         -6.2104  -22.6852  -49.8725 C.3       16 UNK        -0.1800 
     92 C          -3.8108  -22.0209  -50.5352 C.2       16 UNK         0.5000 
     93 O          -4.3178  -21.3151  -51.4063 O.2       16 UNK        -0.5000 
     94 N          -2.4909  -22.2138  -50.3963 N.am      17 UNK        -0.5000 
     95 CA         -1.4216  -21.6942  -51.2545 C.3       17 UNK         0.1400 
     96 CB         -1.2671  -20.1729  -51.0529 C.3       17 UNK        -0.1800 
     97 C          -1.6183  -22.0925  -52.7324 C.2       17 UNK         0.5000 
     98 O          -1.6225  -21.2308  -53.6113 O.2       17 UNK        -0.5000 
     99 N          -1.8346  -23.3953  -52.9659 N.am      18 UNK        -0.5000 
    100 CA        -2.1943  -24.0135  -54.2473 C.3       18 UNK         0.1400 
    101 CB        -0.9983  -23.9820  -55.2210 C.3       18 UNK        -0.1800 
    102 C         -3.4858  -23.4128  -54.8470 C.2       18 UNK         0.5000 
    103 O         -3.5313  -23.0828  -56.0335 O.2       18 UNK        -0.5000 
    104 N         -4.5030  -23.2651  -53.9872 N.am      19 UNK        -0.5000 
    105 CA        -5.8279  -22.6914  -54.2403 C.3       19 UNK         0.1400 
    106 CB        -6.6103  -23.5477  -55.2579 C.3       19 UNK        -0.1800 
    107 C         -5.8361  -21.1869  -54.5983 C.2       19 UNK         0.5000 
    108 O         -6.8491  -20.6971  -55.1017 O.2       19 UNK        -0.5000 
    109 N         -4.7445  -20.4614  -54.3130 N.am      20 UNK        -0.5000 
    110 CA        -4.6689  -19.0031  -54.4542 C.3       20 UNK         0.1400 
    111 CB        -3.1981  -18.5652  -54.5022 C.3       20 UNK        -0.1800 
    112 C         -5.4111  -18.2588  -53.3259 C.2       20 UNK         0.5000 
    113 O         -5.8664  -17.1340  -53.5416 O.2       20 UNK        -0.5000 
    114 N         -5.5269  -18.9053  -52.1570 N.am      21 UNK        -0.5000 
    115 CA        -6.1600  -18.4301  -50.9279 C.3       21 UNK         0.1400 
    116 CB        -7.6874  -18.2977  -51.1225 C.3       21 UNK        -0.1800 
    117 C         -5.4784  -17.1679  -50.3551 C.2       21 UNK         0.5000 
    118 O         -4.2643  -17.0087  -50.4938 O.2       21 UNK        -0.5000 
    119 N         -6.2631  -16.3200  -49.6833 N.am      22 UNK        -0.5000 
    120 CA        -5.8092  -15.1149  -48.9686 C.3       22 UNK         0.1400 
    121 C         -5.6965  -13.8450  -49.8643 C.2       22 UNK         0.5000 
    122 N         -5.8974  -13.9299  -51.1739 N.am      22 UNK        -0.7600 
    123 O         -5.4203  -12.7584  -49.3640 O.2       22 UNK        -0.5000 
    124 C124       -6.6724  -14.8436  -47.7047 C.3       23 UNK        -0.0398 
    125 S125       -6.9277  -16.3233  -46.6579 S.3       23 UNK        -0.2404 
    126 C126       -5.8669  -15.9787  -45.2132 C.3       23 UNK        -0.0205 
    127 H127        5.2004  -13.8480  -49.0353 H         1 UNK         0.0600 
    128 H128        5.2326  -14.4861  -47.3902 H         1 UNK         0.0600 
    129 H129        5.9089  -12.8887  -47.7301 H         1 UNK         0.0600 
    130 H130        3.2078  -14.4204  -46.4584 H         1 UNK         0.3000 
    131 H131        1.5750  -12.0059  -46.4581 H         1 UNK         0.0600 
    132 H132        1.0702  -14.7537  -45.2149 H         1 UNK         0.0800 
    133 H133        1.8447  -13.4289  -44.4132 H         1 UNK         0.0800 
    134 H134       -1.8570  -14.0746  -43.0060 H         1 UNK         0.0800 
    135 H135       -0.5075  -15.0795  -43.4451 H         1 UNK         0.0800 
    136 H136       -3.9803  -14.6265  -43.8533 H         1 UNK         0.1150 
    137 H137       -4.3946  -17.3331  -47.1572 H         1 UNK         0.1150 
    138 H138       -0.5247  -15.9435  -46.0235 H         1 UNK         0.1150 
    139 H139       -2.5243  -17.8802  -48.5318 H         1 UNK         0.0800 
    140 H140       -1.2443  -16.7015  -48.4969 H         1 UNK         0.0800 
    141 H141       -2.4280  -20.1432  -47.7425 H         1 UNK         0.0800 
    142 H142       -2.2750  -19.7826  -46.0400 H         1 UNK         0.0800 
    143 H143       -0.2792  -21.5228  -47.5793 H         1 UNK         0.0600 
    144 H144       -0.2374  -20.6518  -44.8670 H         1 UNK         0.3000 
    145 H145        1.5926  -23.4440  -43.5494 H         1 UNK         0.0600 
    146 H146        3.0300  -21.6113  -42.7038 H         1 UNK         0.0600 
    147 H147        2.4040  -20.5167  -43.9316 H         1 UNK         0.0600 
    148 H148        3.3488  -21.9258  -44.4009 H         1 UNK         0.0600 
    149 H149        0.4473  -21.0097  -42.4689 H         1 UNK         0.3000 
    150 H150       -2.6636  -22.4604  -41.5384 H         1 UNK         0.0600 
    151 H151       -1.1092  -23.2195  -39.7350 H         1 UNK         0.0600 
    152 H152       -1.9399  -21.7410  -39.2785 H         1 UNK         0.0600 
    153 H153       -0.2568  -21.6815  -39.8032 H         1 UNK         0.0600 
    154 H154       -1.4676  -19.9086  -41.0393 H         1 UNK         0.3000 
    155 H155       -2.4596  -18.3068  -44.0566 H         1 UNK         0.0600 
    156 H156       -4.5345  -18.2639  -42.7085 H         1 UNK         0.0600 
    157 H157       -3.5999  -16.8135  -42.3837 H         1 UNK         0.0600 
    158 H158       -3.6107  -18.1300  -41.2164 H         1 UNK         0.0600 
    159 H159       -1.2685  -17.2685  -41.7185 H         1 UNK         0.3000 
    160 H160        0.9225  -16.4419  -42.0269 H         1 UNK         0.0600 
    161 H161        1.8494  -19.2138  -41.0517 H         1 UNK         0.0600 
    162 H162        0.6619  -18.1999  -40.2385 H         1 UNK         0.0600 
    163 H163        2.3303  -17.6717  -40.3492 H         1 UNK         0.0600 
    164 H164        2.4290  -18.1949  -43.7803 H         1 UNK         0.3000 
    165 H165        4.9402  -15.8268  -44.2686 H         1 UNK         0.0600 
    166 H166        6.7157  -17.4647  -43.6996 H         1 UNK         0.0600 
    167 H167        6.0569  -16.7514  -42.2373 H         1 UNK         0.0600 
    168 H168        5.5851  -18.3812  -42.7018 H         1 UNK         0.0600 
    169 H169        4.8530  -18.5798  -45.0361 H         1 UNK         0.3000 
    170 H170        4.6116  -18.6234  -47.5466 H         1 UNK         0.0600 
    171 H171        1.9789  -19.4589  -46.2360 H         1 UNK         0.0600 
    172 H172        2.6736  -20.3332  -47.6005 H         1 UNK         0.0600 
    173 H173        3.5582  -20.2171  -46.0943 H         1 UNK         0.0600 
    174 H174        1.9059  -18.1259  -48.4990 H         1 UNK         0.3000 
    175 H175        3.0916  -17.0893  -51.4442 H         1 UNK         0.0600 
    176 H176        0.5490  -17.0367  -49.7518 H         1 UNK         0.0600 
    177 H177        0.6173  -17.1441  -51.5035 H         1 UNK         0.0600 
    178 H178        1.2344  -18.4656  -50.5272 H         1 UNK         0.0600 
    179 H179        1.9108  -14.8443  -49.8610 H         1 UNK         0.3000 
    180 H180        3.3953  -12.5444  -51.1344 H         1 UNK         0.0600 
    181 H181        1.4634  -12.7559  -53.4997 H         1 UNK         0.0600 
    182 H182        3.1854  -12.4161  -53.5713 H         1 UNK         0.0600 
    183 H183        2.0974  -11.2451  -52.8473 H         1 UNK         0.0600 
    184 H184        1.7012  -12.1856  -49.8041 H         1 UNK         0.3000 
    185 H185       -1.1884  -11.6336  -49.7359 H         1 UNK         0.0600 
    186 H186       -1.6713  -14.6278  -49.3244 H         1 UNK         0.0600 
    187 H187       -2.5882  -13.3547  -48.5232 H         1 UNK         0.0600 
    188 H188       -2.6492  -13.5224  -50.2711 H         1 UNK         0.0600 
    189 H189       -0.0315  -11.6298  -47.8546 H         1 UNK         0.3000 
    190 H190       -2.5911  -22.1690  -44.8774 H         1 UNK         0.3000 
    191 H191       -4.3730  -23.7998  -46.2896 H         1 UNK         0.0600 
    192 H192       -4.8314  -22.8689  -44.0390 H         1 UNK         0.0600 
    193 H193       -3.6137  -23.9239  -43.3259 H         1 UNK         0.0600 
    194 H194       -5.0640  -24.6105  -44.0436 H         1 UNK         0.0600 
    195 H195       -1.4111  -24.7674  -44.5073 H         1 UNK         0.3000 
    196 H196       -1.5317  -27.5510  -45.0261 H         1 UNK         0.0600 
    197 H197       -0.0769  -26.5259  -43.2938 H         1 UNK         0.0600 
    198 H198        0.8877  -25.7333  -44.5381 H         1 UNK         0.0600 
    199 H199        0.8867  -27.4877  -44.4048 H         1 UNK         0.0600 
    200 H200       -0.5391  -24.8940  -47.0916 H         1 UNK         0.3000 
    201 H201        0.6169  -26.6463  -49.1737 H         1 UNK         0.0600 
    202 H202        1.7915  -24.5304  -48.5470 H         1 UNK         0.0600 
    203 H203        0.3695  -23.5981  -49.0001 H         1 UNK         0.0600 
    204 H204        1.2611  -24.5006  -50.2197 H         1 UNK         0.0600 
    205 H205       -2.3220  -26.6391  -48.3796 H         1 UNK         0.3000 
    206 H206       -4.3179  -26.9088  -49.2920 H         1 UNK         0.0600 
    207 H207       -3.1193  -28.4084  -50.8911 H         1 UNK         0.0600 
    208 H208       -2.8897  -27.0594  -52.0026 H         1 UNK         0.0600 
    209 H209       -4.5082  -27.6406  -51.6435 H         1 UNK         0.0600 
    210 H210       -3.8816  -24.4548  -48.5435 H         1 UNK         0.3000 
    211 H211       -4.5493  -22.3379  -48.5691 H         1 UNK         0.0600 
    212 H212       -6.4464  -23.0904  -50.8562 H         1 UNK         0.0600 
    213 H213       -6.5389  -21.6456  -49.8616 H         1 UNK         0.0600 
    214 H214       -6.8106  -23.2218  -49.1379 H         1 UNK         0.0600 
    215 H215       -2.1938  -22.8141  -49.6321 H         1 UNK         0.3000 
    216 H216       -0.4953  -22.1692  -50.9289 H         1 UNK         0.0600 
    217 H217       -0.4668  -19.7752  -51.6770 H         1 UNK         0.0600 
    218 H218       -1.0184  -19.9392  -50.0192 H         1 UNK         0.0600 
    219 H219       -2.1786  -19.6309  -51.3068 H         1 UNK         0.0600 
    220 H220       -1.7731  -24.0382  -52.1783 H         1 UNK         0.3000 
    221 H221       -2.4158  -25.0592  -54.0288 H         1 UNK         0.0600 
    222 H222       -0.7411  -22.9642  -55.5156 H         1 UNK         0.0600 
    223 H223       -0.1142  -24.4349  -54.7722 H         1 UNK         0.0600 
    224 H224       -1.2216  -24.5395  -56.1312 H         1 UNK         0.0600 
    225 H225       -4.3671  -23.6085  -53.0398 H         1 UNK         0.3000 
    226 H226       -6.3552  -22.7620  -53.2885 H         1 UNK         0.0600 
    227 H227       -6.6108  -24.5990  -54.9701 H         1 UNK         0.0600 
    228 H228       -7.6521  -23.2310  -55.3194 H         1 UNK         0.0600 
    229 H229       -6.1879  -23.4731  -56.2602 H         1 UNK         0.0600 
    230 H230       -3.9512  -20.9215  -53.8832 H         1 UNK         0.3000 
    231 H231       -5.1334  -18.7217  -55.4015 H         1 UNK         0.0600 
    232 H232       -3.1170  -17.4954  -54.6982 H         1 UNK         0.0600 
    233 H233       -2.6548  -19.0848  -55.2916 H         1 UNK         0.0600 
    234 H234       -2.6903  -18.7620  -53.5577 H         1 UNK         0.0600 
    235 H235       -5.0672  -19.8104  -52.0696 H         1 UNK         0.3000 
    236 H236       -5.9912  -19.2148  -50.1897 H         1 UNK         0.0600 
    237 H237       -7.9444  -17.4596  -51.7713 H         1 UNK         0.0600 
    238 H238       -8.1021  -19.2011  -51.5704 H         1 UNK         0.0600 
    239 H239       -8.2006  -18.1545  -50.1710 H         1 UNK         0.0600 
    240 H240       -7.2498  -16.5214  -49.6172 H         1 UNK         0.3000 
    241 H241       -4.7905  -15.2962  -48.6243 H         1 UNK         0.0600 
    242 H242       -5.8219  -13.1014  -51.7426 H         1 UNK         0.3800 
    243 H243       -6.0979  -14.8190  -51.6054 H         1 UNK         0.3800 
    244 H244       -7.6575  -14.4758  -47.9961 H         1 UNK         0.0800 
    245 H245       -6.2226  -14.0529  -47.1018 H         1 UNK         0.0800 
    246 H246       -6.0654  -16.7383  -44.4562 H         1 UNK         0.0800 
    247 H247       -6.1769  -15.0265  -44.7796 H         1 UNK         0.0800 
@<TRIPOS>BOND
     1    1    2 1    
     2    1  127 1    
     3    1  128 1    
     4    1  129 1    
     5    2    3 2    
     6    2    4 am   BACKBONE|DICT|INTERRES
     7    4    5 1    
     8    4  130 1    
     9    5    6 1    
    10    5   65 1    
    11    5  131 1    
    12    6    7 1    
    13    6  132 1    
    14    6  133 1    
    15    7    8 1    
    16    8    9 1    
    17    8  134 1    
    18    8  135 1    
    19    9   10 ar   
    20    9   14 ar   
    21   10   11 ar   
    22   10  136 1    
    23   11   12 ar   
    24   11  126 1    
    25   12   13 ar   
    26   12  137 1    
    27   13   14 ar   
    28   13   15 1    
    29   14  138 1    
    30   15   16 1    
    31   15  139 1    
    32   15  140 1    
    33   16   17 1    
    34   17   18 1    
    35   17  141 1    
    36   17  142 1    
    37   18   19 1    
    38   18   67 1    
    39   18  143 1    
    40   19   20 am   BACKBONE|DICT|INTERRES
    41   19  144 1    
    42   20   21 2    
    43   20   22 1    
    44   22   23 1    
    45   22   24 1    
    46   22  145 1    
    47   23  146 1    
    48   23  147 1    
    49   23  148 1    
    50   24   25 am   BACKBONE|DICT|INTERRES
    51   24  149 1    
    52   25   26 2    
    53   25   27 1    
    54   27   28 1    
    55   27   29 1    
    56   27  150 1    
    57   28  151 1    
    58   28  152 1    
    59   28  153 1    
    60   29   30 am   BACKBONE|DICT|INTERRES
    61   29  154 1    
    62   30   31 2    
    63   30   32 1    
    64   32   33 1    
    65   32   34 1    
    66   32  155 1    
    67   33  156 1    
    68   33  157 1    
    69   33  158 1    
    70   34   35 am   BACKBONE|DICT|INTERRES
    71   34  159 1    
    72   35   36 2    
    73   35   37 1    
    74   37   38 1    
    75   37   39 1    
    76   37  160 1    
    77   38  161 1    
    78   38  162 1    
    79   38  163 1    
    80   39   40 am   BACKBONE|DICT|INTERRES
    81   39  164 1    
    82   40   41 2    
    83   40   42 1    
    84   42   43 1    
    85   42   44 1    
    86   42  165 1    
    87   43  166 1    
    88   43  167 1    
    89   43  168 1    
    90   44   45 am   BACKBONE|DICT|INTERRES
    91   44  169 1    
    92   45   46 2    
    93   45   47 1    
    94   47   48 1    
    95   47   49 1    
    96   47  170 1    
    97   48  171 1    
    98   48  172 1    
    99   48  173 1    
   100   49   50 am   BACKBONE|DICT|INTERRES
   101   49  174 1    
   102   50   51 2    
   103   50   52 1    
   104   52   53 1    
   105   52   54 1    
   106   52  175 1    
   107   53  176 1    
   108   53  177 1    
   109   53  178 1    
   110   54   55 am   BACKBONE|DICT|INTERRES
   111   54  179 1    
   112   55   56 2    
   113   55   57 1    
   114   57   58 1    
   115   57   59 1    
   116   57  180 1    
   117   58  181 1    
   118   58  182 1    
   119   58  183 1    
   120   59   60 am   BACKBONE|DICT|INTERRES
   121   59  184 1    
   122   60   61 2    
   123   60   62 1    
   124   62   63 1    
   125   62   64 1    
   126   62  185 1    
   127   63  186 1    
   128   63  187 1    
   129   63  188 1    
   130   64   65 am   BACKBONE|DICT|INTERRES
   131   64  189 1    
   132   65   66 2    
   133   67   68 2    
   134   67   69 am   BACKBONE|DICT|INTERRES
   135   69   70 1    
   136   69  190 1    
   137   70   71 1    
   138   70   72 1    
   139   70  191 1    
   140   71  192 1    
   141   71  193 1    
   142   71  194 1    
   143   72   73 2    
   144   72   74 am   BACKBONE|DICT|INTERRES
   145   74   75 1    
   146   74  195 1    
   147   75   76 1    
   148   75   77 1    
   149   75  196 1    
   150   76  197 1    
   151   76  198 1    
   152   76  199 1    
   153   77   78 2    
   154   77   79 am   BACKBONE|DICT|INTERRES
   155   79   80 1    
   156   79  200 1    
   157   80   81 1    
   158   80   82 1    
   159   80  201 1    
   160   81  202 1    
   161   81  203 1    
   162   81  204 1    
   163   82   83 2    
   164   82   84 am   BACKBONE|DICT|INTERRES
   165   84   85 1    
   166   84  205 1    
   167   85   86 1    
   168   85   87 1    
   169   85  206 1    
   170   86  207 1    
   171   86  208 1    
   172   86  209 1    
   173   87   88 2    
   174   87   89 am   BACKBONE|DICT|INTERRES
   175   89   90 1    
   176   89  210 1    
   177   90   91 1    
   178   90   92 1    
   179   90  211 1    
   180   91  212 1    
   181   91  213 1    
   182   91  214 1    
   183   92   93 2    
   184   92   94 am   BACKBONE|DICT|INTERRES
   185   94   95 1    
   186   94  215 1    
   187   95   96 1    
   188   95   97 1    
   189   95  216 1    
   190   96  217 1    
   191   96  218 1    
   192   96  219 1    
   193   97   98 2    
   194   97   99 am   BACKBONE|DICT|INTERRES
   195   99  100 1    
   196   99  220 1    
   197  100  101 1    
   198  100  102 1    
   199  100  221 1    
   200  101  222 1    
   201  101  223 1    
   202  101  224 1    
   203  102  103 2    
   204  102  104 am   BACKBONE|DICT|INTERRES
   205  104  105 1    
   206  104  225 1    
   207  105  106 1    
   208  105  107 1    
   209  105  226 1    
   210  106  227 1    
   211  106  228 1    
   212  106  229 1    
   213  107  108 2    
   214  107  109 am   BACKBONE|DICT|INTERRES
   215  109  110 1    
   216  109  230 1    
   217  110  111 1    
   218  110  112 1    
   219  110  231 1    
   220  111  232 1    
   221  111  233 1    
   222  111  234 1    
   223  112  113 2    
   224  112  114 am   BACKBONE|DICT|INTERRES
   225  114  115 1    
   226  114  235 1    
   227  115  116 1    
   228  115  117 1    
   229  115  236 1    
   230  116  237 1    
   231  116  238 1    
   232  116  239 1    
   233  117  118 2    
   234  117  119 am   BACKBONE|DICT|INTERRES
   235  119  120 1    
   236  119  240 1    
   237  120  121 1    
   238  120  124 1    
   239  120  241 1    
   240  121  122 am   BACKBONE|DICT|INTERRES
   241  121  123 2    
   242  122  242 1    
   243  122  243 1    
   244  124  125 1    
   245  124  244 1    
   246  124  245 1    
   247  125  126 1    
   248  126  246 1    
   249  126  247 1    
@<TRIPOS>SUBSTRUCTURE
     1 UNK         1 GROUP             0       ****    0 ROOT    
