@<TRIPOS>MOLECULE
3R540
247   249    1
SMALL
USER_CHARGES


@<TRIPOS>ATOM
      1 CA         -3.4478   -9.7298  -48.3938 C.3       0 UNK        -0.1800 
      2 C          -1.9712  -10.0942  -48.3408 C.2       0 UNK         0.5000 
      3 O          -1.1241   -9.2107  -48.2007 O.2       0 UNK        -0.5000 
      4 N          -1.6561  -11.3910  -48.4435 N.am      1 UNK        -0.5000 
      5 CA         -0.2977  -11.9468  -48.4229 C.3       1 UNK         0.1400 
      6 C6         -0.2220  -13.3396  -49.1069 C.3       23 UNK        -0.0398 
      7 S7         -0.9488  -13.4103  -50.7789 S.3       23 UNK        -0.2404 
      8 C8         -2.1248  -14.7913  -50.5923 C.3       23 UNK        -0.0205 
      9 C9         -1.4246  -16.1447  -50.5804 C.ar      23 UNK        -0.0193 
     10 C10        -1.1407  -16.7908  -51.7867 C.ar      23 UNK        -0.1150 
     11 C11        -0.5370  -18.0504  -51.7932 C.ar      23 UNK        -0.0193 
     12 C12        -0.2098  -18.6618  -50.5813 C.ar      23 UNK        -0.1150 
     13 C13        -0.4737  -18.0257  -49.3629 C.ar      23 UNK        -0.0193 
     14 C14        -1.0887  -16.7685  -49.3727 C.ar      23 UNK        -0.1150 
     15 C15        -0.1634  -18.7057  -48.0315 C.3       23 UNK        -0.0205 
     16 S16         1.4066  -19.6425  -48.0244 S.3       23 UNK        -0.2404 
     17 C17         1.4128  -20.3524  -46.3422 C.3       23 UNK        -0.0398 
     18 CA          1.0576  -21.8637  -46.3318 C.3       11 UNK         0.1400 
     19 N           1.4154  -22.4978  -45.0646 N.am      11 UNK        -0.5000 
     20 C           1.5992  -23.8132  -44.8789 C.2       10 UNK         0.5000 
     21 O           1.4414  -24.6609  -45.7568 O.2       10 UNK        -0.5000 
     22 CA          2.0477  -24.2574  -43.4772 C.3       10 UNK         0.1400 
     23 CB          3.5338  -23.9315  -43.2557 C.3       10 UNK        -0.1800 
     24 N           1.2527  -23.5948  -42.4466 N.am      10 UNK        -0.5000 
     25 C           0.3105  -24.1894  -41.7029 C.2       9 UNK         0.5000 
     26 O           0.0736  -25.3972  -41.7361 O.2       9 UNK        -0.5000 
     27 CA         -0.5172  -23.2913  -40.7584 C.3       9 UNK         0.1400 
     28 CB         -0.0003  -23.4099  -39.3165 C.3       9 UNK        -0.1800 
     29 N          -0.5296  -21.8770  -41.1397 N.am      9 UNK        -0.5000 
     30 C          -1.0680  -21.3890  -42.2651 C.2       8 UNK         0.5000 
     31 O          -1.6587  -22.0785  -43.0956 O.2       8 UNK        -0.5000 
     32 CA         -0.8647  -19.8862  -42.5419 C.3       8 UNK         0.1400 
     33 CB         -2.0745  -19.0882  -42.0342 C.3       8 UNK        -0.1800 
     34 N           0.3746  -19.3142  -41.9952 N.am      8 UNK        -0.5000 
     35 C           1.6176  -19.7616  -42.2411 C.2       7 UNK         0.5000 
     36 O           1.8458  -20.7564  -42.9315 O.2       7 UNK        -0.5000 
     37 CA          2.7887  -18.9802  -41.6156 C.3       7 UNK         0.1400 
     38 CB          4.1184  -19.2332  -42.3490 C.3       7 UNK        -0.1800 
     39 N           2.5040  -17.5494  -41.6355 N.am      7 UNK        -0.5000 
     40 C           2.5018  -16.7276  -40.5771 C.2       6 UNK         0.5000 
     41 O           2.7949  -17.0851  -39.4358 O.2       6 UNK        -0.5000 
     42 CA          2.0857  -15.2592  -40.8230 C.3       6 UNK         0.1400 
     43 CB          3.3213  -14.3467  -40.8451 C.3       6 UNK        -0.1800 
     44 N           1.3337  -15.0635  -42.0644 N.am      6 UNK        -0.5000 
     45 C           0.1317  -15.5936  -42.3289 C.2       5 UNK         0.5000 
     46 O          -0.5347  -16.2058  -41.4953 O.2       5 UNK        -0.5000 
     47 CA         -0.3799  -15.4832  -43.7784 C.3       5 UNK         0.1400 
     48 CB         -1.3859  -14.3310  -43.9102 C.3       5 UNK        -0.1800 
     49 N           0.6892  -15.2963  -44.7620 N.am      5 UNK        -0.5000 
     50 C           1.6679  -16.1684  -45.0433 C.2       4 UNK         0.5000 
     51 O           1.7696  -17.2728  -44.5107 O.2       4 UNK        -0.5000 
     52 CA          2.7380  -15.6989  -46.0431 C.3       4 UNK         0.1400 
     53 CB          2.2615  -15.8892  -47.4899 C.3       4 UNK        -0.1800 
     54 N           3.0639  -14.2886  -45.8337 N.am      4 UNK        -0.5000 
     55 C           4.0113  -13.8396  -45.0008 C.2       3 UNK         0.5000 
     56 O           4.7371  -14.5765  -44.3336 O.2       3 UNK        -0.5000 
     57 CA          4.1833  -12.3109  -44.8918 C.3       3 UNK         0.1400 
     58 CB          5.2954  -11.8292  -45.8358 C.3       3 UNK        -0.1800 
     59 N           2.9576  -11.5625  -45.1809 N.am      3 UNK        -0.5000 
     60 C           1.8927  -11.5140  -44.3697 C.2       2 UNK         0.5000 
     61 O           1.8344  -12.0925  -43.2844 O.2       2 UNK        -0.5000 
     62 CA          0.6702  -10.7209  -44.8760 C.3       2 UNK         0.1400 
     63 CB          0.8175   -9.2305  -44.5361 C.3       2 UNK        -0.1800 
     64 N           0.3796  -10.8608  -46.3096 N.am      2 UNK        -0.5000 
     65 C           0.2303  -12.0161  -46.9713 C.2       1 UNK         0.5000 
     66 O           0.4582  -13.1120  -46.4604 O.2       1 UNK        -0.5000 
     67 C          -0.4133  -22.1433  -46.6951 C.2       11 UNK         0.5000 
     68 O          -0.6813  -23.0153  -47.5211 O.2       11 UNK        -0.5000 
     69 N          -1.3435  -21.3945  -46.0850 N.am      12 UNK        -0.5000 
     70 CA         -2.7718  -21.3811  -46.4171 C.3       12 UNK         0.1400 
     71 CB         -3.4734  -20.2811  -45.6087 C.3       12 UNK        -0.1800 
     72 C          -3.4725  -22.7364  -46.2251 C.2       12 UNK         0.5000 
     73 O          -4.4115  -23.0370  -46.9596 O.2       12 UNK        -0.5000 
     74 N          -2.9659  -23.5504  -45.2918 N.am      13 UNK        -0.5000 
     75 CA         -3.3831  -24.9323  -45.0567 C.3       13 UNK         0.1400 
     76 CB         -2.6091  -25.4762  -43.8476 C.3       13 UNK        -0.1800 
     77 C          -3.2014  -25.8682  -46.2725 C.2       13 UNK         0.5000 
     78 O          -3.9293  -26.8569  -46.3731 O.2       13 UNK        -0.5000 
     79 N          -2.2512  -25.5498  -47.1633 N.am      14 UNK        -0.5000 
     80 CA         -1.9586  -26.3095  -48.3788 C.3       14 UNK         0.1400 
     81 CB         -0.4719  -26.7001  -48.3750 C.3       14 UNK        -0.1800 
     82 C          -2.2989  -25.5086  -49.6470 C.2       14 UNK         0.5000 
     83 O          -2.8917  -26.0617  -50.5731 O.2       14 UNK        -0.5000 
     84 N          -1.9073  -24.2287  -49.6766 N.am      15 UNK        -0.5000 
     85 CA         -1.9975  -23.3493  -50.8429 C.3       15 UNK         0.1400 
     86 CB         -0.8900  -22.2916  -50.7274 C.3       15 UNK        -0.1800 
     87 C          -3.3705  -22.6719  -51.0056 C.2       15 UNK         0.5000 
     88 O          -3.6237  -22.0766  -52.0512 O.2       15 UNK        -0.5000 
     89 N          -4.2243  -22.7385  -49.9733 N.am      16 UNK        -0.5000 
     90 CA         -5.5935  -22.2052  -49.9151 C.3       16 UNK         0.1400 
     91 CB         -6.4957  -22.9136  -50.9451 C.3       16 UNK        -0.1800 
     92 C          -5.6992  -20.6653  -50.0068 C.2       16 UNK         0.5000 
     93 O          -6.8090  -20.1490  -50.1337 O.2       16 UNK        -0.5000 
     94 N          -4.5587  -19.9637  -49.9181 N.am      17 UNK        -0.5000 
     95 CA         -4.3923  -18.5082  -49.9550 C.3       17 UNK         0.1400 
     96 CB         -4.9362  -17.8672  -48.6627 C.3       17 UNK        -0.1800 
     97 C          -4.9660  -17.8732  -51.2387 C.2       17 UNK         0.5000 
     98 O          -5.9366  -17.1170  -51.1821 O.2       17 UNK        -0.5000 
     99 N          -4.3488  -18.2237  -52.3754 N.am      18 UNK        -0.5000 
    100 CA        -4.6284  -17.7638  -53.7438 C.3       18 UNK         0.1400 
    101 CB        -4.6311  -16.2249  -53.8545 C.3       18 UNK        -0.1800 
    102 C         -5.8678  -18.3994  -54.4018 C.2       18 UNK         0.5000 
    103 O         -6.1283  -18.1219  -55.5742 O.2       18 UNK        -0.5000 
    104 N         -6.5862  -19.2778  -53.6903 N.am      19 UNK        -0.5000 
    105 CA        -7.7325  -20.0292  -54.2042 C.3       19 UNK         0.1400 
    106 CB        -8.6595  -20.4022  -53.0360 C.3       19 UNK        -0.1800 
    107 C         -7.2774  -21.2520  -55.0289 C.2       19 UNK         0.5000 
    108 O         -7.5031  -22.3945  -54.6269 O.2       19 UNK        -0.5000 
    109 N         -6.6175  -20.9759  -56.1624 N.am      20 UNK        -0.5000 
    110 CA        -6.1335  -21.8795  -57.2179 C.3       20 UNK         0.1400 
    111 CB        -7.3010  -22.6514  -57.8608 C.3       20 UNK        -0.1800 
    112 C         -4.9974  -22.8444  -56.8196 C.2       20 UNK         0.5000 
    113 O         -4.1085  -23.0906  -57.6372 O.2       20 UNK        -0.5000 
    114 N         -5.0178  -23.3635  -55.5860 N.am      21 UNK        -0.5000 
    115 CA        -4.0764  -24.3588  -55.0596 C.3       21 UNK         0.1400 
    116 CB        -4.6290  -24.9370  -53.7484 C.3       21 UNK        -0.1800 
    117 C         -2.6159  -23.8744  -54.9154 C.2       21 UNK         0.5000 
    118 O         -1.7282  -24.7041  -54.7118 O.2       21 UNK        -0.5000 
    119 N         -2.3766  -22.5662  -55.0769 N.am      22 UNK        -0.5000 
    120 CA        -1.0454  -21.9758  -55.2983 C.3       22 UNK         0.1400 
    121 C         -0.3762  -22.4111  -56.6380 C.2       22 UNK         0.5000 
    122 N         -1.1171  -22.8870  -57.6339 N.am      22 UNK        -0.7600 
    123 O          0.8401  -22.3132  -56.7747 O.2       22 UNK        -0.5000 
    124 C124       -1.0764  -20.4278  -55.2199 C.3       23 UNK        -0.0398 
    125 S125       -1.6424  -19.8033  -53.6053 S.3       23 UNK        -0.2404 
    126 C126       -0.2442  -18.7555  -53.1072 C.3       23 UNK        -0.0205 
    127 H127       -3.7443   -9.2317  -47.4707 H         1 UNK         0.0600 
    128 H128       -4.0782  -10.6099  -48.5235 H         1 UNK         0.0600 
    129 H129       -3.6366   -9.0508  -49.2252 H         1 UNK         0.0600 
    130 H130       -2.3973  -12.0688  -48.5451 H         1 UNK         0.3000 
    131 H131        0.3607  -11.2741  -48.9764 H         1 UNK         0.0600 
    132 H132        0.8180  -13.6591  -49.1894 H         1 UNK         0.0800 
    133 H133       -0.7182  -14.0833  -48.4841 H         1 UNK         0.0800 
    134 H134       -2.7188  -14.6580  -49.6869 H         1 UNK         0.0800 
    135 H135       -2.8347  -14.7569  -51.4195 H         1 UNK         0.0800 
    136 H136       -1.4004  -16.3170  -52.7229 H         1 UNK         0.1150 
    137 H137        0.2488  -19.6396  -50.5919 H         1 UNK         0.1150 
    138 H138       -1.3237  -16.2849  -48.4355 H         1 UNK         0.1150 
    139 H139       -0.1305  -17.9675  -47.2285 H         1 UNK         0.0800 
    140 H140       -0.9910  -19.3757  -47.8081 H         1 UNK         0.0800 
    141 H141        0.7751  -19.7691  -45.6767 H         1 UNK         0.0800 
    142 H142        2.4235  -20.2183  -45.9534 H         1 UNK         0.0800 
    143 H143        1.6665  -22.3399  -47.1039 H         1 UNK         0.0600 
    144 H144        1.5857  -21.8684  -44.2826 H         1 UNK         0.3000 
    145 H145        1.9297  -25.3414  -43.4185 H         1 UNK         0.0600 
    146 H146        3.8738  -24.2950  -42.2859 H         1 UNK         0.0600 
    147 H147        4.1550  -24.4052  -44.0168 H         1 UNK         0.0600 
    148 H148        3.7256  -22.8584  -43.2950 H         1 UNK         0.0600 
    149 H149        1.3698  -22.5905  -42.3716 H         1 UNK         0.3000 
    150 H150       -1.5468  -23.6541  -40.7855 H         1 UNK         0.0600 
    151 H151       -0.0059  -24.4486  -38.9831 H         1 UNK         0.0600 
    152 H152       -0.6257  -22.8454  -38.6247 H         1 UNK         0.0600 
    153 H153        1.0222  -23.0412  -39.2246 H         1 UNK         0.0600 
    154 H154       -0.0599  -21.2357  -40.5180 H         1 UNK         0.3000 
    155 H155       -0.8186  -19.7680  -43.6252 H         1 UNK         0.0600 
    156 H156       -2.0732  -19.0029  -40.9470 H         1 UNK         0.0600 
    157 H157       -2.0867  -18.0828  -42.4523 H         1 UNK         0.0600 
    158 H158       -3.0142  -19.5606  -42.3231 H         1 UNK         0.0600 
    159 H159        0.2695  -18.4773  -41.4367 H         1 UNK         0.3000 
    160 H160        2.8884  -19.3390  -40.5897 H         1 UNK         0.0600 
    161 H161        4.0566  -18.9425  -43.3987 H         1 UNK         0.0600 
    162 H162        4.3947  -20.2877  -42.3133 H         1 UNK         0.0600 
    163 H163        4.9325  -18.6699  -41.8929 H         1 UNK         0.0600 
    164 H164        2.2284  -17.1859  -42.5426 H         1 UNK         0.3000 
    165 H165        1.4470  -14.9549  -39.9915 H         1 UNK         0.0600 
    166 H166        3.0383  -13.3005  -40.9632 H         1 UNK         0.0600 
    167 H167        3.8846  -14.4277  -39.9146 H         1 UNK         0.0600 
    168 H168        3.9965  -14.6059  -41.6612 H         1 UNK         0.0600 
    169 H169        1.7886  -14.5277  -42.7908 H         1 UNK         0.3000 
    170 H170       -0.8909  -16.4177  -44.0182 H         1 UNK         0.0600 
    171 H171       -0.9223  -13.3696  -43.6877 H         1 UNK         0.0600 
    172 H172       -1.7972  -14.2791  -44.9186 H         1 UNK         0.0600 
    173 H173       -2.2226  -14.4609  -43.2227 H         1 UNK         0.0600 
    174 H174        0.6601  -14.4255  -45.2895 H         1 UNK         0.3000 
    175 H175        3.6341  -16.3063  -45.8990 H         1 UNK         0.0600 
    176 H176        2.9432  -15.4212  -48.2001 H         1 UNK         0.0600 
    177 H177        1.2677  -15.4728  -47.6515 H         1 UNK         0.0600 
    178 H178        2.2173  -16.9459  -47.7420 H         1 UNK         0.0600 
    179 H179        2.4550  -13.6170  -46.2842 H         1 UNK         0.3000 
    180 H180        4.4871  -12.0878  -43.8666 H         1 UNK         0.0600 
    181 H181        5.0426  -12.0102  -46.8813 H         1 UNK         0.0600 
    182 H182        6.2335  -12.3466  -45.6305 H         1 UNK         0.0600 
    183 H183        5.4814  -10.7619  -45.7142 H         1 UNK         0.0600 
    184 H184        2.9186  -11.0649  -46.0584 H         1 UNK         0.3000 
    185 H185       -0.2008  -11.1013  -44.3394 H         1 UNK         0.0600 
    186 H186        1.0096   -9.0880  -43.4717 H         1 UNK         0.0600 
    187 H187        1.6425   -8.7732  -45.0837 H         1 UNK         0.0600 
    188 H188       -0.0915   -8.6792  -44.7775 H         1 UNK         0.0600 
    189 H189        0.1236  -10.0129  -46.8052 H         1 UNK         0.3000 
    190 H190       -1.0539  -20.7610  -45.3583 H         1 UNK         0.3000 
    191 H191       -2.8552  -21.1256  -47.4754 H         1 UNK         0.0600 
    192 H192       -3.0131  -19.3074  -45.7771 H         1 UNK         0.0600 
    193 H193       -4.5226  -20.1979  -45.8957 H         1 UNK         0.0600 
    194 H194       -3.4438  -20.4895  -44.5394 H         1 UNK         0.0600 
    195 H195       -2.2449  -23.1792  -44.6811 H         1 UNK         0.3000 
    196 H196       -4.4462  -24.9185  -44.8085 H         1 UNK         0.0600 
    197 H197       -2.9188  -26.4940  -43.6071 H         1 UNK         0.0600 
    198 H198       -2.7799  -24.8659  -42.9605 H         1 UNK         0.0600 
    199 H199       -1.5354  -25.4956  -44.0393 H         1 UNK         0.0600 
    200 H200       -1.7054  -24.7079  -47.0159 H         1 UNK         0.3000 
    201 H201       -2.5441  -27.2306  -48.4098 H         1 UNK         0.0600 
    202 H202       -0.2362  -27.3357  -47.5213 H         1 UNK         0.0600 
    203 H203        0.1763  -25.8237  -48.3244 H         1 UNK         0.0600 
    204 H204       -0.2090  -27.2544  -49.2768 H         1 UNK         0.0600 
    205 H205       -1.4184  -23.8420  -48.8701 H         1 UNK         0.3000 
    206 H206       -1.8131  -23.9369  -51.7449 H         1 UNK         0.0600 
    207 H207        0.0863  -22.7527  -50.5778 H         1 UNK         0.0600 
    208 H208       -0.8256  -21.6965  -51.6365 H         1 UNK         0.0600 
    209 H209       -1.0687  -21.6092  -49.8956 H         1 UNK         0.0600 
    210 H210       -3.9249  -23.2257  -49.1378 H         1 UNK         0.3000 
    211 H211       -5.9760  -22.4663  -48.9287 H         1 UNK         0.0600 
    212 H212       -6.2830  -22.5851  -51.9627 H         1 UNK         0.0600 
    213 H213       -7.5477  -22.7077  -50.7470 H         1 UNK         0.0600 
    214 H214       -6.3689  -23.9955  -50.9064 H         1 UNK         0.0600 
    215 H215       -3.7055  -20.4995  -49.8697 H         1 UNK         0.3000 
    216 H216       -3.3184  -18.3298  -49.9778 H         1 UNK         0.0600 
    217 H217       -4.7533  -16.7921  -48.6561 H         1 UNK         0.0600 
    218 H218       -4.4481  -18.2840  -47.7821 H         1 UNK         0.0600 
    219 H219       -6.0107  -18.0182  -48.5541 H         1 UNK         0.0600 
    220 H220       -3.5856  -18.8864  -52.3111 H         1 UNK         0.3000 
    221 H221       -3.7885  -18.1087  -54.3453 H         1 UNK         0.0600 
    222 H222       -5.4912  -15.7777  -53.3565 H         1 UNK         0.0600 
    223 H223       -4.6671  -15.9108  -54.8983 H         1 UNK         0.0600 
    224 H224       -3.7281  -15.7961  -53.4226 H         1 UNK         0.0600 
    225 H225       -6.3079  -19.4679  -52.7380 H         1 UNK         0.3000 
    226 H226       -8.3076  -19.3860  -54.8737 H         1 UNK         0.0600 
    227 H227       -8.9984  -19.5141  -52.5023 H         1 UNK         0.0600 
    228 H228       -9.5466  -20.9267  -53.3928 H         1 UNK         0.0600 
    229 H229       -8.1624  -21.0509  -52.3181 H         1 UNK         0.0600 
    230 H230       -6.4376  -19.9914  -56.3341 H         1 UNK         0.3000 
    231 H231       -5.7181  -21.2250  -57.9858 H         1 UNK         0.0600 
    232 H232       -7.7704  -23.3401  -57.1578 H         1 UNK         0.0600 
    233 H233       -6.9563  -23.2408  -58.7114 H         1 UNK         0.0600 
    234 H234       -8.0692  -21.9709  -58.2281 H         1 UNK         0.0600 
    235 H235       -5.8058  -23.1157  -54.9935 H         1 UNK         0.3000 
    236 H236       -4.0432  -25.1774  -55.7814 H         1 UNK         0.0600 
    237 H237       -5.5563  -25.4828  -53.9221 H         1 UNK         0.0600 
    238 H238       -3.9247  -25.6317  -53.2886 H         1 UNK         0.0600 
    239 H239       -4.8404  -24.1552  -53.0240 H         1 UNK         0.0600 
    240 H240       -3.1662  -21.9490  -55.1862 H         1 UNK         0.3000 
    241 H241       -0.3962  -22.3366  -54.4982 H         1 UNK         0.0600 
    242 H242       -2.1261  -22.9639  -57.5510 H         1 UNK         0.3800 
    243 H243       -0.6689  -23.1654  -58.4924 H         1 UNK         0.3800 
    244 H244       -0.0858  -20.0178  -55.4256 H         1 UNK         0.0800 
    245 H245       -1.7347  -20.0217  -55.9897 H         1 UNK         0.0800 
    246 H246        0.6545  -19.3672  -53.0139 H         1 UNK         0.0800 
    247 H247       -0.0423  -18.0199  -53.8875 H         1 UNK         0.0800 
@<TRIPOS>BOND
     1    1    2 1    
     2    1  127 1    
     3    1  128 1    
     4    1  129 1    
     5    2    3 2    
     6    2    4 am   BACKBONE|DICT|INTERRES
     7    4    5 1    
     8    4  130 1    
     9    5    6 1    
    10    5   65 1    
    11    5  131 1    
    12    6    7 1    
    13    6  132 1    
    14    6  133 1    
    15    7    8 1    
    16    8    9 1    
    17    8  134 1    
    18    8  135 1    
    19    9   10 ar   
    20    9   14 ar   
    21   10   11 ar   
    22   10  136 1    
    23   11   12 ar   
    24   11  126 1    
    25   12   13 ar   
    26   12  137 1    
    27   13   14 ar   
    28   13   15 1    
    29   14  138 1    
    30   15   16 1    
    31   15  139 1    
    32   15  140 1    
    33   16   17 1    
    34   17   18 1    
    35   17  141 1    
    36   17  142 1    
    37   18   19 1    
    38   18   67 1    
    39   18  143 1    
    40   19   20 am   BACKBONE|DICT|INTERRES
    41   19  144 1    
    42   20   21 2    
    43   20   22 1    
    44   22   23 1    
    45   22   24 1    
    46   22  145 1    
    47   23  146 1    
    48   23  147 1    
    49   23  148 1    
    50   24   25 am   BACKBONE|DICT|INTERRES
    51   24  149 1    
    52   25   26 2    
    53   25   27 1    
    54   27   28 1    
    55   27   29 1    
    56   27  150 1    
    57   28  151 1    
    58   28  152 1    
    59   28  153 1    
    60   29   30 am   BACKBONE|DICT|INTERRES
    61   29  154 1    
    62   30   31 2    
    63   30   32 1    
    64   32   33 1    
    65   32   34 1    
    66   32  155 1    
    67   33  156 1    
    68   33  157 1    
    69   33  158 1    
    70   34   35 am   BACKBONE|DICT|INTERRES
    71   34  159 1    
    72   35   36 2    
    73   35   37 1    
    74   37   38 1    
    75   37   39 1    
    76   37  160 1    
    77   38  161 1    
    78   38  162 1    
    79   38  163 1    
    80   39   40 am   BACKBONE|DICT|INTERRES
    81   39  164 1    
    82   40   41 2    
    83   40   42 1    
    84   42   43 1    
    85   42   44 1    
    86   42  165 1    
    87   43  166 1    
    88   43  167 1    
    89   43  168 1    
    90   44   45 am   BACKBONE|DICT|INTERRES
    91   44  169 1    
    92   45   46 2    
    93   45   47 1    
    94   47   48 1    
    95   47   49 1    
    96   47  170 1    
    97   48  171 1    
    98   48  172 1    
    99   48  173 1    
   100   49   50 am   BACKBONE|DICT|INTERRES
   101   49  174 1    
   102   50   51 2    
   103   50   52 1    
   104   52   53 1    
   105   52   54 1    
   106   52  175 1    
   107   53  176 1    
   108   53  177 1    
   109   53  178 1    
   110   54   55 am   BACKBONE|DICT|INTERRES
   111   54  179 1    
   112   55   56 2    
   113   55   57 1    
   114   57   58 1    
   115   57   59 1    
   116   57  180 1    
   117   58  181 1    
   118   58  182 1    
   119   58  183 1    
   120   59   60 am   BACKBONE|DICT|INTERRES
   121   59  184 1    
   122   60   61 2    
   123   60   62 1    
   124   62   63 1    
   125   62   64 1    
   126   62  185 1    
   127   63  186 1    
   128   63  187 1    
   129   63  188 1    
   130   64   65 am   BACKBONE|DICT|INTERRES
   131   64  189 1    
   132   65   66 2    
   133   67   68 2    
   134   67   69 am   BACKBONE|DICT|INTERRES
   135   69   70 1    
   136   69  190 1    
   137   70   71 1    
   138   70   72 1    
   139   70  191 1    
   140   71  192 1    
   141   71  193 1    
   142   71  194 1    
   143   72   73 2    
   144   72   74 am   BACKBONE|DICT|INTERRES
   145   74   75 1    
   146   74  195 1    
   147   75   76 1    
   148   75   77 1    
   149   75  196 1    
   150   76  197 1    
   151   76  198 1    
   152   76  199 1    
   153   77   78 2    
   154   77   79 am   BACKBONE|DICT|INTERRES
   155   79   80 1    
   156   79  200 1    
   157   80   81 1    
   158   80   82 1    
   159   80  201 1    
   160   81  202 1    
   161   81  203 1    
   162   81  204 1    
   163   82   83 2    
   164   82   84 am   BACKBONE|DICT|INTERRES
   165   84   85 1    
   166   84  205 1    
   167   85   86 1    
   168   85   87 1    
   169   85  206 1    
   170   86  207 1    
   171   86  208 1    
   172   86  209 1    
   173   87   88 2    
   174   87   89 am   BACKBONE|DICT|INTERRES
   175   89   90 1    
   176   89  210 1    
   177   90   91 1    
   178   90   92 1    
   179   90  211 1    
   180   91  212 1    
   181   91  213 1    
   182   91  214 1    
   183   92   93 2    
   184   92   94 am   BACKBONE|DICT|INTERRES
   185   94   95 1    
   186   94  215 1    
   187   95   96 1    
   188   95   97 1    
   189   95  216 1    
   190   96  217 1    
   191   96  218 1    
   192   96  219 1    
   193   97   98 2    
   194   97   99 am   BACKBONE|DICT|INTERRES
   195   99  100 1    
   196   99  220 1    
   197  100  101 1    
   198  100  102 1    
   199  100  221 1    
   200  101  222 1    
   201  101  223 1    
   202  101  224 1    
   203  102  103 2    
   204  102  104 am   BACKBONE|DICT|INTERRES
   205  104  105 1    
   206  104  225 1    
   207  105  106 1    
   208  105  107 1    
   209  105  226 1    
   210  106  227 1    
   211  106  228 1    
   212  106  229 1    
   213  107  108 2    
   214  107  109 am   BACKBONE|DICT|INTERRES
   215  109  110 1    
   216  109  230 1    
   217  110  111 1    
   218  110  112 1    
   219  110  231 1    
   220  111  232 1    
   221  111  233 1    
   222  111  234 1    
   223  112  113 2    
   224  112  114 am   BACKBONE|DICT|INTERRES
   225  114  115 1    
   226  114  235 1    
   227  115  116 1    
   228  115  117 1    
   229  115  236 1    
   230  116  237 1    
   231  116  238 1    
   232  116  239 1    
   233  117  118 2    
   234  117  119 am   BACKBONE|DICT|INTERRES
   235  119  120 1    
   236  119  240 1    
   237  120  121 1    
   238  120  124 1    
   239  120  241 1    
   240  121  122 am   BACKBONE|DICT|INTERRES
   241  121  123 2    
   242  122  242 1    
   243  122  243 1    
   244  124  125 1    
   245  124  244 1    
   246  124  245 1    
   247  125  126 1    
   248  126  246 1    
   249  126  247 1    
@<TRIPOS>SUBSTRUCTURE
     1 UNK         1 GROUP             0       ****    0 ROOT    
