@<TRIPOS>MOLECULE
3R540
247   249    1
SMALL
USER_CHARGES


@<TRIPOS>ATOM
      1 CA          5.9835  -10.8709  -46.8979 C.3       0 UNK        -0.1800 
      2 C           5.0271  -11.9206  -46.3525 C.2       0 UNK         0.5000 
      3 O           4.6086  -11.8274  -45.1994 O.2       0 UNK        -0.5000 
      4 N           4.6637  -12.9085  -47.1796 N.am      1 UNK        -0.5000 
      5 CA          3.7556  -14.0148  -46.8474 C.3       1 UNK         0.1400 
      6 C6          3.6601  -15.0566  -47.9923 C.3       23 UNK        -0.0398 
      7 S7          3.2423  -14.3150  -49.6126 S.3       23 UNK        -0.2404 
      8 C8          3.9402  -15.5295  -50.7713 C.3       23 UNK        -0.0205 
      9 C9          3.1150  -16.8058  -50.8197 C.ar      23 UNK        -0.0193 
     10 C10         1.8084  -16.7732  -51.3105 C.ar      23 UNK        -0.1150 
     11 C11         1.0444  -17.9400  -51.3804 C.ar      23 UNK        -0.0193 
     12 C12         1.6076  -19.1537  -50.9773 C.ar      23 UNK        -0.1150 
     13 C13         2.9214  -19.2061  -50.4875 C.ar      23 UNK        -0.0193 
     14 C14         3.6621  -18.0225  -50.4062 C.ar      23 UNK        -0.1150 
     15 C15         3.6042  -20.5142  -50.0834 C.3       23 UNK        -0.0205 
     16 S16         2.4876  -21.9028  -49.6955 S.3       23 UNK        -0.2404 
     17 C17         1.6827  -21.2783  -48.1848 C.3       23 UNK        -0.0398 
     18 CA          0.9858  -22.4034  -47.3885 C.3       11 UNK         0.1400 
     19 N           0.7543  -22.0207  -45.9959 N.am      11 UNK        -0.5000 
     20 C           0.3371  -22.8594  -45.0377 C.2       10 UNK         0.5000 
     21 O           0.1634  -24.0657  -45.2103 O.2       10 UNK        -0.5000 
     22 CA          0.0089  -22.2354  -43.6716 C.3       10 UNK         0.1400 
     23 CB          1.2862  -22.0517  -42.8392 C.3       10 UNK        -0.1800 
     24 N          -0.6934  -20.9569  -43.7996 N.am      10 UNK        -0.5000 
     25 C          -1.9143  -20.8161  -44.3355 C.2       9 UNK         0.5000 
     26 O          -2.5964  -21.7634  -44.7252 O.2       9 UNK        -0.5000 
     27 CA         -2.4491  -19.3818  -44.5038 C.3       9 UNK         0.1400 
     28 CB         -3.0097  -18.8497  -43.1773 C.3       9 UNK        -0.1800 
     29 N          -1.4441  -18.4528  -45.0239 N.am      9 UNK        -0.5000 
     30 C          -0.8807  -18.5423  -46.2377 C.2       8 UNK         0.5000 
     31 O          -1.1639  -19.4114  -47.0611 O.2       8 UNK        -0.5000 
     32 CA          0.2225  -17.5212  -46.5703 C.3       8 UNK         0.1400 
     33 CB         -0.3812  -16.1846  -47.0278 C.3       8 UNK        -0.1800 
     34 N           1.1327  -17.2988  -45.4452 N.am      8 UNK        -0.5000 
     35 C           1.9353  -18.2433  -44.9318 C.2       7 UNK         0.5000 
     36 O           2.0281  -19.3839  -45.3862 O.2       7 UNK        -0.5000 
     37 CA          2.7266  -17.8651  -43.6673 C.3       7 UNK         0.1400 
     38 CB          3.9094  -16.9484  -44.0085 C.3       7 UNK        -0.1800 
     39 N           1.8869  -17.2165  -42.6609 N.am      7 UNK        -0.5000 
     40 C           0.8786  -17.8138  -42.0098 C.2       6 UNK         0.5000 
     41 O           0.5707  -18.9936  -42.1610 O.2       6 UNK        -0.5000 
     42 CA          0.0454  -16.9346  -41.0610 C.3       6 UNK         0.1400 
     43 CB          0.6649  -16.9186  -39.6563 C.3       6 UNK        -0.1800 
     44 N          -0.0972  -15.5608  -41.5388 N.am      6 UNK        -0.5000 
     45 C          -0.6782  -15.1877  -42.6851 C.2       5 UNK         0.5000 
     46 O          -1.1973  -15.9770  -43.4747 O.2       5 UNK        -0.5000 
     47 CA         -0.6225  -13.6917  -43.0347 C.3       5 UNK         0.1400 
     48 CB         -1.7044  -12.8925  -42.2862 C.3       5 UNK        -0.1800 
     49 N           0.7092  -13.0980  -42.8661 N.am      5 UNK        -0.5000 
     50 C           1.4099  -12.8502  -41.7490 C.2       4 UNK         0.5000 
     51 O           1.0263  -13.1320  -40.6133 O.2       4 UNK        -0.5000 
     52 CA          2.7841  -12.1834  -41.9445 C.3       4 UNK         0.1400 
     53 CB          3.8636  -13.2493  -42.1879 C.3       4 UNK        -0.1800 
     54 N           2.7811  -11.2391  -43.0618 N.am      4 UNK        -0.5000 
     55 C           2.1160  -10.0746  -43.0735 C.2       3 UNK         0.5000 
     56 O           1.5463   -9.5979  -42.0912 O.2       3 UNK        -0.5000 
     57 CA          2.0322   -9.3505  -44.4280 C.3       3 UNK         0.1400 
     58 CB          3.3195   -8.5636  -44.7192 C.3       3 UNK        -0.1800 
     59 N           1.7657  -10.2923  -45.5172 N.am      3 UNK        -0.5000 
     60 C           0.5796  -10.8797  -45.7366 C.2       2 UNK         0.5000 
     61 O          -0.4363  -10.6293  -45.0888 O.2       2 UNK        -0.5000 
     62 CA          0.5127  -11.9350  -46.8554 C.3       2 UNK         0.1400 
     63 CB         -0.0223  -11.3129  -48.1536 C.3       2 UNK        -0.1800 
     64 N           1.8099  -12.5520  -47.1262 N.am      2 UNK        -0.5000 
     65 C           2.3573  -13.5357  -46.4006 C.2       1 UNK         0.5000 
     66 O           1.8256  -14.0361  -45.4082 O.2       1 UNK        -0.5000 
     67 C          -0.3143  -22.8783  -48.0716 C.2       11 UNK         0.5000 
     68 O          -0.3092  -23.9266  -48.7154 O.2       11 UNK        -0.5000 
     69 N          -1.4155  -22.1384  -47.8733 N.am      12 UNK        -0.5000 
     70 CA         -2.7504  -22.4917  -48.3574 C.3       12 UNK         0.1400 
     71 CB         -3.7357  -21.3593  -48.0429 C.3       12 UNK        -0.1800 
     72 C          -3.2622  -23.8213  -47.7794 C.2       12 UNK         0.5000 
     73 O          -3.8176  -24.6262  -48.5260 O.2       12 UNK        -0.5000 
     74 N          -3.0381  -24.0436  -46.4770 N.am      13 UNK        -0.5000 
     75 CA         -3.3584  -25.2897  -45.7819 C.3       13 UNK         0.1400 
     76 CB         -3.1586  -25.1091  -44.2698 C.3       13 UNK        -0.1800 
     77 C          -2.5438  -26.4835  -46.3118 C.2       13 UNK         0.5000 
     78 O          -3.1232  -27.5364  -46.5793 O.2       13 UNK        -0.5000 
     79 N          -1.2312  -26.2869  -46.5051 N.am      14 UNK        -0.5000 
     80 CA         -0.3146  -27.2745  -47.0834 C.3       14 UNK         0.1400 
     81 CB          1.1294  -26.7639  -46.9665 C.3       14 UNK        -0.1800 
     82 C          -0.6517  -27.6297  -48.5450 C.2       14 UNK         0.5000 
     83 O          -0.5354  -28.7928  -48.9320 O.2       14 UNK        -0.5000 
     84 N          -1.1016  -26.6309  -49.3154 N.am      15 UNK        -0.5000 
     85 CA         -1.5824  -26.7693  -50.6914 C.3       15 UNK         0.1400 
     86 CB         -1.5097  -25.3965  -51.3775 C.3       15 UNK        -0.1800 
     87 C          -3.0075  -27.3546  -50.7994 C.2       15 UNK         0.5000 
     88 O          -3.4675  -27.5906  -51.9172 O.2       15 UNK        -0.5000 
     89 N          -3.6772  -27.5725  -49.6571 N.am      16 UNK        -0.5000 
     90 CA         -5.0398  -28.0885  -49.5028 C.3       16 UNK         0.1400 
     91 CB         -5.1410  -29.5448  -50.0042 C.3       16 UNK        -0.1800 
     92 C          -6.1000  -27.1498  -50.1150 C.2       16 UNK         0.5000 
     93 O          -6.9704  -27.6012  -50.8614 O.2       16 UNK        -0.5000 
     94 N          -5.9980  -25.8596  -49.7632 N.am      17 UNK        -0.5000 
     95 CA         -6.8446  -24.7379  -50.1740 C.3       17 UNK         0.1400 
     96 CB         -8.3101  -24.9427  -49.7350 C.3       17 UNK        -0.1800 
     97 C          -6.6928  -24.4371  -51.6754 C.2       17 UNK         0.5000 
     98 O          -7.5877  -24.7381  -52.4682 O.2       17 UNK        -0.5000 
     99 N          -5.5378  -23.8569  -52.0313 N.am      18 UNK        -0.5000 
    100 CA        -5.1983  -23.3974  -53.3800 C.3       18 UNK         0.1400 
    101 CB        -3.7782  -22.8117  -53.3660 C.3       18 UNK        -0.1800 
    102 C         -6.2050  -22.3569  -53.9094 C.2       18 UNK         0.5000 
    103 O         -6.4546  -21.3568  -53.2303 O.2       18 UNK        -0.5000 
    104 N         -6.7684  -22.6286  -55.0939 N.am      19 UNK        -0.5000 
    105 CA        -7.7892  -21.8137  -55.7535 C.3       19 UNK         0.1400 
    106 CB        -8.3113  -22.5690  -56.9854 C.3       19 UNK        -0.1800 
    107 C         -7.2694  -20.4222  -56.1556 C.2       19 UNK         0.5000 
    108 O         -6.1049  -20.2897  -56.5376 O.2       19 UNK        -0.5000 
    109 N         -8.1538  -19.4194  -56.0659 N.am      20 UNK        -0.5000 
    110 CA        -7.9363  -17.9791  -56.2653 C.3       20 UNK         0.1400 
    111 CB        -7.3848  -17.6559  -57.6680 C.3       20 UNK        -0.1800 
    112 C         -7.0872  -17.3369  -55.1513 C.2       20 UNK         0.5000 
    113 O         -7.5290  -16.3611  -54.5432 O.2       20 UNK        -0.5000 
    114 N         -5.9150  -17.9131  -54.8727 N.am      21 UNK        -0.5000 
    115 CA        -5.0330  -17.5781  -53.7629 C.3       21 UNK         0.1400 
    116 CB        -4.2405  -16.2952  -54.0771 C.3       21 UNK        -0.1800 
    117 C         -4.0831  -18.7668  -53.5265 C.2       21 UNK         0.5000 
    118 O         -3.7550  -19.4639  -54.4867 O.2       21 UNK        -0.5000 
    119 N         -3.5995  -19.0133  -52.3036 N.am      22 UNK        -0.5000 
    120 CA        -3.8864  -18.3011  -51.0454 C.3       22 UNK         0.1400 
    121 C         -5.0992  -18.8790  -50.2565 C.2       22 UNK         0.5000 
    122 N         -5.8383  -19.8583  -50.7647 N.am      22 UNK        -0.7600 
    123 O         -5.3998  -18.4067  -49.1646 O.2       22 UNK        -0.5000 
    124 C124       -2.6042  -18.1894  -50.1752 C.3       23 UNK        -0.0398 
    125 S125       -1.4755  -16.9205  -50.8429 S.3       23 UNK        -0.2404 
    126 C126       -0.3731  -17.8826  -51.9282 C.3       23 UNK        -0.0205 
    127 H127        6.8710  -10.8106  -46.2681 H         1 UNK         0.0600 
    128 H128        5.5026   -9.8929  -46.9056 H         1 UNK         0.0600 
    129 H129        6.3025  -11.1022  -47.9145 H         1 UNK         0.0600 
    130 H130        5.0247  -12.9193  -48.1233 H         1 UNK         0.3000 
    131 H131        4.1979  -14.5185  -45.9873 H         1 UNK         0.0600 
    132 H132        2.9329  -15.8366  -47.7578 H         1 UNK         0.0800 
    133 H133        4.6189  -15.5687  -48.0837 H         1 UNK         0.0800 
    134 H134        4.9782  -15.7371  -50.5070 H         1 UNK         0.0800 
    135 H135        3.9623  -15.0884  -51.7688 H         1 UNK         0.0800 
    136 H136        1.3818  -15.8341  -51.6345 H         1 UNK         0.1150 
    137 H137        1.0197  -20.0555  -51.0635 H         1 UNK         0.1150 
    138 H138        4.6787  -18.0529  -50.0394 H         1 UNK         0.1150 
    139 H139        4.2561  -20.8219  -50.9018 H         1 UNK         0.0800 
    140 H140        4.2530  -20.3422  -49.2231 H         1 UNK         0.0800 
    141 H141        0.9872  -20.4763  -48.4377 H         1 UNK         0.0800 
    142 H142        2.4593  -20.8222  -47.5699 H         1 UNK         0.0800 
    143 H143        1.6641  -23.2591  -47.3575 H         1 UNK         0.0600 
    144 H144        0.9134  -21.0469  -45.7583 H         1 UNK         0.3000 
    145 H145       -0.6471  -22.9270  -43.1391 H         1 UNK         0.0600 
    146 H146        1.0524  -21.7066  -41.8320 H         1 UNK         0.0600 
    147 H147        1.8290  -22.9927  -42.7419 H         1 UNK         0.0600 
    148 H148        1.9621  -21.3261  -43.2931 H         1 UNK         0.0600 
    149 H149       -0.2111  -20.1381  -43.4378 H         1 UNK         0.3000 
    150 H150       -3.2678  -19.4172  -45.2255 H         1 UNK         0.0600 
    151 H151       -3.8028  -19.4974  -42.8019 H         1 UNK         0.0600 
    152 H152       -3.4329  -17.8523  -43.2986 H         1 UNK         0.0600 
    153 H153       -2.2395  -18.7958  -42.4086 H         1 UNK         0.0600 
    154 H154       -1.1869  -17.6749  -44.4228 H         1 UNK         0.3000 
    155 H155        0.8043  -17.9276  -47.4009 H         1 UNK         0.0600 
    156 H156       -0.8738  -15.6597  -46.2089 H         1 UNK         0.0600 
    157 H157       -1.1226  -16.3383  -47.8124 H         1 UNK         0.0600 
    158 H158        0.3842  -15.5269  -47.4377 H         1 UNK         0.0600 
    159 H159        1.1007  -16.3879  -45.0082 H         1 UNK         0.3000 
    160 H160        3.1230  -18.7873  -43.2368 H         1 UNK         0.0600 
    161 H161        3.5680  -15.9723  -44.3488 H         1 UNK         0.0600 
    162 H162        4.5282  -17.3787  -44.7971 H         1 UNK         0.0600 
    163 H163        4.5495  -16.7927  -43.1400 H         1 UNK         0.0600 
    164 H164        2.0576  -16.2387  -42.4824 H         1 UNK         0.3000 
    165 H165       -0.9532  -17.3689  -40.9909 H         1 UNK         0.0600 
    166 H166        0.0406  -16.3624  -38.9568 H         1 UNK         0.0600 
    167 H167        0.7697  -17.9310  -39.2638 H         1 UNK         0.0600 
    168 H168        1.6553  -16.4613  -39.6579 H         1 UNK         0.0600 
    169 H169        0.3071  -14.8250  -40.9650 H         1 UNK         0.3000 
    170 H170       -0.8412  -13.6141  -44.1010 H         1 UNK         0.0600 
    171 H171       -2.6980  -13.2822  -42.5103 H         1 UNK         0.0600 
    172 H172       -1.5744  -12.9368  -41.2047 H         1 UNK         0.0600 
    173 H173       -1.6912  -11.8437  -42.5834 H         1 UNK         0.0600 
    174 H174        1.1877  -12.9253  -43.7420 H         1 UNK         0.3000 
    175 H175        3.0309  -11.6403  -41.0299 H         1 UNK         0.0600 
    176 H176        3.6827  -13.8008  -43.1113 H         1 UNK         0.0600 
    177 H177        4.8527  -12.7967  -42.2609 H         1 UNK         0.0600 
    178 H178        3.8947  -13.9717  -41.3713 H         1 UNK         0.0600 
    179 H179        3.2937  -11.5187  -43.8949 H         1 UNK         0.3000 
    180 H180        1.2064   -8.6373  -44.3785 H         1 UNK         0.0600 
    181 H181        4.1960   -9.2105  -44.7499 H         1 UNK         0.0600 
    182 H182        3.4966   -7.8135  -43.9475 H         1 UNK         0.0600 
    183 H183        3.2549   -8.0394  -45.6728 H         1 UNK         0.0600 
    184 H184        2.5568  -10.5814  -46.0724 H         1 UNK         0.3000 
    185 H185       -0.1863  -12.7121  -46.5380 H         1 UNK         0.0600 
    186 H186       -1.0054  -10.8669  -47.9970 H         1 UNK         0.0600 
    187 H187        0.6383  -10.5299  -48.5280 H         1 UNK         0.0600 
    188 H188       -0.1285  -12.0654  -48.9355 H         1 UNK         0.0600 
    189 H189        2.3146  -12.2178  -47.9348 H         1 UNK         0.3000 
    190 H190       -1.3342  -21.2591  -47.3684 H         1 UNK         0.3000 
    191 H191       -2.6881  -22.5980  -49.4422 H         1 UNK         0.0600 
    192 H192       -3.8952  -21.2426  -46.9715 H         1 UNK         0.0600 
    193 H193       -4.7077  -21.5507  -48.4987 H         1 UNK         0.0600 
    194 H194       -3.3751  -20.4067  -48.4251 H         1 UNK         0.0600 
    195 H195       -2.6321  -23.2982  -45.9182 H         1 UNK         0.3000 
    196 H196       -4.4144  -25.5047  -45.9584 H         1 UNK         0.0600 
    197 H197       -3.4250  -26.0185  -43.7299 H         1 UNK         0.0600 
    198 H198       -3.7856  -24.3053  -43.8835 H         1 UNK         0.0600 
    199 H199       -2.1240  -24.8721  -44.0229 H         1 UNK         0.0600 
    200 H200       -0.8227  -25.3992  -46.2250 H         1 UNK         0.3000 
    201 H201       -0.3993  -28.1896  -46.4939 H         1 UNK         0.0600 
    202 H202        1.4003  -26.5829  -45.9262 H         1 UNK         0.0600 
    203 H203        1.2731  -25.8329  -47.5155 H         1 UNK         0.0600 
    204 H204        1.8357  -27.4932  -47.3651 H         1 UNK         0.0600 
    205 H205       -1.0870  -25.6867  -48.9389 H         1 UNK         0.3000 
    206 H206       -0.9133  -27.4485  -51.2233 H         1 UNK         0.0600 
    207 H207       -0.5007  -24.9859  -51.3355 H         1 UNK         0.0600 
    208 H208       -1.7831  -25.4729  -52.4302 H         1 UNK         0.0600 
    209 H209       -2.1836  -24.6786  -50.9091 H         1 UNK         0.0600 
    210 H210       -3.2140  -27.3266  -48.7912 H         1 UNK         0.3000 
    211 H211       -5.2354  -28.1030  -48.4297 H         1 UNK         0.0600 
    212 H212       -5.0069  -29.6160  -51.0838 H         1 UNK         0.0600 
    213 H213       -6.1173  -29.9699  -49.7688 H         1 UNK         0.0600 
    214 H214       -4.3899  -30.1767  -49.5302 H         1 UNK         0.0600 
    215 H215       -5.1905  -25.5876  -49.2039 H         1 UNK         0.3000 
    216 H216       -6.4721  -23.8638  -49.6371 H         1 UNK         0.0600 
    217 H217       -8.9071  -24.0588  -49.9622 H         1 UNK         0.0600 
    218 H218       -8.3784  -25.1137  -48.6607 H         1 UNK         0.0600 
    219 H219       -8.7797  -25.7874  -50.2391 H         1 UNK         0.0600 
    220 H220       -4.8601  -23.6607  -51.3107 H         1 UNK         0.3000 
    221 H221       -5.2052  -24.2681  -54.0388 H         1 UNK         0.0600 
    222 H222       -3.6875  -21.9943  -52.6504 H         1 UNK         0.0600 
    223 H223       -3.0401  -23.5686  -53.1070 H         1 UNK         0.0600 
    224 H224       -3.5077  -22.4187  -54.3472 H         1 UNK         0.0600 
    225 H225       -6.4830  -23.4615  -55.5871 H         1 UNK         0.3000 
    226 H226       -8.6140  -21.6881  -55.0488 H         1 UNK         0.0600 
    227 H227       -8.7354  -23.5341  -56.7074 H         1 UNK         0.0600 
    228 H228       -9.0969  -22.0032  -57.4879 H         1 UNK         0.0600 
    229 H229       -7.5186  -22.7464  -57.7136 H         1 UNK         0.0600 
    230 H230       -9.0803  -19.6519  -55.7352 H         1 UNK         0.3000 
    231 H231       -8.9271  -17.5263  -56.2015 H         1 UNK         0.0600 
    232 H232       -7.3636  -16.5782  -57.8339 H         1 UNK         0.0600 
    233 H233       -8.0091  -18.0927  -58.4474 H         1 UNK         0.0600 
    234 H234       -6.3676  -18.0221  -57.8076 H         1 UNK         0.0600 
    235 H235       -5.6384  -18.7397  -55.4000 H         1 UNK         0.3000 
    236 H236       -5.6614  -17.4265  -52.8849 H         1 UNK         0.0600 
    237 H237       -3.5448  -16.0537  -53.2729 H         1 UNK         0.0600 
    238 H238       -3.6567  -16.4021  -54.9922 H         1 UNK         0.0600 
    239 H239       -4.9013  -15.4373  -54.2004 H         1 UNK         0.0600 
    240 H240       -2.9884  -19.8078  -52.2028 H         1 UNK         0.3000 
    241 H241       -4.1860  -17.2776  -51.2685 H         1 UNK         0.0600 
    242 H242       -6.6274  -20.1849  -50.2314 H         1 UNK         0.3800 
    243 H243       -5.6825  -20.2469  -51.6875 H         1 UNK         0.3800 
    244 H244       -2.8427  -17.8823  -49.1553 H         1 UNK         0.0800 
    245 H245       -2.0910  -19.1480  -50.0845 H         1 UNK         0.0800 
    246 H246       -0.3532  -17.4087  -52.9105 H         1 UNK         0.0800 
    247 H247       -0.7692  -18.8858  -52.0870 H         1 UNK         0.0800 
@<TRIPOS>BOND
     1    1    2 1    
     2    1  127 1    
     3    1  128 1    
     4    1  129 1    
     5    2    3 2    
     6    2    4 am   BACKBONE|DICT|INTERRES
     7    4    5 1    
     8    4  130 1    
     9    5    6 1    
    10    5   65 1    
    11    5  131 1    
    12    6    7 1    
    13    6  132 1    
    14    6  133 1    
    15    7    8 1    
    16    8    9 1    
    17    8  134 1    
    18    8  135 1    
    19    9   10 ar   
    20    9   14 ar   
    21   10   11 ar   
    22   10  136 1    
    23   11   12 ar   
    24   11  126 1    
    25   12   13 ar   
    26   12  137 1    
    27   13   14 ar   
    28   13   15 1    
    29   14  138 1    
    30   15   16 1    
    31   15  139 1    
    32   15  140 1    
    33   16   17 1    
    34   17   18 1    
    35   17  141 1    
    36   17  142 1    
    37   18   19 1    
    38   18   67 1    
    39   18  143 1    
    40   19   20 am   BACKBONE|DICT|INTERRES
    41   19  144 1    
    42   20   21 2    
    43   20   22 1    
    44   22   23 1    
    45   22   24 1    
    46   22  145 1    
    47   23  146 1    
    48   23  147 1    
    49   23  148 1    
    50   24   25 am   BACKBONE|DICT|INTERRES
    51   24  149 1    
    52   25   26 2    
    53   25   27 1    
    54   27   28 1    
    55   27   29 1    
    56   27  150 1    
    57   28  151 1    
    58   28  152 1    
    59   28  153 1    
    60   29   30 am   BACKBONE|DICT|INTERRES
    61   29  154 1    
    62   30   31 2    
    63   30   32 1    
    64   32   33 1    
    65   32   34 1    
    66   32  155 1    
    67   33  156 1    
    68   33  157 1    
    69   33  158 1    
    70   34   35 am   BACKBONE|DICT|INTERRES
    71   34  159 1    
    72   35   36 2    
    73   35   37 1    
    74   37   38 1    
    75   37   39 1    
    76   37  160 1    
    77   38  161 1    
    78   38  162 1    
    79   38  163 1    
    80   39   40 am   BACKBONE|DICT|INTERRES
    81   39  164 1    
    82   40   41 2    
    83   40   42 1    
    84   42   43 1    
    85   42   44 1    
    86   42  165 1    
    87   43  166 1    
    88   43  167 1    
    89   43  168 1    
    90   44   45 am   BACKBONE|DICT|INTERRES
    91   44  169 1    
    92   45   46 2    
    93   45   47 1    
    94   47   48 1    
    95   47   49 1    
    96   47  170 1    
    97   48  171 1    
    98   48  172 1    
    99   48  173 1    
   100   49   50 am   BACKBONE|DICT|INTERRES
   101   49  174 1    
   102   50   51 2    
   103   50   52 1    
   104   52   53 1    
   105   52   54 1    
   106   52  175 1    
   107   53  176 1    
   108   53  177 1    
   109   53  178 1    
   110   54   55 am   BACKBONE|DICT|INTERRES
   111   54  179 1    
   112   55   56 2    
   113   55   57 1    
   114   57   58 1    
   115   57   59 1    
   116   57  180 1    
   117   58  181 1    
   118   58  182 1    
   119   58  183 1    
   120   59   60 am   BACKBONE|DICT|INTERRES
   121   59  184 1    
   122   60   61 2    
   123   60   62 1    
   124   62   63 1    
   125   62   64 1    
   126   62  185 1    
   127   63  186 1    
   128   63  187 1    
   129   63  188 1    
   130   64   65 am   BACKBONE|DICT|INTERRES
   131   64  189 1    
   132   65   66 2    
   133   67   68 2    
   134   67   69 am   BACKBONE|DICT|INTERRES
   135   69   70 1    
   136   69  190 1    
   137   70   71 1    
   138   70   72 1    
   139   70  191 1    
   140   71  192 1    
   141   71  193 1    
   142   71  194 1    
   143   72   73 2    
   144   72   74 am   BACKBONE|DICT|INTERRES
   145   74   75 1    
   146   74  195 1    
   147   75   76 1    
   148   75   77 1    
   149   75  196 1    
   150   76  197 1    
   151   76  198 1    
   152   76  199 1    
   153   77   78 2    
   154   77   79 am   BACKBONE|DICT|INTERRES
   155   79   80 1    
   156   79  200 1    
   157   80   81 1    
   158   80   82 1    
   159   80  201 1    
   160   81  202 1    
   161   81  203 1    
   162   81  204 1    
   163   82   83 2    
   164   82   84 am   BACKBONE|DICT|INTERRES
   165   84   85 1    
   166   84  205 1    
   167   85   86 1    
   168   85   87 1    
   169   85  206 1    
   170   86  207 1    
   171   86  208 1    
   172   86  209 1    
   173   87   88 2    
   174   87   89 am   BACKBONE|DICT|INTERRES
   175   89   90 1    
   176   89  210 1    
   177   90   91 1    
   178   90   92 1    
   179   90  211 1    
   180   91  212 1    
   181   91  213 1    
   182   91  214 1    
   183   92   93 2    
   184   92   94 am   BACKBONE|DICT|INTERRES
   185   94   95 1    
   186   94  215 1    
   187   95   96 1    
   188   95   97 1    
   189   95  216 1    
   190   96  217 1    
   191   96  218 1    
   192   96  219 1    
   193   97   98 2    
   194   97   99 am   BACKBONE|DICT|INTERRES
   195   99  100 1    
   196   99  220 1    
   197  100  101 1    
   198  100  102 1    
   199  100  221 1    
   200  101  222 1    
   201  101  223 1    
   202  101  224 1    
   203  102  103 2    
   204  102  104 am   BACKBONE|DICT|INTERRES
   205  104  105 1    
   206  104  225 1    
   207  105  106 1    
   208  105  107 1    
   209  105  226 1    
   210  106  227 1    
   211  106  228 1    
   212  106  229 1    
   213  107  108 2    
   214  107  109 am   BACKBONE|DICT|INTERRES
   215  109  110 1    
   216  109  230 1    
   217  110  111 1    
   218  110  112 1    
   219  110  231 1    
   220  111  232 1    
   221  111  233 1    
   222  111  234 1    
   223  112  113 2    
   224  112  114 am   BACKBONE|DICT|INTERRES
   225  114  115 1    
   226  114  235 1    
   227  115  116 1    
   228  115  117 1    
   229  115  236 1    
   230  116  237 1    
   231  116  238 1    
   232  116  239 1    
   233  117  118 2    
   234  117  119 am   BACKBONE|DICT|INTERRES
   235  119  120 1    
   236  119  240 1    
   237  120  121 1    
   238  120  124 1    
   239  120  241 1    
   240  121  122 am   BACKBONE|DICT|INTERRES
   241  121  123 2    
   242  122  242 1    
   243  122  243 1    
   244  124  125 1    
   245  124  244 1    
   246  124  245 1    
   247  125  126 1    
   248  126  246 1    
   249  126  247 1    
@<TRIPOS>SUBSTRUCTURE
     1 UNK         1 GROUP             0       ****    0 ROOT    
