@<TRIPOS>MOLECULE
3R540
247   249    1
SMALL
USER_CHARGES


@<TRIPOS>ATOM
      1 CA          7.0884  -16.7310  -47.7266 C.3       0 UNK        -0.1800 
      2 C           6.1293  -15.6475  -47.2558 C.2       0 UNK         0.5000 
      3 O           6.5075  -14.7995  -46.4470 O.2       0 UNK        -0.5000 
      4 N           4.8949  -15.6541  -47.7728 N.am      1 UNK        -0.5000 
      5 CA          3.7990  -14.7379  -47.4212 C.3       1 UNK         0.1400 
      6 C6          2.4156  -15.3770  -47.6997 C.3       23 UNK        -0.0398 
      7 S7          2.1294  -16.8465  -46.6574 S.3       23 UNK        -0.2404 
      8 C8          1.7138  -18.1029  -47.9044 C.3       23 UNK        -0.0205 
      9 C9          0.3288  -17.8895  -48.4919 C.ar      23 UNK        -0.0193 
     10 C10         0.1692  -17.6497  -49.8590 C.ar      23 UNK        -0.1150 
     11 C11        -1.1077  -17.5108  -50.4091 C.ar      23 UNK        -0.0193 
     12 C12        -2.2289  -17.6050  -49.5787 C.ar      23 UNK        -0.1150 
     13 C13        -2.0819  -17.8539  -48.2108 C.ar      23 UNK        -0.0193 
     14 C14        -0.7991  -17.9789  -47.6721 C.ar      23 UNK        -0.1150 
     15 C15        -3.3072  -17.9887  -47.3181 C.3       23 UNK        -0.0205 
     16 S16        -3.8257  -19.7240  -47.1189 S.3       23 UNK        -0.2404 
     17 C17        -2.5844  -20.3618  -45.9430 C.3       23 UNK        -0.0398 
     18 CA         -1.4737  -21.2084  -46.6157 C.3       11 UNK         0.1400 
     19 N          -0.2334  -21.1881  -45.8238 N.am      11 UNK        -0.5000 
     20 C           0.9215  -21.7974  -46.1359 C.2       10 UNK         0.5000 
     21 O           1.0955  -22.4424  -47.1680 O.2       10 UNK        -0.5000 
     22 CA          2.0481  -21.7403  -45.0909 C.3       10 UNK         0.1400 
     23 CB          2.8299  -20.4219  -45.1728 C.3       10 UNK        -0.1800 
     24 N           1.5098  -21.9159  -43.7438 N.am      10 UNK        -0.5000 
     25 C           1.2474  -23.1093  -43.1922 C.2       9 UNK         0.5000 
     26 O           1.5325  -24.1826  -43.7227 O.2       9 UNK        -0.5000 
     27 CA          0.5286  -23.1112  -41.8284 C.3       9 UNK         0.1400 
     28 CB          1.5499  -23.1735  -40.6829 C.3       9 UNK        -0.1800 
     29 N          -0.3419  -21.9509  -41.6295 N.am      9 UNK        -0.5000 
     30 C          -1.4582  -21.7022  -42.3287 C.2       8 UNK         0.5000 
     31 O          -1.8976  -22.4481  -43.2037 O.2       8 UNK        -0.5000 
     32 CA         -2.1652  -20.3625  -42.0427 C.3       8 UNK         0.1400 
     33 CB         -3.1726  -20.5188  -40.8947 C.3       8 UNK        -0.1800 
     34 N          -1.2436  -19.2641  -41.7329 N.am      8 UNK        -0.5000 
     35 C          -0.2664  -18.8244  -42.5361 C.2       7 UNK         0.5000 
     36 O          -0.0348  -19.3083  -43.6457 O.2       7 UNK        -0.5000 
     37 CA          0.5891  -17.6590  -42.0031 C.3       7 UNK         0.1400 
     38 CB          1.9940  -17.6399  -42.6289 C.3       7 UNK        -0.1800 
     39 N          -0.0561  -16.3745  -42.2575 N.am      7 UNK        -0.5000 
     40 C          -1.1292  -15.9001  -41.6108 C.2       6 UNK         0.5000 
     41 O          -1.6563  -16.4759  -40.6575 O.2       6 UNK        -0.5000 
     42 CA         -1.7106  -14.5556  -42.0961 C.3       6 UNK         0.1400 
     43 CB         -1.3520  -13.4290  -41.1143 C.3       6 UNK        -0.1800 
     44 N          -1.2737  -14.1590  -43.4378 N.am      6 UNK        -0.5000 
     45 C          -1.6113  -14.7689  -44.5827 C.2       5 UNK         0.5000 
     46 O          -2.3346  -15.7632  -44.6229 O.2       5 UNK        -0.5000 
     47 CA         -1.0605  -14.1669  -45.8947 C.3       5 UNK         0.1400 
     48 CB         -2.1247  -14.1489  -47.0052 C.3       5 UNK        -0.1800 
     49 N          -0.5446  -12.8037  -45.7245 N.am      5 UNK        -0.5000 
     50 C           0.7042  -12.4807  -45.3705 C.2       4 UNK         0.5000 
     51 O           1.5986  -13.3039  -45.1635 O.2       4 UNK        -0.5000 
     52 CA          0.9763  -10.9869  -45.1492 C.3       4 UNK         0.1400 
     53 CB          0.4357  -10.5492  -43.7719 C.3       4 UNK        -0.1800 
     54 N           2.4146  -10.7591  -45.2321 N.am      4 UNK        -0.5000 
     55 C           3.0274   -9.5713  -45.2902 C.2       3 UNK         0.5000 
     56 O           2.4377   -8.4900  -45.2918 O.2       3 UNK        -0.5000 
     57 CA          4.5630   -9.6016  -45.3766 C.3       3 UNK         0.1400 
     58 CB          5.1824   -9.9475  -44.0130 C.3       3 UNK        -0.1800 
     59 N           5.0336  -10.5549  -46.3812 N.am      3 UNK        -0.5000 
     60 C           5.0034  -10.3357  -47.7037 C.2       2 UNK         0.5000 
     61 O           4.6045   -9.2899  -48.2174 O.2       2 UNK        -0.5000 
     62 CA          5.5030  -11.4796  -48.6041 C.3       2 UNK         0.1400 
     63 CB          7.0236  -11.3894  -48.8034 C.3       2 UNK        -0.1800 
     64 N           5.1682  -12.7965  -48.0637 N.am      2 UNK        -0.5000 
     65 C           3.9494  -13.3494  -48.0898 C.2       1 UNK         0.5000 
     66 O           2.9792  -12.8047  -48.6196 O.2       1 UNK        -0.5000 
     67 C          -1.9705  -22.6400  -46.9187 C.2       11 UNK         0.5000 
     68 O          -2.4554  -22.9039  -48.0217 O.2       11 UNK        -0.5000 
     69 N          -1.7829  -23.5504  -45.9525 N.am      12 UNK        -0.5000 
     70 CA         -2.0426  -24.9869  -46.0581 C.3       12 UNK         0.1400 
     71 CB         -1.7203  -25.6547  -44.7139 C.3       12 UNK        -0.1800 
     72 C          -1.2845  -25.6874  -47.2039 C.2       12 UNK         0.5000 
     73 O          -1.7949  -26.6686  -47.7439 O.2       12 UNK        -0.5000 
     74 N          -0.1038  -25.1683  -47.5638 N.am      13 UNK        -0.5000 
     75 CA          0.7196  -25.6622  -48.6634 C.3       13 UNK         0.1400 
     76 CB          2.1865  -25.7220  -48.2070 C.3       13 UNK        -0.1800 
     77 C           0.5729  -24.7725  -49.9081 C.2       13 UNK         0.5000 
     78 O           0.3428  -25.2940  -50.9987 O.2       13 UNK        -0.5000 
     79 N           0.7162  -23.4521  -49.7266 N.am      14 UNK        -0.5000 
     80 CA          0.7784  -22.4540  -50.7949 C.3       14 UNK         0.1400 
     81 CB          1.2131  -21.1028  -50.2043 C.3       14 UNK        -0.1800 
     82 C          -0.5391  -22.3070  -51.5706 C.2       14 UNK         0.5000 
     83 O          -0.5313  -22.3708  -52.8002 O.2       14 UNK        -0.5000 
     84 N          -1.6427  -22.1346  -50.8336 N.am      15 UNK        -0.5000 
     85 CA         -2.9851  -21.9595  -51.3882 C.3       15 UNK         0.1400 
     86 CB         -3.7112  -20.8657  -50.5961 C.3       15 UNK        -0.1800 
     87 C          -3.7967  -23.2635  -51.3465 C.2       15 UNK         0.5000 
     88 O          -4.9784  -23.2367  -51.6917 O.2       15 UNK        -0.5000 
     89 N          -3.1709  -24.3546  -50.8794 N.am      16 UNK        -0.5000 
     90 CA         -3.7550  -25.6698  -50.6077 C.3       16 UNK         0.1400 
     91 CB         -4.1455  -26.3759  -51.9217 C.3       16 UNK        -0.1800 
     92 C          -4.9027  -25.5944  -49.5776 C.2       16 UNK         0.5000 
     93 O          -5.9467  -26.2196  -49.7667 O.2       16 UNK        -0.5000 
     94 N          -4.6766  -24.8057  -48.5146 N.am      17 UNK        -0.5000 
     95 CA         -5.6082  -24.4882  -47.4272 C.3       17 UNK         0.1400 
     96 CB         -6.0456  -25.7539  -46.6581 C.3       17 UNK        -0.1800 
     97 C          -6.7829  -23.6245  -47.9204 C.2       17 UNK         0.5000 
     98 O          -7.9458  -23.9456  -47.6700 O.2       17 UNK        -0.5000 
     99 N          -6.4291  -22.5300  -48.6102 N.am      18 UNK        -0.5000 
    100 CA        -7.3191  -21.5071  -49.1668 C.3       18 UNK         0.1400 
    101 CB        -8.0265  -20.7246  -48.0406 C.3       18 UNK        -0.1800 
    102 C         -8.2899  -22.0637  -50.2298 C.2       18 UNK         0.5000 
    103 O         -9.4728  -21.7189  -50.2363 O.2       18 UNK        -0.5000 
    104 N         -7.7584  -22.8946  -51.1363 N.am      19 UNK        -0.5000 
    105 CA        -8.4734  -23.4625  -52.2832 C.3       19 UNK         0.1400 
    106 CB        -7.8776  -24.8431  -52.6003 C.3       19 UNK        -0.1800 
    107 C         -8.4214  -22.5457  -53.5251 C.2       19 UNK         0.5000 
    108 O         -8.8624  -22.9590  -54.5982 O.2       19 UNK        -0.5000 
    109 N         -7.8719  -21.3319  -53.3627 N.am      20 UNK        -0.5000 
    110 CA        -7.6686  -20.2909  -54.3752 C.3       20 UNK         0.1400 
    111 CB        -9.0067  -19.8273  -54.9897 C.3       20 UNK        -0.1800 
    112 C         -6.6092  -20.6671  -55.4317 C.2       20 UNK         0.5000 
    113 O         -6.6800  -20.1974  -56.5688 O.2       20 UNK        -0.5000 
    114 N         -5.6153  -21.4752  -55.0290 N.am      21 UNK        -0.5000 
    115 CA        -4.4371  -21.8025  -55.8417 C.3       21 UNK         0.1400 
    116 CB        -3.7473  -23.0480  -55.2641 C.3       21 UNK        -0.1800 
    117 C         -3.4479  -20.6212  -55.9700 C.2       21 UNK         0.5000 
    118 O         -2.6151  -20.6216  -56.8773 O.2       21 UNK        -0.5000 
    119 N         -3.5820  -19.6248  -55.0890 N.am      22 UNK        -0.5000 
    120 CA        -2.9228  -18.3170  -55.1393 C.3       22 UNK         0.1400 
    121 C         -3.8453  -17.2211  -54.5379 C.2       22 UNK         0.5000 
    122 N         -3.5111  -15.9507  -54.7194 N.am      22 UNK        -0.7600 
    123 O         -4.8627  -17.5073  -53.9074 O.2       22 UNK        -0.5000 
    124 C124       -1.4948  -18.3258  -54.5275 C.3       23 UNK        -0.0398 
    125 S125       -1.4119  -18.8677  -52.7852 S.3       23 UNK        -0.2404 
    126 C126       -1.2733  -17.2830  -51.9030 C.3       23 UNK        -0.0205 
    127 H127        6.6181  -17.4059  -48.4422 H         1 UNK         0.0600 
    128 H128        7.4319  -17.3217  -46.8774 H         1 UNK         0.0600 
    129 H129        7.9583  -16.2803  -48.2044 H         1 UNK         0.0600 
    130 H130        4.6583  -16.3621  -48.4523 H         1 UNK         0.3000 
    131 H131        3.8528  -14.5492  -46.3466 H         1 UNK         0.0600 
    132 H132        1.6120  -14.6715  -47.4921 H         1 UNK         0.0800 
    133 H133        2.3195  -15.6351  -48.7553 H         1 UNK         0.0800 
    134 H134        1.7352  -19.0877  -47.4405 H         1 UNK         0.0800 
    135 H135        2.4788  -18.1166  -48.6819 H         1 UNK         0.0800 
    136 H136        1.0364  -17.5930  -50.5015 H         1 UNK         0.1150 
    137 H137       -3.2182  -17.5095  -50.0037 H         1 UNK         0.1150 
    138 H138       -0.6724  -18.1639  -46.6147 H         1 UNK         0.1150 
    139 H139       -3.1160  -17.5471  -46.3405 H         1 UNK         0.0800 
    140 H140       -4.1375  -17.4242  -47.7447 H         1 UNK         0.0800 
    141 H141       -3.1047  -20.9370  -45.1757 H         1 UNK         0.0800 
    142 H142       -2.1497  -19.5127  -45.4153 H         1 UNK         0.0800 
    143 H143       -1.2231  -20.7548  -47.5761 H         1 UNK         0.0600 
    144 H144       -0.2563  -20.6361  -44.9706 H         1 UNK         0.3000 
    145 H145        2.7473  -22.5512  -45.3067 H         1 UNK         0.0600 
    146 H146        3.6055  -20.3749  -44.4085 H         1 UNK         0.0600 
    147 H147        3.3242  -20.3244  -46.1398 H         1 UNK         0.0600 
    148 H148        2.1829  -19.5548  -45.0446 H         1 UNK         0.0600 
    149 H149        1.1960  -21.0782  -43.2729 H         1 UNK         0.3000 
    150 H150       -0.0913  -24.0094  -41.7852 H         1 UNK         0.0600 
    151 H151        2.2001  -24.0433  -40.7864 H         1 UNK         0.0600 
    152 H152        1.0538  -23.2540  -39.7155 H         1 UNK         0.0600 
    153 H153        2.1868  -22.2882  -40.6624 H         1 UNK         0.0600 
    154 H154       -0.0557  -21.2815  -40.9304 H         1 UNK         0.3000 
    155 H155       -2.7173  -20.0813  -42.9406 H         1 UNK         0.0600 
    156 H156       -2.6775  -20.7654  -39.9546 H         1 UNK         0.0600 
    157 H157       -3.8882  -21.3140  -41.1083 H         1 UNK         0.0600 
    158 H158       -3.7430  -19.6021  -40.7434 H         1 UNK         0.0600 
    159 H159       -1.4122  -18.7593  -40.8720 H         1 UNK         0.3000 
    160 H160        0.7071  -17.7890  -40.9253 H         1 UNK         0.0600 
    161 H161        1.9552  -17.4525  -43.7021 H         1 UNK         0.0600 
    162 H162        2.5033  -18.5927  -42.4794 H         1 UNK         0.0600 
    163 H163        2.6152  -16.8655  -42.1787 H         1 UNK         0.0600 
    164 H164        0.2957  -15.8442  -43.0406 H         1 UNK         0.3000 
    165 H165       -2.7972  -14.6620  -42.1136 H         1 UNK         0.0600 
    166 H166       -1.8247  -12.4893  -41.4010 H         1 UNK         0.0600 
    167 H167       -1.6910  -13.6659  -40.1048 H         1 UNK         0.0600 
    168 H168       -0.2749  -13.2634  -41.0685 H         1 UNK         0.0600 
    169 H169       -0.6666  -13.3557  -43.4937 H         1 UNK         0.3000 
    170 H170       -0.2550  -14.8270  -46.2175 H         1 UNK         0.0600 
    171 H171       -2.4983  -15.1513  -47.2119 H         1 UNK         0.0600 
    172 H172       -2.9798  -13.5293  -46.7335 H         1 UNK         0.0600 
    173 H173       -1.7122  -13.7649  -47.9384 H         1 UNK         0.0600 
    174 H174       -1.2205  -12.0626  -45.8470 H         1 UNK         0.3000 
    175 H175        0.4831  -10.4196  -45.9412 H         1 UNK         0.0600 
    176 H176        0.9377  -11.0757  -42.9592 H         1 UNK         0.0600 
    177 H177        0.5697   -9.4802  -43.6080 H         1 UNK         0.0600 
    178 H178       -0.6326  -10.7503  -43.6834 H         1 UNK         0.0600 
    179 H179        2.9605  -11.6107  -45.2564 H         1 UNK         0.3000 
    180 H180        4.9038   -8.6019  -45.6554 H         1 UNK         0.0600 
    181 H181        4.9060  -10.9496  -43.6829 H         1 UNK         0.0600 
    182 H182        4.8513   -9.2463  -43.2458 H         1 UNK         0.0600 
    183 H183        6.2706   -9.8956  -44.0511 H         1 UNK         0.0600 
    184 H184        5.3827  -11.4409  -46.0469 H         1 UNK         0.3000 
    185 H185        5.0251  -11.3710  -49.5802 H         1 UNK         0.0600 
    186 H186        7.3059  -10.4224  -49.2219 H         1 UNK         0.0600 
    187 H187        7.5621  -11.5107  -47.8626 H         1 UNK         0.0600 
    188 H188        7.3764  -12.1568  -49.4927 H         1 UNK         0.0600 
    189 H189        5.9055  -13.3107  -47.5918 H         1 UNK         0.3000 
    190 H190       -1.4532  -23.2219  -45.0509 H         1 UNK         0.3000 
    191 H191       -3.1068  -25.1162  -46.2429 H         1 UNK         0.0600 
    192 H192       -0.6644  -25.5589  -44.4614 H         1 UNK         0.0600 
    193 H193       -1.9561  -26.7194  -44.7400 H         1 UNK         0.0600 
    194 H194       -2.3008  -25.2135  -43.9033 H         1 UNK         0.0600 
    195 H195        0.2224  -24.3283  -47.1009 H         1 UNK         0.3000 
    196 H196        0.4184  -26.6749  -48.9399 H         1 UNK         0.0600 
    197 H197        2.8314  -26.0799  -49.0105 H         1 UNK         0.0600 
    198 H198        2.3066  -26.4043  -47.3654 H         1 UNK         0.0600 
    199 H199        2.5578  -24.7442  -47.8976 H         1 UNK         0.0600 
    200 H200        0.8922  -23.1047  -48.7850 H         1 UNK         0.3000 
    201 H201        1.5457  -22.7737  -51.5031 H         1 UNK         0.0600 
    202 H202        2.1926  -21.1740  -49.7312 H         1 UNK         0.0600 
    203 H203        0.5067  -20.7452  -49.4544 H         1 UNK         0.0600 
    204 H204        1.2794  -20.3395  -50.9807 H         1 UNK         0.0600 
    205 H205       -1.5781  -22.1568  -49.8231 H         1 UNK         0.3000 
    206 H206       -2.9242  -21.6282  -52.4254 H         1 UNK         0.0600 
    207 H207       -4.6537  -20.5948  -51.0724 H         1 UNK         0.0600 
    208 H208       -3.9301  -21.1885  -49.5801 H         1 UNK         0.0600 
    209 H209       -3.1096  -19.9622  -50.5374 H         1 UNK         0.0600 
    210 H210       -2.1989  -24.2470  -50.6270 H         1 UNK         0.3000 
    211 H211       -2.9683  -26.2648  -50.1429 H         1 UNK         0.0600 
    212 H212       -4.9377  -25.8468  -52.4480 H         1 UNK         0.0600 
    213 H213       -4.4983  -27.3901  -51.7317 H         1 UNK         0.0600 
    214 H214       -3.2914  -26.4506  -52.5946 H         1 UNK         0.0600 
    215 H215       -3.7988  -24.2954  -48.4885 H         1 UNK         0.3000 
    216 H216       -5.0554  -23.8610  -46.7264 H         1 UNK         0.0600 
    217 H217       -6.6038  -25.4860  -45.7604 H         1 UNK         0.0600 
    218 H218       -5.1868  -26.3454  -46.3418 H         1 UNK         0.0600 
    219 H219       -6.6901  -26.3965  -47.2581 H         1 UNK         0.0600 
    220 H220       -5.4437  -22.3798  -48.7681 H         1 UNK         0.3000 
    221 H221       -6.6764  -20.7991  -49.6908 H         1 UNK         0.0600 
    222 H222       -8.7298  -21.3497  -47.4899 H         1 UNK         0.0600 
    223 H223       -7.3052  -20.3228  -47.3287 H         1 UNK         0.0600 
    224 H224       -8.5866  -19.8802  -48.4438 H         1 UNK         0.0600 
    225 H225       -6.7636  -23.1060  -51.0966 H         1 UNK         0.3000 
    226 H226       -9.5242  -23.6010  -52.0216 H         1 UNK         0.0600 
    227 H227       -7.8444  -25.4762  -51.7135 H         1 UNK         0.0600 
    228 H228       -8.4733  -25.3648  -53.3500 H         1 UNK         0.0600 
    229 H229       -6.8648  -24.7557  -52.9921 H         1 UNK         0.0600 
    230 H230       -7.5385  -21.1089  -52.4369 H         1 UNK         0.3000 
    231 H231       -7.2523  -19.4365  -53.8392 H         1 UNK         0.0600 
    232 H232       -9.7306  -19.5753  -54.2148 H         1 UNK         0.0600 
    233 H233       -9.4494  -20.5919  -55.6283 H         1 UNK         0.0600 
    234 H234       -8.8660  -18.9358  -55.6019 H         1 UNK         0.0600 
    235 H235       -5.6415  -21.8478  -54.0905 H         1 UNK         0.3000 
    236 H236       -4.7784  -22.0495  -56.8492 H         1 UNK         0.0600 
    237 H237       -2.9331  -23.3747  -55.9120 H         1 UNK         0.0600 
    238 H238       -3.3197  -22.8578  -54.2822 H         1 UNK         0.0600 
    239 H239       -4.4438  -23.8817  -55.1718 H         1 UNK         0.0600 
    240 H240       -4.3137  -19.6821  -54.3949 H         1 UNK         0.3000 
    241 H241       -2.8263  -18.0536  -56.1944 H         1 UNK         0.0600 
    242 H242       -4.1058  -15.2330  -54.3351 H         1 UNK         0.3800 
    243 H243       -2.6952  -15.6826  -55.2473 H         1 UNK         0.3800 
    244 H244       -1.0243  -17.3471  -54.6293 H         1 UNK         0.0800 
    245 H245       -0.8675  -19.0055  -55.1054 H         1 UNK         0.0800 
    246 H246       -0.4232  -16.7200  -52.2911 H         1 UNK         0.0800 
    247 H247       -2.1609  -16.6779  -52.0917 H         1 UNK         0.0800 
@<TRIPOS>BOND
     1    1    2 1    
     2    1  127 1    
     3    1  128 1    
     4    1  129 1    
     5    2    3 2    
     6    2    4 am   BACKBONE|DICT|INTERRES
     7    4    5 1    
     8    4  130 1    
     9    5    6 1    
    10    5   65 1    
    11    5  131 1    
    12    6    7 1    
    13    6  132 1    
    14    6  133 1    
    15    7    8 1    
    16    8    9 1    
    17    8  134 1    
    18    8  135 1    
    19    9   10 ar   
    20    9   14 ar   
    21   10   11 ar   
    22   10  136 1    
    23   11   12 ar   
    24   11  126 1    
    25   12   13 ar   
    26   12  137 1    
    27   13   14 ar   
    28   13   15 1    
    29   14  138 1    
    30   15   16 1    
    31   15  139 1    
    32   15  140 1    
    33   16   17 1    
    34   17   18 1    
    35   17  141 1    
    36   17  142 1    
    37   18   19 1    
    38   18   67 1    
    39   18  143 1    
    40   19   20 am   BACKBONE|DICT|INTERRES
    41   19  144 1    
    42   20   21 2    
    43   20   22 1    
    44   22   23 1    
    45   22   24 1    
    46   22  145 1    
    47   23  146 1    
    48   23  147 1    
    49   23  148 1    
    50   24   25 am   BACKBONE|DICT|INTERRES
    51   24  149 1    
    52   25   26 2    
    53   25   27 1    
    54   27   28 1    
    55   27   29 1    
    56   27  150 1    
    57   28  151 1    
    58   28  152 1    
    59   28  153 1    
    60   29   30 am   BACKBONE|DICT|INTERRES
    61   29  154 1    
    62   30   31 2    
    63   30   32 1    
    64   32   33 1    
    65   32   34 1    
    66   32  155 1    
    67   33  156 1    
    68   33  157 1    
    69   33  158 1    
    70   34   35 am   BACKBONE|DICT|INTERRES
    71   34  159 1    
    72   35   36 2    
    73   35   37 1    
    74   37   38 1    
    75   37   39 1    
    76   37  160 1    
    77   38  161 1    
    78   38  162 1    
    79   38  163 1    
    80   39   40 am   BACKBONE|DICT|INTERRES
    81   39  164 1    
    82   40   41 2    
    83   40   42 1    
    84   42   43 1    
    85   42   44 1    
    86   42  165 1    
    87   43  166 1    
    88   43  167 1    
    89   43  168 1    
    90   44   45 am   BACKBONE|DICT|INTERRES
    91   44  169 1    
    92   45   46 2    
    93   45   47 1    
    94   47   48 1    
    95   47   49 1    
    96   47  170 1    
    97   48  171 1    
    98   48  172 1    
    99   48  173 1    
   100   49   50 am   BACKBONE|DICT|INTERRES
   101   49  174 1    
   102   50   51 2    
   103   50   52 1    
   104   52   53 1    
   105   52   54 1    
   106   52  175 1    
   107   53  176 1    
   108   53  177 1    
   109   53  178 1    
   110   54   55 am   BACKBONE|DICT|INTERRES
   111   54  179 1    
   112   55   56 2    
   113   55   57 1    
   114   57   58 1    
   115   57   59 1    
   116   57  180 1    
   117   58  181 1    
   118   58  182 1    
   119   58  183 1    
   120   59   60 am   BACKBONE|DICT|INTERRES
   121   59  184 1    
   122   60   61 2    
   123   60   62 1    
   124   62   63 1    
   125   62   64 1    
   126   62  185 1    
   127   63  186 1    
   128   63  187 1    
   129   63  188 1    
   130   64   65 am   BACKBONE|DICT|INTERRES
   131   64  189 1    
   132   65   66 2    
   133   67   68 2    
   134   67   69 am   BACKBONE|DICT|INTERRES
   135   69   70 1    
   136   69  190 1    
   137   70   71 1    
   138   70   72 1    
   139   70  191 1    
   140   71  192 1    
   141   71  193 1    
   142   71  194 1    
   143   72   73 2    
   144   72   74 am   BACKBONE|DICT|INTERRES
   145   74   75 1    
   146   74  195 1    
   147   75   76 1    
   148   75   77 1    
   149   75  196 1    
   150   76  197 1    
   151   76  198 1    
   152   76  199 1    
   153   77   78 2    
   154   77   79 am   BACKBONE|DICT|INTERRES
   155   79   80 1    
   156   79  200 1    
   157   80   81 1    
   158   80   82 1    
   159   80  201 1    
   160   81  202 1    
   161   81  203 1    
   162   81  204 1    
   163   82   83 2    
   164   82   84 am   BACKBONE|DICT|INTERRES
   165   84   85 1    
   166   84  205 1    
   167   85   86 1    
   168   85   87 1    
   169   85  206 1    
   170   86  207 1    
   171   86  208 1    
   172   86  209 1    
   173   87   88 2    
   174   87   89 am   BACKBONE|DICT|INTERRES
   175   89   90 1    
   176   89  210 1    
   177   90   91 1    
   178   90   92 1    
   179   90  211 1    
   180   91  212 1    
   181   91  213 1    
   182   91  214 1    
   183   92   93 2    
   184   92   94 am   BACKBONE|DICT|INTERRES
   185   94   95 1    
   186   94  215 1    
   187   95   96 1    
   188   95   97 1    
   189   95  216 1    
   190   96  217 1    
   191   96  218 1    
   192   96  219 1    
   193   97   98 2    
   194   97   99 am   BACKBONE|DICT|INTERRES
   195   99  100 1    
   196   99  220 1    
   197  100  101 1    
   198  100  102 1    
   199  100  221 1    
   200  101  222 1    
   201  101  223 1    
   202  101  224 1    
   203  102  103 2    
   204  102  104 am   BACKBONE|DICT|INTERRES
   205  104  105 1    
   206  104  225 1    
   207  105  106 1    
   208  105  107 1    
   209  105  226 1    
   210  106  227 1    
   211  106  228 1    
   212  106  229 1    
   213  107  108 2    
   214  107  109 am   BACKBONE|DICT|INTERRES
   215  109  110 1    
   216  109  230 1    
   217  110  111 1    
   218  110  112 1    
   219  110  231 1    
   220  111  232 1    
   221  111  233 1    
   222  111  234 1    
   223  112  113 2    
   224  112  114 am   BACKBONE|DICT|INTERRES
   225  114  115 1    
   226  114  235 1    
   227  115  116 1    
   228  115  117 1    
   229  115  236 1    
   230  116  237 1    
   231  116  238 1    
   232  116  239 1    
   233  117  118 2    
   234  117  119 am   BACKBONE|DICT|INTERRES
   235  119  120 1    
   236  119  240 1    
   237  120  121 1    
   238  120  124 1    
   239  120  241 1    
   240  121  122 am   BACKBONE|DICT|INTERRES
   241  121  123 2    
   242  122  242 1    
   243  122  243 1    
   244  124  125 1    
   245  124  244 1    
   246  124  245 1    
   247  125  126 1    
   248  126  246 1    
   249  126  247 1    
@<TRIPOS>SUBSTRUCTURE
     1 UNK         1 GROUP             0       ****    0 ROOT    
