@<TRIPOS>MOLECULE
3R540
247   249    1
SMALL
USER_CHARGES


@<TRIPOS>ATOM
      1 CA         -5.8404  -15.6396  -47.6290 C.3       0 UNK        -0.1800 
      2 C          -4.3645  -15.8225  -47.3147 C.2       0 UNK         0.5000 
      3 O          -3.8754  -16.9492  -47.2895 O.2       0 UNK        -0.5000 
      4 N          -3.6635  -14.7098  -47.0594 N.am      1 UNK        -0.5000 
      5 CA         -2.2513  -14.6366  -46.6516 C.3       1 UNK         0.1400 
      6 C6         -1.2839  -15.4110  -47.5952 C.3       23 UNK        -0.0398 
      7 S7          0.3160  -14.5599  -47.8194 S.3       23 UNK        -0.2404 
      8 C8          0.4492  -14.4866  -49.6414 C.3       23 UNK        -0.0205 
      9 C9          0.6316  -15.8293  -50.3558 C.ar      23 UNK        -0.0193 
     10 C10         0.4183  -15.8828  -51.7384 C.ar      23 UNK        -0.1150 
     11 C11         0.5866  -17.0762  -52.4483 C.ar      23 UNK        -0.0193 
     12 C12         0.9794  -18.2269  -51.7592 C.ar      23 UNK        -0.1150 
     13 C13         1.1930  -18.1968  -50.3806 C.ar      23 UNK        -0.0193 
     14 C14         1.0228  -16.9972  -49.6865 C.ar      23 UNK        -0.1150 
     15 C15         1.6147  -19.4602  -49.6441 C.3       23 UNK        -0.0205 
     16 S16         0.3330  -20.7513  -49.6964 S.3       23 UNK        -0.2404 
     17 C17        -1.0580  -19.9544  -48.8254 C.3       23 UNK        -0.0398 
     18 CA         -1.7041  -20.9169  -47.8057 C.3       11 UNK         0.1400 
     19 N          -0.9155  -21.0507  -46.5786 N.am      11 UNK        -0.5000 
     20 C          -1.0891  -22.0267  -45.6743 C.2       10 UNK         0.5000 
     21 O          -1.9110  -22.9329  -45.8106 O.2       10 UNK        -0.5000 
     22 CA         -0.2537  -21.9592  -44.3800 C.3       10 UNK         0.1400 
     23 CB          0.9561  -22.8989  -44.4780 C.3       10 UNK        -0.1800 
     24 N           0.2005  -20.6066  -44.0446 N.am      10 UNK        -0.5000 
     25 C          -0.6169  -19.5768  -43.7713 C.2       9 UNK         0.5000 
     26 O          -1.8420  -19.6859  -43.7206 O.2       9 UNK        -0.5000 
     27 CA          0.0126  -18.1841  -43.5704 C.3       9 UNK         0.1400 
     28 CB          0.0815  -17.8354  -42.0762 C.3       9 UNK        -0.1800 
     29 N           1.3379  -18.0120  -44.1684 N.am      9 UNK        -0.5000 
     30 C           1.6426  -18.1855  -45.4615 C.2       8 UNK         0.5000 
     31 O           0.8120  -18.4773  -46.3221 O.2       8 UNK        -0.5000 
     32 CA          3.1356  -18.1084  -45.8428 C.3       8 UNK         0.1400 
     33 CB          3.5236  -16.6952  -46.2963 C.3       8 UNK        -0.1800 
     34 N           4.0559  -18.5396  -44.7841 N.am      8 UNK        -0.5000 
     35 C           4.0663  -19.7412  -44.1920 C.2       7 UNK         0.5000 
     36 O           3.2526  -20.6271  -44.4514 O.2       7 UNK        -0.5000 
     37 CA          5.1297  -20.0051  -43.1062 C.3       7 UNK         0.1400 
     38 CB          6.3828  -20.6698  -43.7072 C.3       7 UNK        -0.1800 
     39 N           5.4764  -18.8410  -42.2767 N.am      7 UNK        -0.5000 
     40 C           6.1470  -17.7293  -42.6110 C.2       6 UNK         0.5000 
     41 O           6.5718  -17.4941  -43.7429 O.2       6 UNK        -0.5000 
     42 CA          6.2627  -16.6761  -41.4994 C.3       6 UNK         0.1400 
     43 CB          7.1014  -15.4480  -41.8996 C.3       6 UNK        -0.1800 
     44 N           4.9072  -16.2594  -41.1731 N.am      6 UNK        -0.5000 
     45 C           4.4229  -15.9192  -39.9785 C.2       5 UNK         0.5000 
     46 O           5.1070  -15.8742  -38.9545 O.2       5 UNK        -0.5000 
     47 CA          2.9139  -15.5769  -39.9399 C.3       5 UNK         0.1400 
     48 CB          2.4455  -15.1046  -38.5523 C.3       5 UNK        -0.1800 
     49 N           2.5126  -14.5735  -40.9320 N.am      5 UNK        -0.5000 
     50 C           2.4468  -14.7330  -42.2599 C.2       4 UNK         0.5000 
     51 O           2.7427  -15.7851  -42.8326 O.2       4 UNK        -0.5000 
     52 CA          1.9501  -13.5148  -43.0593 C.3       4 UNK         0.1400 
     53 CB          2.1582  -13.6686  -44.5749 C.3       4 UNK        -0.1800 
     54 N           0.5333  -13.2734  -42.7931 N.am      4 UNK        -0.5000 
     55 C           0.0578  -12.5879  -41.7431 C.2       3 UNK         0.5000 
     56 O           0.7838  -12.0914  -40.8798 O.2       3 UNK        -0.5000 
     57 CA         -1.4704  -12.4161  -41.6251 C.3       3 UNK         0.1400 
     58 CB         -1.8885  -11.0167  -42.1021 C.3       3 UNK        -0.1800 
     59 N          -2.2320  -13.4146  -42.3749 N.am      3 UNK        -0.5000 
     60 C          -2.3657  -14.6993  -42.0206 C.2       2 UNK         0.5000 
     61 O          -1.9051  -15.1716  -40.9814 O.2       2 UNK        -0.5000 
     62 CA         -3.1391  -15.6143  -42.9929 C.3       2 UNK         0.1400 
     63 CB         -4.5990  -15.7521  -42.5335 C.3       2 UNK        -0.1800 
     64 N          -3.1252  -15.1851  -44.3977 N.am      2 UNK        -0.5000 
     65 C          -2.0361  -14.9898  -45.1589 C.2       1 UNK         0.5000 
     66 O          -0.8941  -15.0402  -44.7071 O.2       1 UNK        -0.5000 
     67 C          -3.1812  -20.5485  -47.5482 C.2       11 UNK         0.5000 
     68 O          -4.0029  -20.7680  -48.4400 O.2       11 UNK        -0.5000 
     69 N          -3.5264  -20.0652  -46.3448 N.am      12 UNK        -0.5000 
     70 CA         -4.9133  -19.8231  -45.9407 C.3       12 UNK         0.1400 
     71 CB         -4.9398  -19.0573  -44.6114 C.3       12 UNK        -0.1800 
     72 C          -5.7201  -21.1319  -45.8424 C.2       12 UNK         0.5000 
     73 O          -6.8789  -21.1657  -46.2574 O.2       12 UNK        -0.5000 
     74 N          -5.0660  -22.2024  -45.3658 N.am      13 UNK        -0.5000 
     75 CA         -5.6082  -23.5626  -45.3183 C.3       13 UNK         0.1400 
     76 CB         -4.7671  -24.4090  -44.3508 C.3       13 UNK        -0.1800 
     77 C          -5.6784  -24.2288  -46.7077 C.2       13 UNK         0.5000 
     78 O          -6.4553  -25.1659  -46.8890 O.2       13 UNK        -0.5000 
     79 N          -4.9065  -23.7099  -47.6730 N.am      14 UNK        -0.5000 
     80 CA         -4.9202  -24.0987  -49.0848 C.3       14 UNK         0.1400 
     81 CB         -3.4938  -23.9883  -49.6540 C.3       14 UNK        -0.1800 
     82 C          -5.9287  -23.2645  -49.9046 C.2       14 UNK         0.5000 
     83 O          -5.7452  -23.1132  -51.1136 O.2       14 UNK        -0.5000 
     84 N          -6.9658  -22.7341  -49.2380 N.am      15 UNK        -0.5000 
     85 CA         -8.0673  -21.9389  -49.7862 C.3       15 UNK         0.1400 
     86 CB         -8.9414  -22.7985  -50.7243 C.3       15 UNK        -0.1800 
     87 C          -7.5774  -20.6320  -50.4382 C.2       15 UNK         0.5000 
     88 O          -7.9129  -20.3500  -51.5884 O.2       15 UNK        -0.5000 
     89 N          -6.7641  -19.8734  -49.6883 N.am      16 UNK        -0.5000 
     90 CA         -6.1057  -18.6265  -50.1001 C.3       16 UNK         0.1400 
     91 CB         -7.1422  -17.5134  -50.3653 C.3       16 UNK        -0.1800 
     92 C          -5.1424  -18.8537  -51.2831 C.2       16 UNK         0.5000 
     93 O          -5.1897  -18.1328  -52.2808 O.2       16 UNK        -0.5000 
     94 N          -4.3080  -19.8918  -51.1390 N.am      17 UNK        -0.5000 
     95 CA         -3.3023  -20.3938  -52.0800 C.3       17 UNK         0.1400 
     96 CB         -2.2847  -19.2965  -52.4498 C.3       17 UNK        -0.1800 
     97 C          -3.8673  -21.0547  -53.3528 C.2       17 UNK         0.5000 
     98 O          -3.0711  -21.4502  -54.2046 O.2       17 UNK        -0.5000 
     99 N          -5.1951  -21.1876  -53.4797 N.am      18 UNK        -0.5000 
    100 CA        -5.8608  -21.7380  -54.6623 C.3       18 UNK         0.1400 
    101 CB        -7.3742  -21.5031  -54.5650 C.3       18 UNK        -0.1800 
    102 C         -5.5606  -23.2287  -54.8936 C.2       18 UNK         0.5000 
    103 O         -5.3521  -23.6305  -56.0387 O.2       18 UNK        -0.5000 
    104 N         -5.5103  -24.0151  -53.8094 N.am      19 UNK        -0.5000 
    105 CA        -5.1688  -25.4392  -53.8513 C.3       19 UNK         0.1400 
    106 CB        -5.6932  -26.1287  -52.5827 C.3       19 UNK        -0.1800 
    107 C         -3.6545  -25.6717  -54.0110 C.2       19 UNK         0.5000 
    108 O         -3.2516  -26.7024  -54.5509 O.2       19 UNK        -0.5000 
    109 N         -2.8467  -24.7079  -53.5483 N.am      20 UNK        -0.5000 
    110 CA        -1.3885  -24.7111  -53.6720 C.3       20 UNK         0.1400 
    111 CB        -0.7957  -23.8232  -52.5644 C.3       20 UNK        -0.1800 
    112 C         -0.9052  -24.2263  -55.0523 C.2       20 UNK         0.5000 
    113 O          0.2421  -24.4902  -55.4133 O.2       20 UNK        -0.5000 
    114 N         -1.7581  -23.4750  -55.7668 N.am      21 UNK        -0.5000 
    115 CA        -1.4951  -22.7612  -57.0237 C.3       21 UNK         0.1400 
    116 CB        -1.2898  -23.7594  -58.1812 C.3       21 UNK        -0.1800 
    117 C         -0.3440  -21.7355  -56.9014 C.2       21 UNK         0.5000 
    118 O          0.3649  -21.4780  -57.8757 O.2       21 UNK        -0.5000 
    119 N         -0.1634  -21.1968  -55.6872 N.am      22 UNK        -0.5000 
    120 CA         0.9881  -20.3885  -55.2536 C.3       22 UNK         0.1400 
    121 C          2.3574  -21.1465  -55.2501 C.2       22 UNK         0.5000 
    122 N          2.3886  -22.4741  -55.2929 N.am      22 UNK        -0.7600 
    123 O          3.4180  -20.5326  -55.1812 O.2       22 UNK        -0.5000 
    124 C124        1.0359  -18.9978  -55.9528 C.3       23 UNK        -0.0398 
    125 S125        1.7569  -17.6831  -54.9035 S.3       23 UNK        -0.2404 
    126 C126        0.3069  -17.1316  -53.9465 C.3       23 UNK        -0.0205 
    127 H127       -5.9685  -15.3499  -48.6708 H         1 UNK         0.0600 
    128 H128       -6.2815  -14.8658  -47.0006 H         1 UNK         0.0600 
    129 H129       -6.3876  -16.5662  -47.4549 H         1 UNK         0.0600 
    130 H130       -4.1355  -13.8173  -47.1158 H         1 UNK         0.3000 
    131 H131       -2.0124  -13.5747  -46.7279 H         1 UNK         0.0600 
    132 H132       -1.7394  -15.5306  -48.5788 H         1 UNK         0.0800 
    133 H133       -1.1009  -16.4264  -47.2372 H         1 UNK         0.0800 
    134 H134        1.3008  -13.8529  -49.8916 H         1 UNK         0.0800 
    135 H135       -0.4349  -13.9804  -50.0321 H         1 UNK         0.0800 
    136 H136        0.1149  -14.9881  -52.2641 H         1 UNK         0.1150 
    137 H137        1.1117  -19.1566  -52.2899 H         1 UNK         0.1150 
    138 H138        1.1978  -16.9868  -48.6215 H         1 UNK         0.1150 
    139 H139        2.5252  -19.8495  -50.1012 H         1 UNK         0.0800 
    140 H140        1.8626  -19.2456  -48.6055 H         1 UNK         0.0800 
    141 H141       -1.7751  -19.6555  -49.5875 H         1 UNK         0.0800 
    142 H142       -0.7399  -19.0306  -48.3415 H         1 UNK         0.0800 
    143 H143       -1.7374  -21.9068  -48.2644 H         1 UNK         0.0600 
    144 H144       -0.2356  -20.3198  -46.3976 H         1 UNK         0.3000 
    145 H145       -0.8894  -22.3061  -43.5629 H         1 UNK         0.0600 
    146 H146        1.5414  -22.8892  -43.5584 H         1 UNK         0.0600 
    147 H147        0.6379  -23.9278  -44.6507 H         1 UNK         0.0600 
    148 H148        1.6159  -22.6183  -45.2999 H         1 UNK         0.0600 
    149 H149        1.1998  -20.4410  -44.1025 H         1 UNK         0.3000 
    150 H150       -0.6566  -17.4776  -44.0585 H         1 UNK         0.0600 
    151 H151       -0.8782  -18.0046  -41.5859 H         1 UNK         0.0600 
    152 H152        0.3290  -16.7847  -41.9305 H         1 UNK         0.0600 
    153 H153        0.8286  -18.4358  -41.5562 H         1 UNK         0.0600 
    154 H154        2.0696  -17.6763  -43.5545 H         1 UNK         0.3000 
    155 H155        3.2797  -18.7838  -46.6878 H         1 UNK         0.0600 
    156 H156        3.5654  -16.0086  -45.4526 H         1 UNK         0.0600 
    157 H157        2.8088  -16.2945  -47.0153 H         1 UNK         0.0600 
    158 H158        4.5030  -16.6921  -46.7745 H         1 UNK         0.0600 
    159 H159        4.7929  -17.8922  -44.5262 H         1 UNK         0.3000 
    160 H160        4.6846  -20.7250  -42.4174 H         1 UNK         0.0600 
    161 H161        6.8723  -20.0316  -44.4433 H         1 UNK         0.0600 
    162 H162        6.1226  -21.6018  -44.2105 H         1 UNK         0.0600 
    163 H163        7.1114  -20.9113  -42.9334 H         1 UNK         0.0600 
    164 H164        5.1269  -18.8882  -41.3295 H         1 UNK         0.3000 
    165 H165        6.7273  -17.1556  -40.6353 H         1 UNK         0.0600 
    166 H166        6.6659  -14.9234  -42.7511 H         1 UNK         0.0600 
    167 H167        7.1782  -14.7394  -41.0749 H         1 UNK         0.0600 
    168 H168        8.1156  -15.7404  -42.1736 H         1 UNK         0.0600 
    169 H169        4.2493  -16.2496  -41.9512 H         1 UNK         0.3000 
    170 H170        2.3799  -16.5015  -40.1680 H         1 UNK         0.0600 
    171 H171        2.9349  -14.1752  -38.2584 H         1 UNK         0.0600 
    172 H172        1.3684  -14.9358  -38.5371 H         1 UNK         0.0600 
    173 H173        2.6653  -15.8505  -37.7873 H         1 UNK         0.0600 
    174 H174        2.2223  -13.6758  -40.5628 H         1 UNK         0.3000 
    175 H175        2.5313  -12.6476  -42.7388 H         1 UNK         0.0600 
    176 H176        1.6647  -14.5593  -44.9644 H         1 UNK         0.0600 
    177 H177        1.7672  -12.8084  -45.1182 H         1 UNK         0.0600 
    178 H178        3.2191  -13.7471  -44.8132 H         1 UNK         0.0600 
    179 H179       -0.1162  -13.7326  -43.4245 H         1 UNK         0.3000 
    180 H180       -1.7292  -12.5072  -40.5680 H         1 UNK         0.0600 
    181 H181       -2.9566  -10.8530  -41.9580 H         1 UNK         0.0600 
    182 H182       -1.6644  -10.8683  -43.1593 H         1 UNK         0.0600 
    183 H183       -1.3643  -10.2402  -41.5434 H         1 UNK         0.0600 
    184 H184       -2.6459  -13.1133  -43.2444 H         1 UNK         0.3000 
    185 H185       -2.6747  -16.6010  -42.9498 H         1 UNK         0.0600 
    186 H186       -4.6528  -16.1225  -41.5089 H         1 UNK         0.0600 
    187 H187       -5.1207  -14.7946  -42.5638 H         1 UNK         0.0600 
    188 H188       -5.1517  -16.4528  -43.1581 H         1 UNK         0.0600 
    189 H189       -4.0251  -15.1008  -44.8463 H         1 UNK         0.3000 
    190 H190       -2.8140  -19.9102  -45.6414 H         1 UNK         0.3000 
    191 H191       -5.3818  -19.1957  -46.7017 H         1 UNK         0.0600 
    192 H192       -5.9583  -18.7709  -44.3469 H         1 UNK         0.0600 
    193 H193       -4.3482  -18.1442  -44.6774 H         1 UNK         0.0600 
    194 H194       -4.5424  -19.6552  -43.7906 H         1 UNK         0.0600 
    195 H195       -4.0989  -22.0966  -45.0909 H         1 UNK         0.3000 
    196 H196       -6.6263  -23.5116  -44.9267 H         1 UNK         0.0600 
    197 H197       -3.7406  -24.5225  -44.6999 H         1 UNK         0.0600 
    198 H198       -4.7372  -23.9615  -43.3572 H         1 UNK         0.0600 
    199 H199       -5.1873  -25.4098  -44.2434 H         1 UNK         0.0600 
    200 H200       -4.3267  -22.9167  -47.4395 H         1 UNK         0.3000 
    201 H201       -5.2287  -25.1427  -49.1654 H         1 UNK         0.0600 
    202 H202       -3.1840  -22.9510  -49.7714 H         1 UNK         0.0600 
    203 H203       -3.4300  -24.4555  -50.6364 H         1 UNK         0.0600 
    204 H204       -2.7679  -24.4880  -49.0122 H         1 UNK         0.0600 
    205 H205       -7.0005  -22.8868  -48.2401 H         1 UNK         0.3000 
    206 H206       -8.6874  -21.6433  -48.9387 H         1 UNK         0.0600 
    207 H207       -9.3121  -23.6859  -50.2116 H         1 UNK         0.0600 
    208 H208       -9.8102  -22.2380  -51.0714 H         1 UNK         0.0600 
    209 H209       -8.3922  -23.1285  -51.6062 H         1 UNK         0.0600 
    210 H210       -6.4998  -20.2280  -48.7792 H         1 UNK         0.3000 
    211 H211       -5.4867  -18.3103  -49.2593 H         1 UNK         0.0600 
    212 H212       -6.6489  -16.5679  -50.5912 H         1 UNK         0.0600 
    213 H213       -7.7786  -17.3512  -49.4956 H         1 UNK         0.0600 
    214 H214       -7.7871  -17.7465  -51.2126 H         1 UNK         0.0600 
    215 H215       -4.3604  -20.3965  -50.2573 H         1 UNK         0.3000 
    216 H216       -2.7657  -21.1756  -51.5414 H         1 UNK         0.0600 
    217 H217       -2.6966  -18.5953  -53.1762 H         1 UNK         0.0600 
    218 H218       -1.3920  -19.7375  -52.8932 H         1 UNK         0.0600 
    219 H219       -1.9661  -18.7170  -51.5853 H         1 UNK         0.0600 
    220 H220       -5.7914  -20.8749  -52.7250 H         1 UNK         0.3000 
    221 H221       -5.4918  -21.1893  -55.5314 H         1 UNK         0.0600 
    222 H222       -7.6030  -20.4439  -54.4457 H         1 UNK         0.0600 
    223 H223       -7.8093  -22.0376  -53.7204 H         1 UNK         0.0600 
    224 H224       -7.8819  -21.8469  -55.4670 H         1 UNK         0.0600 
    225 H225       -5.6759  -23.6071  -52.8903 H         1 UNK         0.3000 
    226 H226       -5.6681  -25.8928  -54.7102 H         1 UNK         0.0600 
    227 H227       -5.1847  -25.7706  -51.6887 H         1 UNK         0.0600 
    228 H228       -6.7620  -25.9580  -52.4523 H         1 UNK         0.0600 
    229 H229       -5.5388  -27.2071  -52.6351 H         1 UNK         0.0600 
    230 H230       -3.2702  -23.8887  -53.1391 H         1 UNK         0.3000 
    231 H231       -1.0188  -25.7287  -53.5290 H         1 UNK         0.0600 
    232 H232       -1.1276  -22.7884  -52.6513 H         1 UNK         0.0600 
    233 H233        0.2943  -23.8192  -52.6079 H         1 UNK         0.0600 
    234 H234       -1.0760  -24.1839  -51.5749 H         1 UNK         0.0600 
    235 H235       -2.6430  -23.2464  -55.3317 H         1 UNK         0.3000 
    236 H236       -2.3951  -22.1831  -57.2381 H         1 UNK         0.0600 
    237 H237       -2.1178  -24.4658  -58.2422 H         1 UNK         0.0600 
    238 H238       -1.2348  -23.2422  -59.1397 H         1 UNK         0.0600 
    239 H239       -0.3686  -24.3311  -58.0647 H         1 UNK         0.0600 
    240 H240       -0.8324  -21.4416  -54.9689 H         1 UNK         0.3000 
    241 H241        0.7813  -20.2152  -54.1998 H         1 UNK         0.0600 
    242 H242        3.2824  -22.9389  -55.2814 H         1 UNK         0.3800 
    243 H243        1.5436  -23.0317  -55.3624 H         1 UNK         0.3800 
    244 H244        1.6012  -19.0569  -56.8842 H         1 UNK         0.0800 
    245 H245        0.0332  -18.6818  -56.2438 H         1 UNK         0.0800 
    246 H246       -0.0016  -16.1540  -54.3198 H         1 UNK         0.0800 
    247 H247       -0.5357  -17.7998  -54.1191 H         1 UNK         0.0800 
@<TRIPOS>BOND
     1    1    2 1    
     2    1  127 1    
     3    1  128 1    
     4    1  129 1    
     5    2    3 2    
     6    2    4 am   BACKBONE|DICT|INTERRES
     7    4    5 1    
     8    4  130 1    
     9    5    6 1    
    10    5   65 1    
    11    5  131 1    
    12    6    7 1    
    13    6  132 1    
    14    6  133 1    
    15    7    8 1    
    16    8    9 1    
    17    8  134 1    
    18    8  135 1    
    19    9   10 ar   
    20    9   14 ar   
    21   10   11 ar   
    22   10  136 1    
    23   11   12 ar   
    24   11  126 1    
    25   12   13 ar   
    26   12  137 1    
    27   13   14 ar   
    28   13   15 1    
    29   14  138 1    
    30   15   16 1    
    31   15  139 1    
    32   15  140 1    
    33   16   17 1    
    34   17   18 1    
    35   17  141 1    
    36   17  142 1    
    37   18   19 1    
    38   18   67 1    
    39   18  143 1    
    40   19   20 am   BACKBONE|DICT|INTERRES
    41   19  144 1    
    42   20   21 2    
    43   20   22 1    
    44   22   23 1    
    45   22   24 1    
    46   22  145 1    
    47   23  146 1    
    48   23  147 1    
    49   23  148 1    
    50   24   25 am   BACKBONE|DICT|INTERRES
    51   24  149 1    
    52   25   26 2    
    53   25   27 1    
    54   27   28 1    
    55   27   29 1    
    56   27  150 1    
    57   28  151 1    
    58   28  152 1    
    59   28  153 1    
    60   29   30 am   BACKBONE|DICT|INTERRES
    61   29  154 1    
    62   30   31 2    
    63   30   32 1    
    64   32   33 1    
    65   32   34 1    
    66   32  155 1    
    67   33  156 1    
    68   33  157 1    
    69   33  158 1    
    70   34   35 am   BACKBONE|DICT|INTERRES
    71   34  159 1    
    72   35   36 2    
    73   35   37 1    
    74   37   38 1    
    75   37   39 1    
    76   37  160 1    
    77   38  161 1    
    78   38  162 1    
    79   38  163 1    
    80   39   40 am   BACKBONE|DICT|INTERRES
    81   39  164 1    
    82   40   41 2    
    83   40   42 1    
    84   42   43 1    
    85   42   44 1    
    86   42  165 1    
    87   43  166 1    
    88   43  167 1    
    89   43  168 1    
    90   44   45 am   BACKBONE|DICT|INTERRES
    91   44  169 1    
    92   45   46 2    
    93   45   47 1    
    94   47   48 1    
    95   47   49 1    
    96   47  170 1    
    97   48  171 1    
    98   48  172 1    
    99   48  173 1    
   100   49   50 am   BACKBONE|DICT|INTERRES
   101   49  174 1    
   102   50   51 2    
   103   50   52 1    
   104   52   53 1    
   105   52   54 1    
   106   52  175 1    
   107   53  176 1    
   108   53  177 1    
   109   53  178 1    
   110   54   55 am   BACKBONE|DICT|INTERRES
   111   54  179 1    
   112   55   56 2    
   113   55   57 1    
   114   57   58 1    
   115   57   59 1    
   116   57  180 1    
   117   58  181 1    
   118   58  182 1    
   119   58  183 1    
   120   59   60 am   BACKBONE|DICT|INTERRES
   121   59  184 1    
   122   60   61 2    
   123   60   62 1    
   124   62   63 1    
   125   62   64 1    
   126   62  185 1    
   127   63  186 1    
   128   63  187 1    
   129   63  188 1    
   130   64   65 am   BACKBONE|DICT|INTERRES
   131   64  189 1    
   132   65   66 2    
   133   67   68 2    
   134   67   69 am   BACKBONE|DICT|INTERRES
   135   69   70 1    
   136   69  190 1    
   137   70   71 1    
   138   70   72 1    
   139   70  191 1    
   140   71  192 1    
   141   71  193 1    
   142   71  194 1    
   143   72   73 2    
   144   72   74 am   BACKBONE|DICT|INTERRES
   145   74   75 1    
   146   74  195 1    
   147   75   76 1    
   148   75   77 1    
   149   75  196 1    
   150   76  197 1    
   151   76  198 1    
   152   76  199 1    
   153   77   78 2    
   154   77   79 am   BACKBONE|DICT|INTERRES
   155   79   80 1    
   156   79  200 1    
   157   80   81 1    
   158   80   82 1    
   159   80  201 1    
   160   81  202 1    
   161   81  203 1    
   162   81  204 1    
   163   82   83 2    
   164   82   84 am   BACKBONE|DICT|INTERRES
   165   84   85 1    
   166   84  205 1    
   167   85   86 1    
   168   85   87 1    
   169   85  206 1    
   170   86  207 1    
   171   86  208 1    
   172   86  209 1    
   173   87   88 2    
   174   87   89 am   BACKBONE|DICT|INTERRES
   175   89   90 1    
   176   89  210 1    
   177   90   91 1    
   178   90   92 1    
   179   90  211 1    
   180   91  212 1    
   181   91  213 1    
   182   91  214 1    
   183   92   93 2    
   184   92   94 am   BACKBONE|DICT|INTERRES
   185   94   95 1    
   186   94  215 1    
   187   95   96 1    
   188   95   97 1    
   189   95  216 1    
   190   96  217 1    
   191   96  218 1    
   192   96  219 1    
   193   97   98 2    
   194   97   99 am   BACKBONE|DICT|INTERRES
   195   99  100 1    
   196   99  220 1    
   197  100  101 1    
   198  100  102 1    
   199  100  221 1    
   200  101  222 1    
   201  101  223 1    
   202  101  224 1    
   203  102  103 2    
   204  102  104 am   BACKBONE|DICT|INTERRES
   205  104  105 1    
   206  104  225 1    
   207  105  106 1    
   208  105  107 1    
   209  105  226 1    
   210  106  227 1    
   211  106  228 1    
   212  106  229 1    
   213  107  108 2    
   214  107  109 am   BACKBONE|DICT|INTERRES
   215  109  110 1    
   216  109  230 1    
   217  110  111 1    
   218  110  112 1    
   219  110  231 1    
   220  111  232 1    
   221  111  233 1    
   222  111  234 1    
   223  112  113 2    
   224  112  114 am   BACKBONE|DICT|INTERRES
   225  114  115 1    
   226  114  235 1    
   227  115  116 1    
   228  115  117 1    
   229  115  236 1    
   230  116  237 1    
   231  116  238 1    
   232  116  239 1    
   233  117  118 2    
   234  117  119 am   BACKBONE|DICT|INTERRES
   235  119  120 1    
   236  119  240 1    
   237  120  121 1    
   238  120  124 1    
   239  120  241 1    
   240  121  122 am   BACKBONE|DICT|INTERRES
   241  121  123 2    
   242  122  242 1    
   243  122  243 1    
   244  124  125 1    
   245  124  244 1    
   246  124  245 1    
   247  125  126 1    
   248  126  246 1    
   249  126  247 1    
@<TRIPOS>SUBSTRUCTURE
     1 UNK         1 GROUP             0       ****    0 ROOT    
