@<TRIPOS>MOLECULE
3R540
247   249    1
SMALL
USER_CHARGES


@<TRIPOS>ATOM
      1 CA          4.2899  -11.5099  -48.9090 C.3       0 UNK        -0.1800 
      2 C           3.3927  -12.1531  -47.8610 C.2       0 UNK         0.5000 
      3 O           3.8917  -12.6738  -46.8642 O.2       0 UNK        -0.5000 
      4 N           2.0730  -12.1219  -48.0860 N.am      1 UNK        -0.5000 
      5 CA          1.0567  -12.6810  -47.1833 C.3       1 UNK         0.1400 
      6 C6         -0.2913  -12.9294  -47.9059 C.3       23 UNK        -0.0398 
      7 S7         -0.1230  -14.0179  -49.3619 S.3       23 UNK        -0.2404 
      8 C8         -0.6882  -15.6018  -48.6751 C.3       23 UNK        -0.0205 
      9 C9         -0.4702  -16.7375  -49.6591 C.ar      23 UNK        -0.0193 
     10 C10        -1.3990  -16.9787  -50.6749 C.ar      23 UNK        -0.1150 
     11 C11        -1.1829  -18.0006  -51.6038 C.ar      23 UNK        -0.0193 
     12 C12        -0.0394  -18.7979  -51.4980 C.ar      23 UNK        -0.1150 
     13 C13         0.8895  -18.5732  -50.4776 C.ar      23 UNK        -0.0193 
     14 C14         0.6701  -17.5396  -49.5628 C.ar      23 UNK        -0.1150 
     15 C15         2.1430  -19.4297  -50.3801 C.3       23 UNK        -0.0205 
     16 S16         1.7857  -21.1059  -49.7705 S.3       23 UNK        -0.2404 
     17 C17         1.3019  -20.7735  -48.0423 C.3       23 UNK        -0.0398 
     18 CA          0.6110  -21.9905  -47.3856 C.3       11 UNK         0.1400 
     19 N           0.6387  -21.9138  -45.9237 N.am      11 UNK        -0.5000 
     20 C           0.3118  -22.9240  -45.1059 C.2       10 UNK         0.5000 
     21 O          -0.0201  -24.0415  -45.4997 O.2       10 UNK        -0.5000 
     22 CA          0.3101  -22.6265  -43.5964 C.3       10 UNK         0.1400 
     23 CB          1.7383  -22.6506  -43.0325 C.3       10 UNK        -0.1800 
     24 N          -0.3338  -21.3527  -43.2730 N.am      10 UNK        -0.5000 
     25 C          -1.6245  -21.0782  -43.5127 C.2       9 UNK         0.5000 
     26 O          -2.4148  -21.8834  -44.0031 O.2       9 UNK        -0.5000 
     27 CA         -2.1092  -19.6546  -43.1922 C.3       9 UNK         0.1400 
     28 CB         -2.3779  -19.4970  -41.6883 C.3       9 UNK        -0.1800 
     29 N          -1.1742  -18.6232  -43.6392 N.am      9 UNK        -0.5000 
     30 C          -0.8230  -18.4103  -44.9159 C.2       8 UNK         0.5000 
     31 O          -1.2669  -19.0493  -45.8696 O.2       8 UNK        -0.5000 
     32 CA          0.2528  -17.3395  -45.1620 C.3       8 UNK         0.1400 
     33 CB         -0.3275  -15.9280  -44.9848 C.3       8 UNK        -0.1800 
     34 N           1.4121  -17.5080  -44.2878 N.am      8 UNK        -0.5000 
     35 C           2.1904  -18.5994  -44.2509 C.2       7 UNK         0.5000 
     36 O           2.0546  -19.5668  -44.9995 O.2       7 UNK        -0.5000 
     37 CA          3.2687  -18.6367  -43.1565 C.3       7 UNK         0.1400 
     38 CB          4.5204  -17.8629  -43.5949 C.3       7 UNK        -0.1800 
     39 N           2.7716  -18.1026  -41.8882 N.am      7 UNK        -0.5000 
     40 C           1.8569  -18.7130  -41.1209 C.2       6 UNK         0.5000 
     41 O           1.3590  -19.8065  -41.3876 O.2       6 UNK        -0.5000 
     42 CA          1.3903  -17.9516  -39.8672 C.3       6 UNK         0.1400 
     43 CB          2.3988  -18.1187  -38.7209 C.3       6 UNK        -0.1800 
     44 N           1.1771  -16.5271  -40.1263 N.am      6 UNK        -0.5000 
     45 C           0.2157  -16.0426  -40.9246 C.2       5 UNK         0.5000 
     46 O          -0.6135  -16.7470  -41.4988 O.2       5 UNK        -0.5000 
     47 CA          0.2004  -14.5205  -41.1516 C.3       5 UNK         0.1400 
     48 CB         -0.6336  -13.8204  -40.0690 C.3       5 UNK        -0.1800 
     49 N           1.5323  -13.9154  -41.1987 N.am      5 UNK        -0.5000 
     50 C           2.4935  -14.2069  -42.0848 C.2       4 UNK         0.5000 
     51 O           2.3904  -15.1033  -42.9244 O.2       4 UNK        -0.5000 
     52 CA          3.7721  -13.3441  -42.0110 C.3       4 UNK         0.1400 
     53 CB          4.7821  -13.6845  -43.1205 C.3       4 UNK        -0.1800 
     54 N           3.4662  -11.9152  -42.0858 N.am      4 UNK        -0.5000 
     55 C           3.0042  -11.1443  -41.0952 C.2       3 UNK         0.5000 
     56 O           2.7969  -11.5646  -39.9560 O.2       3 UNK        -0.5000 
     57 CA          2.6693   -9.6778  -41.4350 C.3       3 UNK         0.1400 
     58 CB          3.9398   -8.8070  -41.4773 C.3       3 UNK        -0.1800 
     59 N           1.8511   -9.5105  -42.6465 N.am      3 UNK        -0.5000 
     60 C           2.1775   -9.7599  -43.9220 C.2       2 UNK         0.5000 
     61 O           3.2880  -10.1522  -44.2885 O.2       2 UNK        -0.5000 
     62 CA          1.0722   -9.5189  -44.9653 C.3       2 UNK         0.1400 
     63 CB          1.1905   -8.1067  -45.5584 C.3       2 UNK        -0.1800 
     64 N           1.1405  -10.4962  -46.0501 N.am      2 UNK        -0.5000 
     65 C           0.8365  -11.7972  -45.9350 C.2       1 UNK         0.5000 
     66 O           0.3868  -12.3018  -44.9055 O.2       1 UNK        -0.5000 
     67 C          -0.8210  -22.2053  -47.9197 C.2       11 UNK         0.5000 
     68 O          -1.0268  -23.0815  -48.7597 O.2       11 UNK        -0.5000 
     69 N          -1.7926  -21.4503  -47.3855 N.am      12 UNK        -0.5000 
     70 CA         -3.2137  -21.5826  -47.7097 C.3       12 UNK         0.1400 
     71 CB         -4.0092  -20.4659  -47.0185 C.3       12 UNK        -0.1800 
     72 C          -3.7848  -22.9666  -47.3509 C.2       12 UNK         0.5000 
     73 O          -4.5442  -23.5249  -48.1412 O.2       12 UNK        -0.5000 
     74 N          -3.3808  -23.5076  -46.1923 N.am      13 UNK        -0.5000 
     75 CA         -3.7272  -24.8526  -45.7347 C.3       13 UNK         0.1400 
     76 CB         -3.3321  -25.0192  -44.2599 C.3       13 UNK        -0.1800 
     77 C          -3.0920  -25.9561  -46.5989 C.2       13 UNK         0.5000 
     78 O          -3.7784  -26.9190  -46.9396 O.2       13 UNK        -0.5000 
     79 N          -1.8138  -25.7898  -46.9700 N.am      14 UNK        -0.5000 
     80 CA         -1.0781  -26.7007  -47.8533 C.3       14 UNK         0.1400 
     81 CB          0.4075  -26.3104  -47.8775 C.3       14 UNK        -0.1800 
     82 C          -1.6550  -26.7423  -49.2810 C.2       14 UNK         0.5000 
     83 O          -1.7453  -27.8178  -49.8736 O.2       14 UNK        -0.5000 
     84 N          -2.0759  -25.5757  -49.7857 N.am      15 UNK        -0.5000 
     85 CA         -2.7824  -25.4078  -51.0567 C.3       15 UNK         0.1400 
     86 CB         -2.6395  -23.9430  -51.4950 C.3       15 UNK        -0.1800 
     87 C          -4.2725  -25.8057  -50.9896 C.2       15 UNK         0.5000 
     88 O          -4.9360  -25.8136  -52.0265 O.2       15 UNK        -0.5000 
     89 N          -4.7833  -26.0886  -49.7832 N.am      16 UNK        -0.5000 
     90 CA         -6.1533  -26.4473  -49.3997 C.3       16 UNK         0.1400 
     91 CB         -6.6044  -27.7547  -50.0783 C.3       16 UNK        -0.1800 
     92 C          -7.1859  -25.3221  -49.6024 C.2       16 UNK         0.5000 
     93 O          -7.9064  -24.9846  -48.6623 O.2       16 UNK        -0.5000 
     94 N          -7.2479  -24.7761  -50.8205 N.am      17 UNK        -0.5000 
     95 CA         -8.1907  -23.7400  -51.2411 C.3       17 UNK         0.1400 
     96 CB         -8.8203  -24.1815  -52.5732 C.3       17 UNK        -0.1800 
     97 C          -7.5265  -22.3613  -51.4065 C.2       17 UNK         0.5000 
     98 O          -8.2380  -21.3898  -51.6652 O.2       17 UNK        -0.5000 
     99 N          -6.1874  -22.2979  -51.3185 N.am      18 UNK        -0.5000 
    100 CA        -5.2986  -21.1542  -51.5898 C.3       18 UNK         0.1400 
    101 CB        -5.6009  -19.9558  -50.6721 C.3       18 UNK        -0.1800 
    102 C         -5.2699  -20.7388  -53.0744 C.2       18 UNK         0.5000 
    103 O         -4.1922  -20.6448  -53.6631 O.2       18 UNK        -0.5000 
    104 N         -6.4507  -20.5693  -53.6809 N.am      19 UNK        -0.5000 
    105 CA        -6.6655  -20.2702  -55.0988 C.3       19 UNK         0.1400 
    106 CB        -8.1684  -20.0702  -55.3414 C.3       19 UNK        -0.1800 
    107 C         -6.1038  -21.3422  -56.0536 C.2       19 UNK         0.5000 
    108 O         -5.7797  -21.0225  -57.1958 O.2       19 UNK        -0.5000 
    109 N         -5.9492  -22.5797  -55.5631 N.am      20 UNK        -0.5000 
    110 CA        -5.2861  -23.6785  -56.2666 C.3       20 UNK         0.1400 
    111 CB        -5.4909  -24.9740  -55.4687 C.3       20 UNK        -0.1800 
    112 C         -3.7826  -23.4282  -56.5112 C.2       20 UNK         0.5000 
    113 O         -3.2414  -23.9461  -57.4888 O.2       20 UNK        -0.5000 
    114 N         -3.1435  -22.6390  -55.6356 N.am      21 UNK        -0.5000 
    115 CA        -1.7518  -22.2129  -55.7678 C.3       21 UNK         0.1400 
    116 CB        -1.0781  -22.2237  -54.3859 C.3       21 UNK        -0.1800 
    117 C         -1.6569  -20.8201  -56.4116 C.2       21 UNK         0.5000 
    118 O         -0.8263  -20.6223  -57.2994 O.2       21 UNK        -0.5000 
    119 N         -2.4977  -19.8826  -55.9536 N.am      22 UNK        -0.5000 
    120 CA        -2.5058  -18.4838  -56.4157 C.3       22 UNK         0.1400 
    121 C         -3.1704  -18.2427  -57.8024 C.2       22 UNK         0.5000 
    122 N         -3.9799  -19.1458  -58.3370 N.am      22 UNK        -0.7600 
    123 O         -2.9299  -17.2092  -58.4207 O.2       22 UNK        -0.5000 
    124 C124       -3.0820  -17.5340  -55.3326 C.3       23 UNK        -0.0398 
    125 S125       -1.8163  -17.0725  -54.1045 S.3       23 UNK        -0.2404 
    126 C126       -2.1662  -18.2189  -52.7404 C.3       23 UNK        -0.0205 
    127 H127        4.9851  -12.2470  -49.3109 H         1 UNK         0.0600 
    128 H128        3.7145  -11.0976  -49.7383 H         1 UNK         0.0600 
    129 H129        4.8686  -10.7019  -48.4614 H         1 UNK         0.0600 
    130 H130        1.7229  -11.7119  -48.9404 H         1 UNK         0.3000 
    131 H131        1.4234  -13.6457  -46.8261 H         1 UNK         0.0600 
    132 H132       -0.7213  -11.9850  -48.2443 H         1 UNK         0.0800 
    133 H133       -1.0215  -13.3625  -47.2194 H         1 UNK         0.0800 
    134 H134       -0.1352  -15.8000  -47.7592 H         1 UNK         0.0800 
    135 H135       -1.7428  -15.5358  -48.4031 H         1 UNK         0.0800 
    136 H136       -2.2757  -16.3519  -50.7605 H         1 UNK         0.1150 
    137 H137        0.1352  -19.5876  -52.2155 H         1 UNK         0.1150 
    138 H138        1.3923  -17.3529  -48.7805 H         1 UNK         0.1150 
    139 H139        2.6017  -19.5049  -51.3670 H         1 UNK         0.0800 
    140 H140        2.8867  -18.9612  -49.7335 H         1 UNK         0.0800 
    141 H141        0.6655  -19.8894  -47.9826 H         1 UNK         0.0800 
    142 H142        2.2156  -20.5260  -47.5007 H         1 UNK         0.0800 
    143 H143        1.1877  -22.8794  -47.6511 H         1 UNK         0.0600 
    144 H144        0.9366  -21.0295  -45.5196 H         1 UNK         0.3000 
    145 H145       -0.2591  -23.4183  -43.1052 H         1 UNK         0.0600 
    146 H146        1.7356  -22.5314  -41.9490 H         1 UNK         0.0600 
    147 H147        2.2296  -23.5989  -43.2538 H         1 UNK         0.0600 
    148 H148        2.3527  -21.8556  -43.4551 H         1 UNK         0.0600 
    149 H149        0.2457  -20.6504  -42.8238 H         1 UNK         0.3000 
    150 H150       -3.0508  -19.4986  -43.7224 H         1 UNK         0.0600 
    151 H151       -3.0758  -20.2564  -41.3335 H         1 UNK         0.0600 
    152 H152       -2.8164  -18.5238  -41.4672 H         1 UNK         0.0600 
    153 H153       -1.4623  -19.5912  -41.1034 H         1 UNK         0.0600 
    154 H154       -0.7849  -18.0247  -42.9155 H         1 UNK         0.3000 
    155 H155        0.5995  -17.4468  -46.1913 H         1 UNK         0.0600 
    156 H156       -0.6725  -15.7580  -43.9666 H         1 UNK         0.0600 
    157 H157       -1.1826  -15.7671  -45.6416 H         1 UNK         0.0600 
    158 H158        0.4153  -15.1645  -45.2134 H         1 UNK         0.0600 
    159 H159        1.6339  -16.7345  -43.6671 H         1 UNK         0.3000 
    160 H160        3.5532  -19.6791  -42.9985 H         1 UNK         0.0600 
    161 H161        5.2908  -17.8842  -42.8240 H         1 UNK         0.0600 
    162 H162        4.2932  -16.8206  -43.8173 H         1 UNK         0.0600 
    163 H163        4.9497  -18.3012  -44.4966 H         1 UNK         0.0600 
    164 H164        3.0829  -17.1776  -41.6317 H         1 UNK         0.3000 
    165 H165        0.4393  -18.3851  -39.5500 H         1 UNK         0.0600 
    166 H166        2.0370  -17.6484  -37.8064 H         1 UNK         0.0600 
    167 H167        2.5647  -19.1737  -38.4987 H         1 UNK         0.0600 
    168 H168        3.3663  -17.6784  -38.9651 H         1 UNK         0.0600 
    169 H169        1.8176  -15.8778  -39.6940 H         1 UNK         0.3000 
    170 H170       -0.2744  -14.3349  -42.1166 H         1 UNK         0.0600 
    171 H171       -1.6423  -14.2335  -40.0245 H         1 UNK         0.0600 
    172 H172       -0.1872  -13.9340  -39.0803 H         1 UNK         0.0600 
    173 H173       -0.7291  -12.7538  -40.2735 H         1 UNK         0.0600 
    174 H174        1.7174  -13.1622  -40.5448 H         1 UNK         0.3000 
    175 H175        4.2485  -13.5516  -41.0508 H         1 UNK         0.0600 
    176 H176        4.3533  -13.5375  -44.1131 H         1 UNK         0.0600 
    177 H177        5.6740  -13.0622  -43.0467 H         1 UNK         0.0600 
    178 H178        5.1075  -14.7222  -43.0492 H         1 UNK         0.0600 
    179 H179        3.5588  -11.4789  -43.0001 H         1 UNK         0.3000 
    180 H180        2.0529   -9.3047  -40.6154 H         1 UNK         0.0600 
    181 H181        4.6353   -9.1303  -42.2521 H         1 UNK         0.0600 
    182 H182        4.4718   -8.8529  -40.5264 H         1 UNK         0.0600 
    183 H183        3.6944   -7.7612  -41.6620 H         1 UNK         0.0600 
    184 H184        0.9044   -9.2062  -42.4646 H         1 UNK         0.3000 
    185 H185        0.0982   -9.6134  -44.4805 H         1 UNK         0.0600 
    186 H186        1.1178   -7.3477  -44.7783 H         1 UNK         0.0600 
    187 H187        2.1443   -7.9627  -46.0679 H         1 UNK         0.0600 
    188 H188        0.3932   -7.9113  -46.2758 H         1 UNK         0.0600 
    189 H189        1.5481  -10.1794  -46.9171 H         1 UNK         0.3000 
    190 H190       -1.5474  -20.7249  -46.7158 H         1 UNK         0.3000 
    191 H191       -3.3181  -21.4541  -48.7889 H         1 UNK         0.0600 
    192 H192       -3.8896  -20.4987  -45.9354 H         1 UNK         0.0600 
    193 H193       -5.0750  -20.5518  -47.2329 H         1 UNK         0.0600 
    194 H194       -3.6853  -19.4829  -47.3611 H         1 UNK         0.0600 
    195 H195       -2.8039  -22.9515  -45.5670 H         1 UNK         0.3000 
    196 H196       -4.8117  -24.9597  -45.8066 H         1 UNK         0.0600 
    197 H197       -2.2608  -24.8826  -44.1109 H         1 UNK         0.0600 
    198 H198       -3.5912  -26.0139  -43.8953 H         1 UNK         0.0600 
    199 H199       -3.8512  -24.2967  -43.6299 H         1 UNK         0.0600 
    200 H200       -1.2948  -24.9963  -46.6035 H         1 UNK         0.3000 
    201 H201       -1.1571  -27.7062  -47.4351 H         1 UNK         0.0600 
    202 H202        0.8435  -26.3585  -46.8796 H         1 UNK         0.0600 
    203 H203        0.5523  -25.2987  -48.2571 H         1 UNK         0.0600 
    204 H204        0.9790  -26.9859  -48.5152 H         1 UNK         0.0600 
    205 H205       -1.8912  -24.7255  -49.2584 H         1 UNK         0.3000 
    206 H206       -2.3097  -26.0401  -51.8108 H         1 UNK         0.0600 
    207 H207       -1.5917  -23.6769  -51.6344 H         1 UNK         0.0600 
    208 H208       -3.1547  -23.7519  -52.4375 H         1 UNK         0.0600 
    209 H209       -3.0498  -23.2707  -50.7425 H         1 UNK         0.0600 
    210 H210       -4.1510  -26.0043  -48.9982 H         1 UNK         0.3000 
    211 H211       -6.1135  -26.6384  -48.3265 H         1 UNK         0.0600 
    212 H212       -6.6765  -27.6532  -51.1614 H         1 UNK         0.0600 
    213 H213       -7.5860  -28.0612  -49.7151 H         1 UNK         0.0600 
    214 H214       -5.9101  -28.5671  -49.8636 H         1 UNK         0.0600 
    215 H215       -6.5956  -25.1272  -51.5182 H         1 UNK         0.3000 
    216 H216       -8.9901  -23.6279  -50.5060 H         1 UNK         0.0600 
    217 H217       -9.5558  -23.4557  -52.9227 H         1 UNK         0.0600 
    218 H218       -9.3357  -25.1362  -52.4662 H         1 UNK         0.0600 
    219 H219       -8.0699  -24.2932  -53.3567 H         1 UNK         0.0600 
    220 H220       -5.7162  -23.1579  -51.0780 H         1 UNK         0.3000 
    221 H221       -4.2915  -21.4891  -51.3461 H         1 UNK         0.0600 
    222 H222       -6.5622  -19.4942  -50.8986 H         1 UNK         0.0600 
    223 H223       -5.6145  -20.2574  -49.6255 H         1 UNK         0.0600 
    224 H224       -4.8377  -19.1842  -50.7782 H         1 UNK         0.0600 
    225 H225       -7.2816  -20.6931  -53.1073 H         1 UNK         0.3000 
    226 H226       -6.1513  -19.3335  -55.3223 H         1 UNK         0.0600 
    227 H227       -8.5603  -19.2540  -54.7342 H         1 UNK         0.0600 
    228 H228       -8.3677  -19.8227  -56.3850 H         1 UNK         0.0600 
    229 H229       -8.7367  -20.9697  -55.1011 H         1 UNK         0.0600 
    230 H230       -6.2478  -22.7588  -54.6169 H         1 UNK         0.3000 
    231 H231       -5.7659  -23.7946  -57.2406 H         1 UNK         0.0600 
    232 H232       -6.5496  -25.1963  -55.3350 H         1 UNK         0.0600 
    233 H233       -5.0321  -24.9092  -54.4824 H         1 UNK         0.0600 
    234 H234       -5.0428  -25.8252  -55.9828 H         1 UNK         0.0600 
    235 H235       -3.6709  -22.2143  -54.8826 H         1 UNK         0.3000 
    236 H236       -1.2035  -22.9100  -56.4050 H         1 UNK         0.0600 
    237 H237       -0.0559  -21.8475  -54.4445 H         1 UNK         0.0600 
    238 H238       -1.6138  -21.6079  -53.6632 H         1 UNK         0.0600 
    239 H239       -1.0263  -23.2372  -53.9892 H         1 UNK         0.0600 
    240 H240       -3.1375  -20.1183  -55.2022 H         1 UNK         0.3000 
    241 H241       -1.4641  -18.1967  -56.5755 H         1 UNK         0.0600 
    242 H242       -4.3823  -18.9611  -59.2418 H         1 UNK         0.3800 
    243 H243       -4.2861  -19.9660  -57.8249 H         1 UNK         0.3800 
    244 H244       -3.4307  -16.5967  -55.7706 H         1 UNK         0.0800 
    245 H245       -3.9520  -17.9723  -54.8415 H         1 UNK         0.0800 
    246 H246       -3.1890  -18.0780  -52.3886 H         1 UNK         0.0800 
    247 H247       -2.0926  -19.2438  -53.1030 H         1 UNK         0.0800 
@<TRIPOS>BOND
     1    1    2 1    
     2    1  127 1    
     3    1  128 1    
     4    1  129 1    
     5    2    3 2    
     6    2    4 am   BACKBONE|DICT|INTERRES
     7    4    5 1    
     8    4  130 1    
     9    5    6 1    
    10    5   65 1    
    11    5  131 1    
    12    6    7 1    
    13    6  132 1    
    14    6  133 1    
    15    7    8 1    
    16    8    9 1    
    17    8  134 1    
    18    8  135 1    
    19    9   10 ar   
    20    9   14 ar   
    21   10   11 ar   
    22   10  136 1    
    23   11   12 ar   
    24   11  126 1    
    25   12   13 ar   
    26   12  137 1    
    27   13   14 ar   
    28   13   15 1    
    29   14  138 1    
    30   15   16 1    
    31   15  139 1    
    32   15  140 1    
    33   16   17 1    
    34   17   18 1    
    35   17  141 1    
    36   17  142 1    
    37   18   19 1    
    38   18   67 1    
    39   18  143 1    
    40   19   20 am   BACKBONE|DICT|INTERRES
    41   19  144 1    
    42   20   21 2    
    43   20   22 1    
    44   22   23 1    
    45   22   24 1    
    46   22  145 1    
    47   23  146 1    
    48   23  147 1    
    49   23  148 1    
    50   24   25 am   BACKBONE|DICT|INTERRES
    51   24  149 1    
    52   25   26 2    
    53   25   27 1    
    54   27   28 1    
    55   27   29 1    
    56   27  150 1    
    57   28  151 1    
    58   28  152 1    
    59   28  153 1    
    60   29   30 am   BACKBONE|DICT|INTERRES
    61   29  154 1    
    62   30   31 2    
    63   30   32 1    
    64   32   33 1    
    65   32   34 1    
    66   32  155 1    
    67   33  156 1    
    68   33  157 1    
    69   33  158 1    
    70   34   35 am   BACKBONE|DICT|INTERRES
    71   34  159 1    
    72   35   36 2    
    73   35   37 1    
    74   37   38 1    
    75   37   39 1    
    76   37  160 1    
    77   38  161 1    
    78   38  162 1    
    79   38  163 1    
    80   39   40 am   BACKBONE|DICT|INTERRES
    81   39  164 1    
    82   40   41 2    
    83   40   42 1    
    84   42   43 1    
    85   42   44 1    
    86   42  165 1    
    87   43  166 1    
    88   43  167 1    
    89   43  168 1    
    90   44   45 am   BACKBONE|DICT|INTERRES
    91   44  169 1    
    92   45   46 2    
    93   45   47 1    
    94   47   48 1    
    95   47   49 1    
    96   47  170 1    
    97   48  171 1    
    98   48  172 1    
    99   48  173 1    
   100   49   50 am   BACKBONE|DICT|INTERRES
   101   49  174 1    
   102   50   51 2    
   103   50   52 1    
   104   52   53 1    
   105   52   54 1    
   106   52  175 1    
   107   53  176 1    
   108   53  177 1    
   109   53  178 1    
   110   54   55 am   BACKBONE|DICT|INTERRES
   111   54  179 1    
   112   55   56 2    
   113   55   57 1    
   114   57   58 1    
   115   57   59 1    
   116   57  180 1    
   117   58  181 1    
   118   58  182 1    
   119   58  183 1    
   120   59   60 am   BACKBONE|DICT|INTERRES
   121   59  184 1    
   122   60   61 2    
   123   60   62 1    
   124   62   63 1    
   125   62   64 1    
   126   62  185 1    
   127   63  186 1    
   128   63  187 1    
   129   63  188 1    
   130   64   65 am   BACKBONE|DICT|INTERRES
   131   64  189 1    
   132   65   66 2    
   133   67   68 2    
   134   67   69 am   BACKBONE|DICT|INTERRES
   135   69   70 1    
   136   69  190 1    
   137   70   71 1    
   138   70   72 1    
   139   70  191 1    
   140   71  192 1    
   141   71  193 1    
   142   71  194 1    
   143   72   73 2    
   144   72   74 am   BACKBONE|DICT|INTERRES
   145   74   75 1    
   146   74  195 1    
   147   75   76 1    
   148   75   77 1    
   149   75  196 1    
   150   76  197 1    
   151   76  198 1    
   152   76  199 1    
   153   77   78 2    
   154   77   79 am   BACKBONE|DICT|INTERRES
   155   79   80 1    
   156   79  200 1    
   157   80   81 1    
   158   80   82 1    
   159   80  201 1    
   160   81  202 1    
   161   81  203 1    
   162   81  204 1    
   163   82   83 2    
   164   82   84 am   BACKBONE|DICT|INTERRES
   165   84   85 1    
   166   84  205 1    
   167   85   86 1    
   168   85   87 1    
   169   85  206 1    
   170   86  207 1    
   171   86  208 1    
   172   86  209 1    
   173   87   88 2    
   174   87   89 am   BACKBONE|DICT|INTERRES
   175   89   90 1    
   176   89  210 1    
   177   90   91 1    
   178   90   92 1    
   179   90  211 1    
   180   91  212 1    
   181   91  213 1    
   182   91  214 1    
   183   92   93 2    
   184   92   94 am   BACKBONE|DICT|INTERRES
   185   94   95 1    
   186   94  215 1    
   187   95   96 1    
   188   95   97 1    
   189   95  216 1    
   190   96  217 1    
   191   96  218 1    
   192   96  219 1    
   193   97   98 2    
   194   97   99 am   BACKBONE|DICT|INTERRES
   195   99  100 1    
   196   99  220 1    
   197  100  101 1    
   198  100  102 1    
   199  100  221 1    
   200  101  222 1    
   201  101  223 1    
   202  101  224 1    
   203  102  103 2    
   204  102  104 am   BACKBONE|DICT|INTERRES
   205  104  105 1    
   206  104  225 1    
   207  105  106 1    
   208  105  107 1    
   209  105  226 1    
   210  106  227 1    
   211  106  228 1    
   212  106  229 1    
   213  107  108 2    
   214  107  109 am   BACKBONE|DICT|INTERRES
   215  109  110 1    
   216  109  230 1    
   217  110  111 1    
   218  110  112 1    
   219  110  231 1    
   220  111  232 1    
   221  111  233 1    
   222  111  234 1    
   223  112  113 2    
   224  112  114 am   BACKBONE|DICT|INTERRES
   225  114  115 1    
   226  114  235 1    
   227  115  116 1    
   228  115  117 1    
   229  115  236 1    
   230  116  237 1    
   231  116  238 1    
   232  116  239 1    
   233  117  118 2    
   234  117  119 am   BACKBONE|DICT|INTERRES
   235  119  120 1    
   236  119  240 1    
   237  120  121 1    
   238  120  124 1    
   239  120  241 1    
   240  121  122 am   BACKBONE|DICT|INTERRES
   241  121  123 2    
   242  122  242 1    
   243  122  243 1    
   244  124  125 1    
   245  124  244 1    
   246  124  245 1    
   247  125  126 1    
   248  126  246 1    
   249  126  247 1    
@<TRIPOS>SUBSTRUCTURE
     1 UNK         1 GROUP             0       ****    0 ROOT    
