@<TRIPOS>MOLECULE
3R540
247   249    1
SMALL
USER_CHARGES


@<TRIPOS>ATOM
      1 CA         -0.1656  -10.2147  -49.7230 C.3       0 UNK        -0.1800 
      2 C           1.0539  -11.0023  -49.2647 C.2       0 UNK         0.5000 
      3 O           1.6016  -10.7192  -48.1986 O.2       0 UNK        -0.5000 
      4 N           1.4861  -11.9785  -50.0705 N.am      1 UNK        -0.5000 
      5 CA          2.5822  -12.9028  -49.7677 C.3       1 UNK         0.1400 
      6 C6          3.1202  -13.6252  -51.0350 C.3       23 UNK        -0.0398 
      7 S7          1.8553  -14.1929  -52.2329 S.3       23 UNK        -0.2404 
      8 C8          1.9215  -16.0113  -52.1064 C.3       23 UNK        -0.0205 
      9 C9          0.8369  -16.5570  -51.1895 C.ar      23 UNK        -0.0193 
     10 C10        -0.5047  -16.4860  -51.5800 C.ar      23 UNK        -0.1150 
     11 C11        -1.5149  -16.9681  -50.7438 C.ar      23 UNK        -0.0193 
     12 C12        -1.1737  -17.5471  -49.5197 C.ar      23 UNK        -0.1150 
     13 C13         0.1625  -17.6280  -49.1173 C.ar      23 UNK        -0.0193 
     14 C14         1.1654  -17.1338  -49.9584 C.ar      23 UNK        -0.1150 
     15 C15         0.5008  -18.1916  -47.7462 C.3       23 UNK        -0.0205 
     16 S16         1.6094  -19.6346  -47.8190 S.3       23 UNK        -0.2404 
     17 C17         1.4265  -20.2595  -46.1069 C.3       23 UNK        -0.0398 
     18 CA          0.5859  -21.5546  -45.8982 C.3       11 UNK         0.1400 
     19 N           0.1136  -21.6551  -44.5156 N.am      11 UNK        -0.5000 
     20 C          -0.5090  -22.7072  -43.9673 C.2       10 UNK         0.5000 
     21 O          -0.7128  -23.7697  -44.5517 O.2       10 UNK        -0.5000 
     22 CA         -1.0432  -22.5153  -42.5383 C.3       10 UNK         0.1400 
     23 CB          0.0729  -22.7074  -41.5002 C.3       10 UNK        -0.1800 
     24 N          -1.6642  -21.2025  -42.3591 N.am      10 UNK        -0.5000 
     25 C          -2.8077  -20.8201  -42.9449 C.2       9 UNK         0.5000 
     26 O          -3.4759  -21.5450  -43.6821 O.2       9 UNK        -0.5000 
     27 CA         -3.2573  -19.3696  -42.6927 C.3       9 UNK         0.1400 
     28 CB         -3.9414  -19.2407  -41.3235 C.3       9 UNK        -0.1800 
     29 N          -2.1515  -18.4145  -42.7744 N.am      9 UNK        -0.5000 
     30 C          -1.4746  -18.1392  -43.8976 C.2       8 UNK         0.5000 
     31 O          -1.7129  -18.6601  -44.9861 O.2       8 UNK        -0.5000 
     32 CA         -0.2983  -17.1547  -43.7734 C.3       8 UNK         0.1400 
     33 CB         -0.8089  -15.7063  -43.7892 C.3       8 UNK        -0.1800 
     34 N           0.5267  -17.3610  -42.5814 N.am      8 UNK        -0.5000 
     35 C           1.1041  -18.5114  -42.2060 C.2       7 UNK         0.5000 
     36 O           0.9831  -19.5680  -42.8237 O.2       7 UNK        -0.5000 
     37 CA          1.9613  -18.4925  -40.9291 C.3       7 UNK         0.1400 
     38 CB          3.4536  -18.5023  -41.2904 C.3       7 UNK        -0.1800 
     39 N           1.6818  -17.3456  -40.0639 N.am      7 UNK        -0.5000 
     40 C           0.6226  -17.2439  -39.2489 C.2       6 UNK         0.5000 
     41 O          -0.2482  -18.1089  -39.1499 O.2       6 UNK        -0.5000 
     42 CA          0.5194  -15.9569  -38.4084 C.3       6 UNK         0.1400 
     43 CB          1.2377  -16.1373  -37.0624 C.3       6 UNK        -0.1800 
     44 N           1.0791  -14.7919  -39.0972 N.am      6 UNK        -0.5000 
     45 C           0.4557  -14.1279  -40.0802 C.2       5 UNK         0.5000 
     46 O          -0.6789  -14.3971  -40.4743 O.2       5 UNK        -0.5000 
     47 CA          1.2495  -12.9946  -40.7607 C.3       5 UNK         0.1400 
     48 CB          1.0778  -11.6765  -39.9906 C.3       5 UNK        -0.1800 
     49 N           2.6803  -13.2851  -40.9149 N.am      5 UNK        -0.5000 
     50 C           3.1675  -14.3003  -41.6386 C.2       4 UNK         0.5000 
     51 O           2.4554  -15.1281  -42.2137 O.2       4 UNK        -0.5000 
     52 CA          4.6944  -14.4451  -41.7077 C.3       4 UNK         0.1400 
     53 CB          5.2432  -15.0483  -40.4000 C.3       4 UNK        -0.1800 
     54 N           4.9842  -15.3151  -42.8406 N.am      4 UNK        -0.5000 
     55 C           6.1686  -15.5734  -43.4039 C.2       3 UNK         0.5000 
     56 O           7.2376  -15.1072  -43.0088 O.2       3 UNK        -0.5000 
     57 CA          6.1443  -16.5032  -44.6353 C.3       3 UNK         0.1400 
     58 CB          6.3197  -17.9689  -44.2083 C.3       3 UNK        -0.1800 
     59 N           4.9058  -16.3747  -45.4117 N.am      3 UNK        -0.5000 
     60 C           4.6132  -15.3172  -46.1793 C.2       2 UNK         0.5000 
     61 O           5.3985  -14.3885  -46.3931 O.2       2 UNK        -0.5000 
     62 CA          3.2026  -15.2762  -46.7875 C.3       2 UNK         0.1400 
     63 CB          2.1740  -14.9200  -45.6942 C.3       2 UNK        -0.1800 
     64 N           3.2155  -14.2919  -47.8673 N.am      2 UNK        -0.5000 
     65 C           2.2046  -13.8983  -48.6503 C.2       1 UNK         0.5000 
     66 O           1.0414  -14.2881  -48.5360 O.2       1 UNK        -0.5000 
     67 C          -0.5812  -21.7402  -46.8935 C.2       11 UNK         0.5000 
     68 O          -0.4873  -22.5920  -47.7775 O.2       11 UNK        -0.5000 
     69 N          -1.6744  -20.9864  -46.7007 N.am      12 UNK        -0.5000 
     70 CA         -2.8819  -21.0622  -47.5238 C.3       12 UNK         0.1400 
     71 CB         -3.8640  -19.9572  -47.1094 C.3       12 UNK        -0.1800 
     72 C          -3.5603  -22.4422  -47.4696 C.2       12 UNK         0.5000 
     73 O          -3.9941  -22.9389  -48.5094 O.2       12 UNK        -0.5000 
     74 N          -3.6092  -23.0493  -46.2753 N.am      13 UNK        -0.5000 
     75 CA         -4.1245  -24.4003  -46.0568 C.3       13 UNK         0.1400 
     76 CB         -4.2509  -24.6733  -44.5504 C.3       13 UNK        -0.1800 
     77 C          -3.2661  -25.4778  -46.7433 C.2       13 UNK         0.5000 
     78 O          -3.8156  -26.3314  -47.4397 O.2       13 UNK        -0.5000 
     79 N          -1.9386  -25.4012  -46.5693 N.am      14 UNK        -0.5000 
     80 CA         -0.9617  -26.3156  -47.1674 C.3       14 UNK         0.1400 
     81 CB          0.4294  -26.0395  -46.5773 C.3       14 UNK        -0.1800 
     82 C          -0.9217  -26.2370  -48.7042 C.2       14 UNK         0.5000 
     83 O          -0.8015  -27.2695  -49.3645 O.2       14 UNK        -0.5000 
     84 N          -1.0557  -25.0190  -49.2443 N.am      15 UNK        -0.5000 
     85 CA         -1.1396  -24.7437  -50.6787 C.3       15 UNK         0.1400 
     86 CB         -0.7902  -23.2647  -50.9118 C.3       15 UNK        -0.1800 
     87 C          -2.5190  -25.0707  -51.2873 C.2       15 UNK         0.5000 
     88 O          -2.6566  -25.0180  -52.5104 O.2       15 UNK        -0.5000 
     89 N          -3.5208  -25.3517  -50.4391 N.am      16 UNK        -0.5000 
     90 CA         -4.9301  -25.5884  -50.7697 C.3       16 UNK         0.1400 
     91 CB         -5.0932  -26.9247  -51.5232 C.3       16 UNK        -0.1800 
     92 C          -5.5509  -24.3898  -51.5161 C.2       16 UNK         0.5000 
     93 O          -6.1473  -24.5613  -52.5795 O.2       16 UNK        -0.5000 
     94 N          -5.3325  -23.1877  -50.9607 N.am      17 UNK        -0.5000 
     95 CA         -5.6637  -21.8728  -51.5229 C.3       17 UNK         0.1400 
     96 CB         -7.1918  -21.6931  -51.6486 C.3       17 UNK        -0.1800 
     97 C          -4.9143  -21.5836  -52.8416 C.2       17 UNK         0.5000 
     98 O          -5.4544  -20.9069  -53.7185 O.2       17 UNK        -0.5000 
     99 N          -3.6859  -22.1168  -52.9541 N.am      18 UNK        -0.5000 
    100 CA        -2.8225  -22.1217  -54.1417 C.3       18 UNK         0.1400 
    101 CB        -2.2698  -20.7115  -54.4198 C.3       18 UNK        -0.1800 
    102 C         -3.5460  -22.7547  -55.3448 C.2       18 UNK         0.5000 
    103 O         -3.6593  -22.1369  -56.4069 O.2       18 UNK        -0.5000 
    104 N         -4.1263  -23.9386  -55.0968 N.am      19 UNK        -0.5000 
    105 CA        -5.1006  -24.6877  -55.9037 C.3       19 UNK         0.1400 
    106 CB        -4.5115  -25.0982  -57.2664 C.3       19 UNK        -0.1800 
    107 C         -6.4572  -23.9675  -56.0702 C.2       19 UNK         0.5000 
    108 O         -7.5040  -24.5910  -55.8902 O.2       19 UNK        -0.5000 
    109 N         -6.4060  -22.6732  -56.3949 N.am      20 UNK        -0.5000 
    110 CA        -7.5203  -21.7354  -56.5010 C.3       20 UNK         0.1400 
    111 CB        -8.3878  -22.0692  -57.7313 C.3       20 UNK        -0.1800 
    112 C         -7.0460  -20.2687  -56.5663 C.2       20 UNK         0.5000 
    113 O         -7.8826  -19.3732  -56.4343 O.2       20 UNK        -0.5000 
    114 N         -5.7431  -20.0203  -56.7887 N.am      21 UNK        -0.5000 
    115 CA        -5.1826  -18.6930  -57.0594 C.3       21 UNK         0.1400 
    116 CB        -3.7317  -18.8401  -57.5427 C.3       21 UNK        -0.1800 
    117 C         -5.2857  -17.6794  -55.9014 C.2       21 UNK         0.5000 
    118 O         -5.2503  -16.4770  -56.1694 O.2       21 UNK        -0.5000 
    119 N         -5.4437  -18.1507  -54.6566 N.am      22 UNK        -0.5000 
    120 CA        -5.7694  -17.2954  -53.5005 C.3       22 UNK         0.1400 
    121 C         -7.2601  -16.8390  -53.4533 C.2       22 UNK         0.5000 
    122 N         -8.1547  -17.3489  -54.2931 N.am      22 UNK        -0.7600 
    123 O         -7.6136  -15.9912  -52.6383 O.2       22 UNK        -0.5000 
    124 C124       -5.3538  -17.9264  -52.1466 C.3       23 UNK        -0.0398 
    125 S125       -3.5711  -18.2981  -52.0244 S.3       23 UNK        -0.2404 
    126 C126       -2.9766  -16.8293  -51.1373 C.3       23 UNK        -0.0205 
    127 H127       -0.5394  -10.5695  -50.6840 H         1 UNK         0.0600 
    128 H128        0.0852   -9.1588  -49.8245 H         1 UNK         0.0600 
    129 H129       -0.9683  -10.3073  -48.9913 H         1 UNK         0.0600 
    130 H130        0.9777  -12.1908  -50.9174 H         1 UNK         0.3000 
    131 H131        3.4036  -12.2959  -49.3796 H         1 UNK         0.0600 
    132 H132        3.7549  -12.9250  -51.5795 H         1 UNK         0.0800 
    133 H133        3.7842  -14.4490  -50.7682 H         1 UNK         0.0800 
    134 H134        2.9113  -16.3388  -51.7860 H         1 UNK         0.0800 
    135 H135        1.7761  -16.4312  -53.1027 H         1 UNK         0.0800 
    136 H136       -0.7629  -16.0356  -52.5282 H         1 UNK         0.1150 
    137 H137       -1.9555  -17.9131  -48.8697 H         1 UNK         0.1150 
    138 H138        2.1979  -17.1818  -49.6431 H         1 UNK         0.1150 
    139 H139        0.9539  -17.4088  -47.1394 H         1 UNK         0.0800 
    140 H140       -0.4166  -18.4802  -47.2341 H         1 UNK         0.0800 
    141 H141        1.0069  -19.4526  -45.5071 H         1 UNK         0.0800 
    142 H142        2.4264  -20.4165  -45.7005 H         1 UNK         0.0800 
    143 H143        1.2576  -22.3999  -46.0622 H         1 UNK         0.0600 
    144 H144        0.2752  -20.8414  -43.9258 H         1 UNK         0.3000 
    145 H145       -1.8049  -23.2776  -42.3616 H         1 UNK         0.0600 
    146 H146       -0.3154  -22.6261  -40.4849 H         1 UNK         0.0600 
    147 H147        0.5263  -23.6947  -41.5964 H         1 UNK         0.0600 
    148 H148        0.8679  -21.9702  -41.6150 H         1 UNK         0.0600 
    149 H149       -1.1483  -20.5256  -41.8165 H         1 UNK         0.3000 
    150 H150       -3.9860  -19.1100  -43.4637 H         1 UNK         0.0600 
    151 H151       -4.7755  -19.9383  -41.2367 H         1 UNK         0.0600 
    152 H152       -4.3414  -18.2373  -41.1763 H         1 UNK         0.0600 
    153 H153       -3.2509  -19.4495  -40.5052 H         1 UNK         0.0600 
    154 H154       -1.8726  -17.9574  -41.9182 H         1 UNK         0.3000 
    155 H155        0.3470  -17.2973  -44.6410 H         1 UNK         0.0600 
    156 H156       -1.4834  -15.5086  -42.9553 H         1 UNK         0.0600 
    157 H157       -1.3525  -15.4943  -44.7108 H         1 UNK         0.0600 
    158 H158        0.0125  -14.9929  -43.7236 H         1 UNK         0.0600 
    159 H159        0.7587  -16.5299  -42.0526 H         1 UNK         0.3000 
    160 H160        1.7418  -19.4082  -40.3759 H         1 UNK         0.0600 
    161 H161        3.7317  -17.6215  -41.8674 H         1 UNK         0.0600 
    162 H162        3.7041  -19.3784  -41.8901 H         1 UNK         0.0600 
    163 H163        4.0776  -18.5325  -40.3972 H         1 UNK         0.0600 
    164 H164        2.3221  -16.5687  -40.1219 H         1 UNK         0.3000 
    165 H165       -0.5384  -15.7738  -38.2068 H         1 UNK         0.0600 
    166 H166        1.1188  -15.2564  -36.4313 H         1 UNK         0.0600 
    167 H167        0.8294  -16.9867  -36.5131 H         1 UNK         0.0600 
    168 H168        2.3058  -16.3146  -37.1947 H         1 UNK         0.0600 
    169 H169        2.0046  -14.4956  -38.8243 H         1 UNK         0.3000 
    170 H170        0.8307  -12.8605  -41.7605 H         1 UNK         0.0600 
    171 H171        0.0224  -11.4245  -39.8780 H         1 UNK         0.0600 
    172 H172        1.5102  -11.7340  -38.9909 H         1 UNK         0.0600 
    173 H173        1.5535  -10.8479  -40.5157 H         1 UNK         0.0600 
    174 H174        3.3214  -12.6496  -40.4619 H         1 UNK         0.3000 
    175 H175        5.1375  -13.4639  -41.8873 H         1 UNK         0.0600 
    176 H176        4.8282  -16.0373  -40.2056 H         1 UNK         0.0600 
    177 H177        6.3284  -15.1438  -40.4287 H         1 UNK         0.0600 
    178 H178        5.0024  -14.4171  -39.5440 H         1 UNK         0.0600 
    179 H179        4.1468  -15.7143  -43.2460 H         1 UNK         0.3000 
    180 H180        6.9877  -16.2320  -45.2741 H         1 UNK         0.0600 
    181 H181        5.4940  -18.3104  -43.5835 H         1 UNK         0.0600 
    182 H182        7.2395  -18.1014  -43.6372 H         1 UNK         0.0600 
    183 H183        6.3791  -18.6273  -45.0751 H         1 UNK         0.0600 
    184 H184        4.2249  -17.1115  -45.3013 H         1 UNK         0.3000 
    185 H185        2.9795  -16.2549  -47.2138 H         1 UNK         0.0600 
    186 H186        2.2306  -15.6194  -44.8603 H         1 UNK         0.0600 
    187 H187        2.3423  -13.9197  -45.2935 H         1 UNK         0.0600 
    188 H188        1.1515  -14.9643  -46.0664 H         1 UNK         0.0600 
    189 H189        4.1354  -13.8872  -48.0003 H         1 UNK         0.3000 
    190 H190       -1.6766  -20.2910  -45.9588 H         1 UNK         0.3000 
    191 H191       -2.5856  -20.8808  -48.5592 H         1 UNK         0.0600 
    192 H192       -4.1728  -20.0641  -46.0689 H         1 UNK         0.0600 
    193 H193       -4.7635  -19.9816  -47.7259 H         1 UNK         0.0600 
    194 H194       -3.4184  -18.9693  -47.2238 H         1 UNK         0.0600 
    195 H195       -3.2733  -22.5518  -45.4572 H         1 UNK         0.3000 
    196 H196       -5.1254  -24.4484  -46.4911 H         1 UNK         0.0600 
    197 H197       -4.6453  -25.6733  -44.3661 H         1 UNK         0.0600 
    198 H198       -4.9304  -23.9636  -44.0782 H         1 UNK         0.0600 
    199 H199       -3.2885  -24.6007  -44.0436 H         1 UNK         0.0600 
    200 H200       -1.5627  -24.6801  -45.9574 H         1 UNK         0.3000 
    201 H201       -1.2497  -27.3333  -46.8963 H         1 UNK         0.0600 
    202 H202        0.4347  -26.1864  -45.4971 H         1 UNK         0.0600 
    203 H203        0.7544  -25.0176  -46.7770 H         1 UNK         0.0600 
    204 H204        1.1761  -26.7122  -47.0008 H         1 UNK         0.0600 
    205 H205       -1.0778  -24.2100  -48.6276 H         1 UNK         0.3000 
    206 H206       -0.3983  -25.3559  -51.1962 H         1 UNK         0.0600 
    207 H207        0.1825  -23.0181  -50.4857 H         1 UNK         0.0600 
    208 H208       -0.7383  -23.0336  -51.9750 H         1 UNK         0.0600 
    209 H209       -1.5287  -22.6001  -50.4610 H         1 UNK         0.0600 
    210 H210       -3.3083  -25.3527  -49.4496 H         1 UNK         0.3000 
    211 H211       -5.4620  -25.6734  -49.8209 H         1 UNK         0.0600 
    212 H212       -4.6134  -26.9022  -52.5021 H         1 UNK         0.0600 
    213 H213       -6.1471  -27.1565  -51.6813 H         1 UNK         0.0600 
    214 H214       -4.6607  -27.7496  -50.9569 H         1 UNK         0.0600 
    215 H215       -4.8253  -23.1622  -50.0755 H         1 UNK         0.3000 
    216 H216       -5.3024  -21.1367  -50.8033 H         1 UNK         0.0600 
    217 H217       -7.6928  -21.9080  -50.7049 H         1 UNK         0.0600 
    218 H218       -7.6156  -22.3473  -52.4111 H         1 UNK         0.0600 
    219 H219       -7.4484  -20.6703  -51.9251 H         1 UNK         0.0600 
    220 H220       -3.3653  -22.6905  -52.1887 H         1 UNK         0.3000 
    221 H221       -1.9739  -22.7704  -53.9263 H         1 UNK         0.0600 
    222 H222       -3.0685  -19.9929  -54.5990 H         1 UNK         0.0600 
    223 H223       -1.6837  -20.3490  -53.5753 H         1 UNK         0.0600 
    224 H224       -1.6167  -20.7092  -55.2930 H         1 UNK         0.0600 
    225 H225       -3.9761  -24.3228  -54.1703 H         1 UNK         0.3000 
    226 H226       -5.2996  -25.6021  -55.3424 H         1 UNK         0.0600 
    227 H227       -3.5820  -25.6537  -57.1420 H         1 UNK         0.0600 
    228 H228       -5.2052  -25.7414  -57.8090 H         1 UNK         0.0600 
    229 H229       -4.3052  -24.2364  -57.9015 H         1 UNK         0.0600 
    230 H230       -5.4735  -22.2841  -56.4845 H         1 UNK         0.3000 
    231 H231       -8.1286  -21.8316  -55.5995 H         1 UNK         0.0600 
    232 H232       -8.8403  -23.0571  -57.6503 H         1 UNK         0.0600 
    233 H233       -7.8013  -22.0435  -58.6503 H         1 UNK         0.0600 
    234 H234       -9.2044  -21.3547  -57.8426 H         1 UNK         0.0600 
    235 H235       -5.0761  -20.7799  -56.8291 H         1 UNK         0.3000 
    236 H236       -5.7578  -18.2715  -57.8864 H         1 UNK         0.0600 
    237 H237       -3.3034  -17.8698  -57.7974 H         1 UNK         0.0600 
    238 H238       -3.0942  -19.2887  -56.7835 H         1 UNK         0.0600 
    239 H239       -3.6751  -19.4632  -58.4353 H         1 UNK         0.0600 
    240 H240       -5.4580  -19.1548  -54.4942 H         1 UNK         0.3000 
    241 H241       -5.1911  -16.3750  -53.6008 H         1 UNK         0.0600 
    242 H242       -9.1097  -17.0320  -54.2445 H         1 UNK         0.3800 
    243 H243       -7.8975  -18.0433  -54.9879 H         1 UNK         0.3800 
    244 H244       -5.6272  -17.2717  -51.3175 H         1 UNK         0.0800 
    245 H245       -5.9072  -18.8493  -51.9813 H         1 UNK         0.0800 
    246 H246       -3.5807  -16.6713  -50.2425 H         1 UNK         0.0800 
    247 H247       -3.1166  -15.9474  -51.7644 H         1 UNK         0.0800 
@<TRIPOS>BOND
     1    1    2 1    
     2    1  127 1    
     3    1  128 1    
     4    1  129 1    
     5    2    3 2    
     6    2    4 am   BACKBONE|DICT|INTERRES
     7    4    5 1    
     8    4  130 1    
     9    5    6 1    
    10    5   65 1    
    11    5  131 1    
    12    6    7 1    
    13    6  132 1    
    14    6  133 1    
    15    7    8 1    
    16    8    9 1    
    17    8  134 1    
    18    8  135 1    
    19    9   10 ar   
    20    9   14 ar   
    21   10   11 ar   
    22   10  136 1    
    23   11   12 ar   
    24   11  126 1    
    25   12   13 ar   
    26   12  137 1    
    27   13   14 ar   
    28   13   15 1    
    29   14  138 1    
    30   15   16 1    
    31   15  139 1    
    32   15  140 1    
    33   16   17 1    
    34   17   18 1    
    35   17  141 1    
    36   17  142 1    
    37   18   19 1    
    38   18   67 1    
    39   18  143 1    
    40   19   20 am   BACKBONE|DICT|INTERRES
    41   19  144 1    
    42   20   21 2    
    43   20   22 1    
    44   22   23 1    
    45   22   24 1    
    46   22  145 1    
    47   23  146 1    
    48   23  147 1    
    49   23  148 1    
    50   24   25 am   BACKBONE|DICT|INTERRES
    51   24  149 1    
    52   25   26 2    
    53   25   27 1    
    54   27   28 1    
    55   27   29 1    
    56   27  150 1    
    57   28  151 1    
    58   28  152 1    
    59   28  153 1    
    60   29   30 am   BACKBONE|DICT|INTERRES
    61   29  154 1    
    62   30   31 2    
    63   30   32 1    
    64   32   33 1    
    65   32   34 1    
    66   32  155 1    
    67   33  156 1    
    68   33  157 1    
    69   33  158 1    
    70   34   35 am   BACKBONE|DICT|INTERRES
    71   34  159 1    
    72   35   36 2    
    73   35   37 1    
    74   37   38 1    
    75   37   39 1    
    76   37  160 1    
    77   38  161 1    
    78   38  162 1    
    79   38  163 1    
    80   39   40 am   BACKBONE|DICT|INTERRES
    81   39  164 1    
    82   40   41 2    
    83   40   42 1    
    84   42   43 1    
    85   42   44 1    
    86   42  165 1    
    87   43  166 1    
    88   43  167 1    
    89   43  168 1    
    90   44   45 am   BACKBONE|DICT|INTERRES
    91   44  169 1    
    92   45   46 2    
    93   45   47 1    
    94   47   48 1    
    95   47   49 1    
    96   47  170 1    
    97   48  171 1    
    98   48  172 1    
    99   48  173 1    
   100   49   50 am   BACKBONE|DICT|INTERRES
   101   49  174 1    
   102   50   51 2    
   103   50   52 1    
   104   52   53 1    
   105   52   54 1    
   106   52  175 1    
   107   53  176 1    
   108   53  177 1    
   109   53  178 1    
   110   54   55 am   BACKBONE|DICT|INTERRES
   111   54  179 1    
   112   55   56 2    
   113   55   57 1    
   114   57   58 1    
   115   57   59 1    
   116   57  180 1    
   117   58  181 1    
   118   58  182 1    
   119   58  183 1    
   120   59   60 am   BACKBONE|DICT|INTERRES
   121   59  184 1    
   122   60   61 2    
   123   60   62 1    
   124   62   63 1    
   125   62   64 1    
   126   62  185 1    
   127   63  186 1    
   128   63  187 1    
   129   63  188 1    
   130   64   65 am   BACKBONE|DICT|INTERRES
   131   64  189 1    
   132   65   66 2    
   133   67   68 2    
   134   67   69 am   BACKBONE|DICT|INTERRES
   135   69   70 1    
   136   69  190 1    
   137   70   71 1    
   138   70   72 1    
   139   70  191 1    
   140   71  192 1    
   141   71  193 1    
   142   71  194 1    
   143   72   73 2    
   144   72   74 am   BACKBONE|DICT|INTERRES
   145   74   75 1    
   146   74  195 1    
   147   75   76 1    
   148   75   77 1    
   149   75  196 1    
   150   76  197 1    
   151   76  198 1    
   152   76  199 1    
   153   77   78 2    
   154   77   79 am   BACKBONE|DICT|INTERRES
   155   79   80 1    
   156   79  200 1    
   157   80   81 1    
   158   80   82 1    
   159   80  201 1    
   160   81  202 1    
   161   81  203 1    
   162   81  204 1    
   163   82   83 2    
   164   82   84 am   BACKBONE|DICT|INTERRES
   165   84   85 1    
   166   84  205 1    
   167   85   86 1    
   168   85   87 1    
   169   85  206 1    
   170   86  207 1    
   171   86  208 1    
   172   86  209 1    
   173   87   88 2    
   174   87   89 am   BACKBONE|DICT|INTERRES
   175   89   90 1    
   176   89  210 1    
   177   90   91 1    
   178   90   92 1    
   179   90  211 1    
   180   91  212 1    
   181   91  213 1    
   182   91  214 1    
   183   92   93 2    
   184   92   94 am   BACKBONE|DICT|INTERRES
   185   94   95 1    
   186   94  215 1    
   187   95   96 1    
   188   95   97 1    
   189   95  216 1    
   190   96  217 1    
   191   96  218 1    
   192   96  219 1    
   193   97   98 2    
   194   97   99 am   BACKBONE|DICT|INTERRES
   195   99  100 1    
   196   99  220 1    
   197  100  101 1    
   198  100  102 1    
   199  100  221 1    
   200  101  222 1    
   201  101  223 1    
   202  101  224 1    
   203  102  103 2    
   204  102  104 am   BACKBONE|DICT|INTERRES
   205  104  105 1    
   206  104  225 1    
   207  105  106 1    
   208  105  107 1    
   209  105  226 1    
   210  106  227 1    
   211  106  228 1    
   212  106  229 1    
   213  107  108 2    
   214  107  109 am   BACKBONE|DICT|INTERRES
   215  109  110 1    
   216  109  230 1    
   217  110  111 1    
   218  110  112 1    
   219  110  231 1    
   220  111  232 1    
   221  111  233 1    
   222  111  234 1    
   223  112  113 2    
   224  112  114 am   BACKBONE|DICT|INTERRES
   225  114  115 1    
   226  114  235 1    
   227  115  116 1    
   228  115  117 1    
   229  115  236 1    
   230  116  237 1    
   231  116  238 1    
   232  116  239 1    
   233  117  118 2    
   234  117  119 am   BACKBONE|DICT|INTERRES
   235  119  120 1    
   236  119  240 1    
   237  120  121 1    
   238  120  124 1    
   239  120  241 1    
   240  121  122 am   BACKBONE|DICT|INTERRES
   241  121  123 2    
   242  122  242 1    
   243  122  243 1    
   244  124  125 1    
   245  124  244 1    
   246  124  245 1    
   247  125  126 1    
   248  126  246 1    
   249  126  247 1    
@<TRIPOS>SUBSTRUCTURE
     1 UNK         1 GROUP             0       ****    0 ROOT    
