@<TRIPOS>MOLECULE
3R540
247   249    1
SMALL
USER_CHARGES


@<TRIPOS>ATOM
      1 CA          4.3235  -16.8318  -46.6857 C.3       0 UNK        -0.1800 
      2 C           3.3752  -15.6441  -46.6240 C.2       0 UNK         0.5000 
      3 O           3.4707  -14.8339  -45.7020 O.2       0 UNK        -0.5000 
      4 N           2.4662  -15.5266  -47.6031 N.am      1 UNK        -0.5000 
      5 CA          1.4361  -14.4789  -47.6809 C.3       1 UNK         0.1400 
      6 C6          0.4366  -14.7122  -48.8405 C.3       23 UNK        -0.0398 
      7 S7         -0.5096  -16.2677  -48.6877 S.3       23 UNK        -0.2404 
      8 C8         -1.9726  -15.6774  -47.7779 C.3       23 UNK        -0.0205 
      9 C9         -3.1072  -16.6894  -47.7777 C.ar      23 UNK        -0.0193 
     10 C10        -3.8989  -16.8300  -48.9183 C.ar      23 UNK        -0.1150 
     11 C11        -4.9972  -17.6911  -48.9213 C.ar      23 UNK        -0.0193 
     12 C12        -5.3024  -18.4143  -47.7634 C.ar      23 UNK        -0.1150 
     13 C13        -4.5171  -18.2952  -46.6094 C.ar      23 UNK        -0.0193 
     14 C14        -3.4141  -17.4283  -46.6293 C.ar      23 UNK        -0.1150 
     15 C15        -4.9531  -19.0486  -45.3476 C.3       23 UNK        -0.0205 
     16 S16        -3.6553  -19.3354  -44.0890 S.3       23 UNK        -0.2404 
     17 C17        -3.0019  -20.9747  -44.5597 C.3       23 UNK        -0.0398 
     18 CA         -1.9220  -20.8899  -45.6587 C.3       11 UNK         0.1400 
     19 N          -0.8076  -20.0111  -45.2877 N.am      11 UNK        -0.5000 
     20 C           0.0763  -19.5065  -46.1576 C.2       10 UNK         0.5000 
     21 O           0.0884  -19.7845  -47.3560 O.2       10 UNK        -0.5000 
     22 CA          1.1682  -18.6062  -45.5682 C.3       10 UNK         0.1400 
     23 CB          0.5947  -17.2571  -45.1183 C.3       10 UNK        -0.1800 
     24 N           1.8165  -19.2647  -44.4375 N.am      10 UNK        -0.5000 
     25 C           2.7528  -20.2162  -44.5618 C.2       9 UNK         0.5000 
     26 O           3.2259  -20.5660  -45.6425 O.2       9 UNK        -0.5000 
     27 CA          3.2395  -20.9064  -43.2718 C.3       9 UNK         0.1400 
     28 CB          4.5343  -20.2480  -42.7721 C.3       9 UNK        -0.1800 
     29 N           2.2522  -20.8882  -42.1916 N.am      9 UNK        -0.5000 
     30 C           1.0790  -21.5378  -42.2041 C.2       8 UNK         0.5000 
     31 O           0.7210  -22.2824  -43.1140 O.2       8 UNK        -0.5000 
     32 CA          0.1223  -21.2615  -41.0271 C.3       8 UNK         0.1400 
     33 CB          0.3147  -22.3060  -39.9180 C.3       8 UNK        -0.1800 
     34 N           0.2842  -19.9174  -40.4623 N.am      8 UNK        -0.5000 
     35 C           0.0589  -18.7836  -41.1391 C.2       7 UNK         0.5000 
     36 O          -0.3414  -18.7591  -42.3050 O.2       7 UNK        -0.5000 
     37 CA          0.4495  -17.4799  -40.4235 C.3       7 UNK         0.1400 
     38 CB          1.9308  -17.1644  -40.6881 C.3       7 UNK        -0.1800 
     39 N          -0.3657  -16.3446  -40.8534 N.am      7 UNK        -0.5000 
     40 C          -1.6339  -16.1421  -40.4660 C.2       6 UNK         0.5000 
     41 O          -2.2391  -16.9078  -39.7136 O.2       6 UNK        -0.5000 
     42 CA         -2.3462  -14.8594  -40.9464 C.3       6 UNK         0.1400 
     43 CB         -2.4849  -13.8588  -39.7875 C.3       6 UNK        -0.1800 
     44 N          -1.6655  -14.1903  -42.0541 N.am      6 UNK        -0.5000 
     45 C          -1.7434  -14.5713  -43.3347 C.2       5 UNK         0.5000 
     46 O          -2.4597  -15.4900  -43.7290 O.2       5 UNK        -0.5000 
     47 CA         -0.8718  -13.8086  -44.3535 C.3       5 UNK         0.1400 
     48 CB         -1.7283  -12.8497  -45.1947 C.3       5 UNK        -0.1800 
     49 N           0.2654  -13.0684  -43.7932 N.am      5 UNK        -0.5000 
     50 C           1.2796  -13.6180  -43.1139 C.2       4 UNK         0.5000 
     51 O           1.3390  -14.8141  -42.8338 O.2       4 UNK        -0.5000 
     52 CA          2.4065  -12.6787  -42.6733 C.3       4 UNK         0.1400 
     53 CB          2.9679  -13.0777  -41.2922 C.3       4 UNK        -0.1800 
     54 N           3.4584  -12.7095  -43.6841 N.am      4 UNK        -0.5000 
     55 C           4.4443  -11.8097  -43.7879 C.2       3 UNK         0.5000 
     56 O           4.5441  -10.8156  -43.0673 O.2       3 UNK        -0.5000 
     57 CA          5.4918  -12.0531  -44.8843 C.3       3 UNK         0.1400 
     58 CB          6.3687  -13.2726  -44.5531 C.3       3 UNK        -0.1800 
     59 N           4.8556  -12.2453  -46.1852 N.am      3 UNK        -0.5000 
     60 C           4.6223  -11.2639  -47.0681 C.2       2 UNK         0.5000 
     61 O           4.9257  -10.0860  -46.8738 O.2       2 UNK        -0.5000 
     62 CA          3.9581  -11.6525  -48.4050 C.3       2 UNK         0.1400 
     63 CB          5.0155  -11.7662  -49.5142 C.3       2 UNK        -0.1800 
     64 N           3.2125  -12.9092  -48.3365 N.am      2 UNK        -0.5000 
     65 C           2.0157  -13.0496  -47.7513 C.2       1 UNK         0.5000 
     66 O           1.3842  -12.1157  -47.2569 O.2       1 UNK        -0.5000 
     67 C          -1.4689  -22.2937  -46.1233 C.2       11 UNK         0.5000 
     68 O          -2.2637  -23.0118  -46.7275 O.2       11 UNK        -0.5000 
     69 N          -0.1954  -22.6521  -45.9110 N.am      12 UNK        -0.5000 
     70 CA          0.4503  -23.8163  -46.5187 C.3       12 UNK         0.1400 
     71 CB          1.8675  -23.9752  -45.9500 C.3       12 UNK        -0.1800 
     72 C           0.4897  -23.7361  -48.0586 C.2       12 UNK         0.5000 
     73 O           0.3463  -24.7656  -48.7173 O.2       12 UNK        -0.5000 
     74 N           0.6268  -22.5194  -48.6104 N.am      13 UNK        -0.5000 
     75 CA          0.5425  -22.2645  -50.0499 C.3       13 UNK         0.1400 
     76 CB          1.0928  -20.8666  -50.3663 C.3       13 UNK        -0.1800 
     77 C          -0.8963  -22.4219  -50.5735 C.2       13 UNK         0.5000 
     78 O          -1.0894  -22.9549  -51.6656 O.2       13 UNK        -0.5000 
     79 N          -1.8814  -22.0161  -49.7585 N.am      14 UNK        -0.5000 
     80 CA         -3.3076  -22.2139  -50.0169 C.3       14 UNK         0.1400 
     81 CB         -4.1407  -21.4596  -48.9712 C.3       14 UNK        -0.1800 
     82 C          -3.6849  -23.7016  -50.0391 C.2       14 UNK         0.5000 
     83 O          -4.3854  -24.1327  -50.9523 O.2       14 UNK        -0.5000 
     84 N          -3.1745  -24.4631  -49.0623 N.am      15 UNK        -0.5000 
     85 CA         -3.3375  -25.9129  -48.9636 C.3       15 UNK         0.1400 
     86 CB         -2.7820  -26.3958  -47.6155 C.3       15 UNK        -0.1800 
     87 C          -2.6805  -26.6734  -50.1314 C.2       15 UNK         0.5000 
     88 O          -3.2540  -27.6515  -50.6109 O.2       15 UNK        -0.5000 
     89 N          -1.5056  -26.2050  -50.5769 N.am      16 UNK        -0.5000 
     90 CA         -0.7818  -26.7467  -51.7270 C.3       16 UNK         0.1400 
     91 CB          0.6497  -26.1892  -51.7473 C.3       16 UNK        -0.1800 
     92 C          -1.4967  -26.4694  -53.0623 C.2       16 UNK         0.5000 
     93 O          -1.5937  -27.3730  -53.8939 O.2       16 UNK        -0.5000 
     94 N          -1.9860  -25.2342  -53.2432 N.am      17 UNK        -0.5000 
     95 CA         -2.7391  -24.8076  -54.4242 C.3       17 UNK         0.1400 
     96 CB         -2.8502  -23.2742  -54.4286 C.3       17 UNK        -0.1800 
     97 C          -4.1353  -25.4532  -54.5043 C.2       17 UNK         0.5000 
     98 O          -4.5546  -25.8605  -55.5880 O.2       17 UNK        -0.5000 
     99 N          -4.8112  -25.5277  -53.3493 N.am      18 UNK        -0.5000 
    100 CA        -6.1670  -26.0255  -53.1121 C.3       18 UNK         0.1400 
    101 CB        -6.1581  -27.5675  -53.1490 C.3       18 UNK        -0.1800 
    102 C         -7.2416  -25.4081  -54.0436 C.2       18 UNK         0.5000 
    103 O         -7.8981  -26.1489  -54.7760 O.2       18 UNK        -0.5000 
    104 N         -7.4556  -24.0844  -54.0623 N.am      19 UNK        -0.5000 
    105 CA        -6.7943  -23.0141  -53.3168 C.3       19 UNK         0.1400 
    106 CB        -7.4635  -22.7995  -51.9470 C.3       19 UNK        -0.1800 
    107 C         -6.8247  -21.7633  -54.2014 C.2       19 UNK         0.5000 
    108 O         -5.7809  -21.3631  -54.7173 O.2       19 UNK        -0.5000 
    109 N         -8.0333  -21.2219  -54.4207 N.am      20 UNK        -0.5000 
    110 CA        -8.3524  -20.0963  -55.3060 C.3       20 UNK         0.1400 
    111 CB        -8.2428  -20.5363  -56.7838 C.3       20 UNK        -0.1800 
    112 C         -7.5337  -18.8321  -54.9674 C.2       20 UNK         0.5000 
    113 O         -7.8096  -18.1910  -53.9528 O.2       20 UNK        -0.5000 
    114 N         -6.5470  -18.5029  -55.8117 N.am      21 UNK        -0.5000 
    115 CA        -5.6160  -17.3885  -55.6281 C.3       21 UNK         0.1400 
    116 CB        -4.9520  -17.0760  -56.9785 C.3       21 UNK        -0.1800 
    117 C         -4.5452  -17.6495  -54.5484 C.2       21 UNK         0.5000 
    118 O         -3.9208  -16.6930  -54.0881 O.2       21 UNK        -0.5000 
    119 N         -4.3478  -18.9212  -54.1713 N.am      22 UNK        -0.5000 
    120 CA        -3.4153  -19.3922  -53.1315 C.3       22 UNK         0.1400 
    121 C         -1.9064  -19.2502  -53.4966 C.2       22 UNK         0.5000 
    122 N         -1.5480  -19.1023  -54.7664 N.am      22 UNK        -0.7600 
    123 O         -1.0422  -19.3012  -52.6273 O.2       22 UNK        -0.5000 
    124 C124       -3.7485  -18.8379  -51.7180 C.3       23 UNK        -0.0398 
    125 S125       -5.4547  -19.2336  -51.1979 S.3       23 UNK        -0.2404 
    126 C126       -5.8757  -17.7979  -50.1621 C.3       23 UNK        -0.0205 
    127 H127        5.3522  -16.4848  -46.7809 H         1 UNK         0.0600 
    128 H128        4.1021  -17.4851  -47.5299 H         1 UNK         0.0600 
    129 H129        4.2446  -17.4198  -45.7711 H         1 UNK         0.0600 
    130 H130        2.4312  -16.2226  -48.3346 H         1 UNK         0.3000 
    131 H131        0.8783  -14.5239  -46.7478 H         1 UNK         0.0600 
    132 H132       -0.2690  -13.8827  -48.9166 H         1 UNK         0.0800 
    133 H133        0.9671  -14.7354  -49.7939 H         1 UNK         0.0800 
    134 H134       -2.3338  -14.7484  -48.2215 H         1 UNK         0.0800 
    135 H135       -1.6872  -15.4374  -46.7555 H         1 UNK         0.0800 
    136 H136       -3.6682  -16.2487  -49.7999 H         1 UNK         0.1150 
    137 H137       -6.1657  -19.0651  -47.7597 H         1 UNK         0.1150 
    138 H138       -2.8121  -17.2943  -45.7419 H         1 UNK         0.1150 
    139 H139       -5.7441  -18.4638  -44.8768 H         1 UNK         0.0800 
    140 H140       -5.4065  -20.0025  -45.6206 H         1 UNK         0.0800 
    141 H141       -3.8322  -21.6083  -44.8769 H         1 UNK         0.0800 
    142 H142       -2.5891  -21.4418  -43.6639 H         1 UNK         0.0800 
    143 H143       -2.3973  -20.4371  -46.5315 H         1 UNK         0.0600 
    144 H144       -0.7601  -19.7236  -44.3172 H         1 UNK         0.3000 
    145 H145        1.9078  -18.4175  -46.3480 H         1 UNK         0.0600 
    146 H146        1.3648  -16.6396  -44.6596 H         1 UNK         0.0600 
    147 H147        0.2023  -16.7087  -45.9694 H         1 UNK         0.0600 
    148 H148       -0.2217  -17.3608  -44.4050 H         1 UNK         0.0600 
    149 H149        1.4335  -19.0626  -43.5231 H         1 UNK         0.3000 
    150 H150        3.4539  -21.9488  -43.5170 H         1 UNK         0.0600 
    151 H151        5.3050  -20.2663  -43.5440 H         1 UNK         0.0600 
    152 H152        4.9342  -20.7716  -41.9035 H         1 UNK         0.0600 
    153 H153        4.3742  -19.2056  -42.4932 H         1 UNK         0.0600 
    154 H154        2.4640  -20.3047  -41.3964 H         1 UNK         0.3000 
    155 H155       -0.8983  -21.3462  -41.4064 H         1 UNK         0.0600 
    156 H156        1.3137  -22.2539  -39.4835 H         1 UNK         0.0600 
    157 H157        0.1777  -23.3164  -40.3061 H         1 UNK         0.0600 
    158 H158       -0.4095  -22.1671  -39.1151 H         1 UNK         0.0600 
    159 H159        0.6229  -19.8658  -39.5122 H         1 UNK         0.3000 
    160 H160        0.3130  -17.6129  -39.3482 H         1 UNK         0.0600 
    161 H161        2.2228  -16.2194  -40.2295 H         1 UNK         0.0600 
    162 H162        2.1446  -17.0976  -41.7558 H         1 UNK         0.0600 
    163 H163        2.5775  -17.9388  -40.2743 H         1 UNK         0.0600 
    164 H164        0.0610  -15.7159  -41.5255 H         1 UNK         0.3000 
    165 H165       -3.3496  -15.1452  -41.2694 H         1 UNK         0.0600 
    166 H166       -3.0410  -12.9730  -40.0950 H         1 UNK         0.0600 
    167 H167       -3.0230  -14.3025  -38.9488 H         1 UNK         0.0600 
    168 H168       -1.5115  -13.5341  -39.4177 H         1 UNK         0.0600 
    169 H169       -1.0543  -13.4234  -41.8175 H         1 UNK         0.3000 
    170 H170       -0.4601  -14.5692  -45.0127 H         1 UNK         0.0600 
    171 H171       -2.5847  -13.3645  -45.6322 H         1 UNK         0.0600 
    172 H172       -2.1149  -12.0264  -44.5930 H         1 UNK         0.0600 
    173 H173       -1.1527  -12.4250  -46.0174 H         1 UNK         0.0600 
    174 H174        0.2944  -12.0788  -43.9937 H         1 UNK         0.3000 
    175 H175        2.0029  -11.6663  -42.6052 H         1 UNK         0.0600 
    176 H176        2.1706  -13.1463  -40.5511 H         1 UNK         0.0600 
    177 H177        3.6861  -12.3449  -40.9249 H         1 UNK         0.0600 
    178 H178        3.4684  -14.0463  -41.3266 H         1 UNK         0.0600 
    179 H179        3.4294  -13.4971  -44.3294 H         1 UNK         0.3000 
    180 H180        6.1482  -11.1808  -44.9203 H         1 UNK         0.0600 
    181 H181        5.7888  -14.1944  -44.5006 H         1 UNK         0.0600 
    182 H182        6.8651  -13.1439  -43.5905 H         1 UNK         0.0600 
    183 H183        7.1468  -13.4112  -45.3038 H         1 UNK         0.0600 
    184 H184        4.5029  -13.1748  -46.3772 H         1 UNK         0.3000 
    185 H185        3.2672  -10.8508  -48.6749 H         1 UNK         0.0600 
    186 H186        5.5745  -10.8352  -49.6185 H         1 UNK         0.0600 
    187 H187        5.7349  -12.5590  -49.3052 H         1 UNK         0.0600 
    188 H188        4.5542  -11.9759  -50.4794 H         1 UNK         0.0600 
    189 H189        3.6646  -13.7292  -48.7143 H         1 UNK         0.3000 
    190 H190        0.3791  -22.0659  -45.3201 H         1 UNK         0.3000 
    191 H191       -0.1290  -24.7002  -46.2448 H         1 UNK         0.0600 
    192 H192        2.4944  -23.1154  -46.1861 H         1 UNK         0.0600 
    193 H193        2.3552  -24.8594  -46.3623 H         1 UNK         0.0600 
    194 H194        1.8489  -24.0912  -44.8663 H         1 UNK         0.0600 
    195 H195        0.6937  -21.7043  -48.0108 H         1 UNK         0.3000 
    196 H196        1.1700  -22.9962  -50.5627 H         1 UNK         0.0600 
    197 H197        0.4619  -20.0784  -49.9539 H         1 UNK         0.0600 
    198 H198        1.1429  -20.7078  -51.4441 H         1 UNK         0.0600 
    199 H199        2.0995  -20.7355  -49.9694 H         1 UNK         0.0600 
    200 H200       -1.6293  -21.6088  -48.8707 H         1 UNK         0.3000 
    201 H201       -3.5287  -21.7959  -51.0003 H         1 UNK         0.0600 
    202 H202       -3.8010  -20.4299  -48.8732 H         1 UNK         0.0600 
    203 H203       -4.1010  -21.9177  -47.9855 H         1 UNK         0.0600 
    204 H204       -5.1914  -21.4374  -49.2608 H         1 UNK         0.0600 
    205 H205       -2.6600  -24.0073  -48.3136 H         1 UNK         0.3000 
    206 H206       -4.4077  -26.1281  -48.9883 H         1 UNK         0.0600 
    207 H207       -3.2777  -25.8965  -46.7827 H         1 UNK         0.0600 
    208 H208       -2.9361  -27.4684  -47.4919 H         1 UNK         0.0600 
    209 H209       -1.7120  -26.2059  -47.5298 H         1 UNK         0.0600 
    210 H210       -1.0641  -25.4400  -50.0792 H         1 UNK         0.3000 
    211 H211       -0.7173  -27.8298  -51.6036 H         1 UNK         0.0600 
    212 H212        0.6593  -25.1036  -51.8437 H         1 UNK         0.0600 
    213 H213        1.2160  -26.5982  -52.5849 H         1 UNK         0.0600 
    214 H214        1.1864  -26.4486  -50.8346 H         1 UNK         0.0600 
    215 H215       -1.8093  -24.5256  -52.5362 H         1 UNK         0.3000 
    216 H216       -2.1804  -25.1092  -55.3127 H         1 UNK         0.0600 
    217 H217       -3.4232  -22.9228  -55.2876 H         1 UNK         0.0600 
    218 H218       -1.8664  -22.8074  -54.4801 H         1 UNK         0.0600 
    219 H219       -3.3447  -22.9051  -53.5298 H         1 UNK         0.0600 
    220 H220       -4.3809  -25.1128  -52.5259 H         1 UNK         0.3000 
    221 H221       -6.4308  -25.7300  -52.0965 H         1 UNK         0.0600 
    222 H222       -7.1385  -27.9725  -52.8960 H         1 UNK         0.0600 
    223 H223       -5.4455  -27.9726  -52.4303 H         1 UNK         0.0600 
    224 H224       -5.8882  -27.9467  -54.1353 H         1 UNK         0.0600 
    225 H225       -8.1320  -23.7467  -54.7320 H         1 UNK         0.3000 
    226 H226       -5.7437  -23.2319  -53.1472 H         1 UNK         0.0600 
    227 H227       -7.0445  -21.9279  -51.4427 H         1 UNK         0.0600 
    228 H228       -8.5395  -22.6474  -52.0331 H         1 UNK         0.0600 
    229 H229       -7.3019  -23.6541  -51.2909 H         1 UNK         0.0600 
    230 H230       -8.8208  -21.6028  -53.9157 H         1 UNK         0.3000 
    231 H231       -9.3962  -19.8395  -55.1192 H         1 UNK         0.0600 
    232 H232       -8.9337  -21.3522  -56.9961 H         1 UNK         0.0600 
    233 H233       -7.2414  -20.8821  -57.0423 H         1 UNK         0.0600 
    234 H234       -8.4991  -19.7184  -57.4585 H         1 UNK         0.0600 
    235 H235       -6.3812  -19.1024  -56.6069 H         1 UNK         0.3000 
    236 H236       -6.1856  -16.5104  -55.3166 H         1 UNK         0.0600 
    237 H237       -5.6951  -16.8179  -57.7332 H         1 UNK         0.0600 
    238 H238       -4.2705  -16.2286  -56.8931 H         1 UNK         0.0600 
    239 H239       -4.3759  -17.9244  -57.3498 H         1 UNK         0.0600 
    240 H240       -4.9197  -19.6499  -54.5889 H         1 UNK         0.3000 
    241 H241       -3.5706  -20.4700  -53.0878 H         1 UNK         0.0600 
    242 H242       -0.5710  -19.0193  -54.9982 H         1 UNK         0.3800 
    243 H243       -2.2432  -19.0671  -55.4941 H         1 UNK         0.3800 
    244 H244       -3.5971  -17.7589  -51.6933 H         1 UNK         0.0800 
    245 H245       -3.0726  -19.2531  -50.9689 H         1 UNK         0.0800 
    246 H246       -6.9211  -17.8791  -49.8615 H         1 UNK         0.0800 
    247 H247       -5.8046  -16.8897  -50.7629 H         1 UNK         0.0800 
@<TRIPOS>BOND
     1    1    2 1    
     2    1  127 1    
     3    1  128 1    
     4    1  129 1    
     5    2    3 2    
     6    2    4 am   BACKBONE|DICT|INTERRES
     7    4    5 1    
     8    4  130 1    
     9    5    6 1    
    10    5   65 1    
    11    5  131 1    
    12    6    7 1    
    13    6  132 1    
    14    6  133 1    
    15    7    8 1    
    16    8    9 1    
    17    8  134 1    
    18    8  135 1    
    19    9   10 ar   
    20    9   14 ar   
    21   10   11 ar   
    22   10  136 1    
    23   11   12 ar   
    24   11  126 1    
    25   12   13 ar   
    26   12  137 1    
    27   13   14 ar   
    28   13   15 1    
    29   14  138 1    
    30   15   16 1    
    31   15  139 1    
    32   15  140 1    
    33   16   17 1    
    34   17   18 1    
    35   17  141 1    
    36   17  142 1    
    37   18   19 1    
    38   18   67 1    
    39   18  143 1    
    40   19   20 am   BACKBONE|DICT|INTERRES
    41   19  144 1    
    42   20   21 2    
    43   20   22 1    
    44   22   23 1    
    45   22   24 1    
    46   22  145 1    
    47   23  146 1    
    48   23  147 1    
    49   23  148 1    
    50   24   25 am   BACKBONE|DICT|INTERRES
    51   24  149 1    
    52   25   26 2    
    53   25   27 1    
    54   27   28 1    
    55   27   29 1    
    56   27  150 1    
    57   28  151 1    
    58   28  152 1    
    59   28  153 1    
    60   29   30 am   BACKBONE|DICT|INTERRES
    61   29  154 1    
    62   30   31 2    
    63   30   32 1    
    64   32   33 1    
    65   32   34 1    
    66   32  155 1    
    67   33  156 1    
    68   33  157 1    
    69   33  158 1    
    70   34   35 am   BACKBONE|DICT|INTERRES
    71   34  159 1    
    72   35   36 2    
    73   35   37 1    
    74   37   38 1    
    75   37   39 1    
    76   37  160 1    
    77   38  161 1    
    78   38  162 1    
    79   38  163 1    
    80   39   40 am   BACKBONE|DICT|INTERRES
    81   39  164 1    
    82   40   41 2    
    83   40   42 1    
    84   42   43 1    
    85   42   44 1    
    86   42  165 1    
    87   43  166 1    
    88   43  167 1    
    89   43  168 1    
    90   44   45 am   BACKBONE|DICT|INTERRES
    91   44  169 1    
    92   45   46 2    
    93   45   47 1    
    94   47   48 1    
    95   47   49 1    
    96   47  170 1    
    97   48  171 1    
    98   48  172 1    
    99   48  173 1    
   100   49   50 am   BACKBONE|DICT|INTERRES
   101   49  174 1    
   102   50   51 2    
   103   50   52 1    
   104   52   53 1    
   105   52   54 1    
   106   52  175 1    
   107   53  176 1    
   108   53  177 1    
   109   53  178 1    
   110   54   55 am   BACKBONE|DICT|INTERRES
   111   54  179 1    
   112   55   56 2    
   113   55   57 1    
   114   57   58 1    
   115   57   59 1    
   116   57  180 1    
   117   58  181 1    
   118   58  182 1    
   119   58  183 1    
   120   59   60 am   BACKBONE|DICT|INTERRES
   121   59  184 1    
   122   60   61 2    
   123   60   62 1    
   124   62   63 1    
   125   62   64 1    
   126   62  185 1    
   127   63  186 1    
   128   63  187 1    
   129   63  188 1    
   130   64   65 am   BACKBONE|DICT|INTERRES
   131   64  189 1    
   132   65   66 2    
   133   67   68 2    
   134   67   69 am   BACKBONE|DICT|INTERRES
   135   69   70 1    
   136   69  190 1    
   137   70   71 1    
   138   70   72 1    
   139   70  191 1    
   140   71  192 1    
   141   71  193 1    
   142   71  194 1    
   143   72   73 2    
   144   72   74 am   BACKBONE|DICT|INTERRES
   145   74   75 1    
   146   74  195 1    
   147   75   76 1    
   148   75   77 1    
   149   75  196 1    
   150   76  197 1    
   151   76  198 1    
   152   76  199 1    
   153   77   78 2    
   154   77   79 am   BACKBONE|DICT|INTERRES
   155   79   80 1    
   156   79  200 1    
   157   80   81 1    
   158   80   82 1    
   159   80  201 1    
   160   81  202 1    
   161   81  203 1    
   162   81  204 1    
   163   82   83 2    
   164   82   84 am   BACKBONE|DICT|INTERRES
   165   84   85 1    
   166   84  205 1    
   167   85   86 1    
   168   85   87 1    
   169   85  206 1    
   170   86  207 1    
   171   86  208 1    
   172   86  209 1    
   173   87   88 2    
   174   87   89 am   BACKBONE|DICT|INTERRES
   175   89   90 1    
   176   89  210 1    
   177   90   91 1    
   178   90   92 1    
   179   90  211 1    
   180   91  212 1    
   181   91  213 1    
   182   91  214 1    
   183   92   93 2    
   184   92   94 am   BACKBONE|DICT|INTERRES
   185   94   95 1    
   186   94  215 1    
   187   95   96 1    
   188   95   97 1    
   189   95  216 1    
   190   96  217 1    
   191   96  218 1    
   192   96  219 1    
   193   97   98 2    
   194   97   99 am   BACKBONE|DICT|INTERRES
   195   99  100 1    
   196   99  220 1    
   197  100  101 1    
   198  100  102 1    
   199  100  221 1    
   200  101  222 1    
   201  101  223 1    
   202  101  224 1    
   203  102  103 2    
   204  102  104 am   BACKBONE|DICT|INTERRES
   205  104  105 1    
   206  104  225 1    
   207  105  106 1    
   208  105  107 1    
   209  105  226 1    
   210  106  227 1    
   211  106  228 1    
   212  106  229 1    
   213  107  108 2    
   214  107  109 am   BACKBONE|DICT|INTERRES
   215  109  110 1    
   216  109  230 1    
   217  110  111 1    
   218  110  112 1    
   219  110  231 1    
   220  111  232 1    
   221  111  233 1    
   222  111  234 1    
   223  112  113 2    
   224  112  114 am   BACKBONE|DICT|INTERRES
   225  114  115 1    
   226  114  235 1    
   227  115  116 1    
   228  115  117 1    
   229  115  236 1    
   230  116  237 1    
   231  116  238 1    
   232  116  239 1    
   233  117  118 2    
   234  117  119 am   BACKBONE|DICT|INTERRES
   235  119  120 1    
   236  119  240 1    
   237  120  121 1    
   238  120  124 1    
   239  120  241 1    
   240  121  122 am   BACKBONE|DICT|INTERRES
   241  121  123 2    
   242  122  242 1    
   243  122  243 1    
   244  124  125 1    
   245  124  244 1    
   246  124  245 1    
   247  125  126 1    
   248  126  246 1    
   249  126  247 1    
@<TRIPOS>SUBSTRUCTURE
     1 UNK         1 GROUP             0       ****    0 ROOT    
