@<TRIPOS>MOLECULE
3R540
247   249    1
SMALL
USER_CHARGES


@<TRIPOS>ATOM
      1 CA         -2.6116  -14.8429  -45.3318 C.3       0 UNK        -0.1800 
      2 C          -1.9674  -13.5786  -45.8864 C.2       0 UNK         0.5000 
      3 O          -2.4858  -12.4816  -45.6777 O.2       0 UNK        -0.5000 
      4 N          -0.8441  -13.7370  -46.5976 N.am      1 UNK        -0.5000 
      5 CA         -0.0062  -12.6746  -47.1616 C.3       1 UNK         0.1400 
      6 C6          1.1733  -13.2408  -47.9961 C.3       23 UNK        -0.0398 
      7 S7          0.6639  -14.4463  -49.2735 S.3       23 UNK        -0.2404 
      8 C8          2.0950  -15.5727  -49.2622 C.3       23 UNK        -0.0205 
      9 C9          1.9194  -16.7374  -50.2250 C.ar      23 UNK        -0.0193 
     10 C10         2.3253  -16.6073  -51.5564 C.ar      23 UNK        -0.1150 
     11 C11         2.2254  -17.6852  -52.4405 C.ar      23 UNK        -0.0193 
     12 C12         1.7252  -18.9053  -51.9754 C.ar      23 UNK        -0.1150 
     13 C13         1.2881  -19.0425  -50.6557 C.ar      23 UNK        -0.0193 
     14 C14         1.3871  -17.9542  -49.7822 C.ar      23 UNK        -0.1150 
     15 C15         0.6775  -20.3594  -50.2010 C.3       23 UNK        -0.0205 
     16 S16         1.9047  -21.4607  -49.4215 S.3       23 UNK        -0.2404 
     17 C17         1.5262  -21.2237  -47.6503 C.3       23 UNK        -0.0398 
     18 CA          0.6258  -22.3259  -47.0309 C.3       11 UNK         0.1400 
     19 N           0.4594  -22.1346  -45.5860 N.am      11 UNK        -0.5000 
     20 C          -0.1843  -22.9735  -44.7598 C.2       10 UNK         0.5000 
     21 O          -0.6518  -24.0574  -45.1098 O.2       10 UNK        -0.5000 
     22 CA         -0.3898  -22.4966  -43.3091 C.3       10 UNK         0.1400 
     23 CB          0.8823  -22.7064  -42.4748 C.3       10 UNK        -0.1800 
     24 N          -0.8072  -21.0950  -43.2324 N.am      10 UNK        -0.5000 
     25 C          -1.9596  -20.6185  -43.7279 C.2       9 UNK         0.5000 
     26 O          -2.8251  -21.3245  -44.2433 O.2       9 UNK        -0.5000 
     27 CA         -2.1489  -19.0904  -43.7061 C.3       9 UNK         0.1400 
     28 CB         -2.6124  -18.6055  -42.3251 C.3       9 UNK        -0.1800 
     29 N          -0.9319  -18.3804  -44.0975 N.am      9 UNK        -0.5000 
     30 C          -0.3546  -18.4774  -45.3025 C.2       8 UNK         0.5000 
     31 O          -0.8329  -19.1086  -46.2419 O.2       8 UNK        -0.5000 
     32 CA          1.0066  -17.7912  -45.4787 C.3       8 UNK         0.1400 
     33 CB          0.8133  -16.3171  -45.8287 C.3       8 UNK        -0.1800 
     34 N           1.8429  -17.9223  -44.2887 N.am      8 UNK        -0.5000 
     35 C           2.4291  -19.0682  -43.9153 C.2       7 UNK         0.5000 
     36 O           2.3689  -20.1075  -44.5724 O.2       7 UNK        -0.5000 
     37 CA          3.1576  -19.0661  -42.5597 C.3       7 UNK         0.1400 
     38 CB          4.6289  -18.6599  -42.7254 C.3       7 UNK        -0.1800 
     39 N           2.5055  -18.1862  -41.5882 N.am      7 UNK        -0.5000 
     40 C           1.3278  -18.4671  -41.0111 C.2       6 UNK         0.5000 
     41 O           0.7065  -19.5108  -41.2126 O.2       6 UNK        -0.5000 
     42 CA          0.7149  -17.3884  -40.0972 C.3       6 UNK         0.1400 
     43 CB          1.2045  -17.5655  -38.6526 C.3       6 UNK        -0.1800 
     44 N           0.9937  -16.0198  -40.5370 N.am      6 UNK        -0.5000 
     45 C           0.6106  -15.4938  -41.7084 C.2       5 UNK         0.5000 
     46 O          -0.0379  -16.1175  -42.5478 O.2       5 UNK        -0.5000 
     47 CA          1.0427  -14.0451  -42.0141 C.3       5 UNK         0.1400 
     48 CB          1.3828  -13.2216  -40.7532 C.3       5 UNK        -0.1800 
     49 N           2.1510  -13.9645  -42.9718 N.am      5 UNK        -0.5000 
     50 C           3.3461  -14.5728  -42.8963 C.2       4 UNK         0.5000 
     51 O           3.6361  -15.4140  -42.0444 O.2       4 UNK        -0.5000 
     52 CA          4.4173  -14.1554  -43.9240 C.3       4 UNK         0.1400 
     53 CB          4.4401  -15.0877  -45.1452 C.3       4 UNK        -0.1800 
     54 N           4.2721  -12.7728  -44.3830 N.am      4 UNK        -0.5000 
     55 C           4.6444  -11.6936  -43.6801 C.2       3 UNK         0.5000 
     56 O           5.1568  -11.7413  -42.5617 O.2       3 UNK        -0.5000 
     57 CA          4.3677  -10.3348  -44.3360 C.3       3 UNK         0.1400 
     58 CB          5.2860  -10.0986  -45.5506 C.3       3 UNK        -0.1800 
     59 N           2.9608  -10.2734  -44.7168 N.am      3 UNK        -0.5000 
     60 C           2.2573   -9.1792  -45.0123 C.2       2 UNK         0.5000 
     61 O           2.7512   -8.0522  -45.0827 O.2       2 UNK        -0.5000 
     62 CA          0.7434   -9.3897  -45.2527 C.3       2 UNK         0.1400 
     63 CB          0.0276   -8.0950  -45.6798 C.3       2 UNK        -0.1800 
     64 N           0.4243  -10.4398  -46.2282 N.am      2 UNK        -0.5000 
     65 C           0.5362  -11.7615  -46.0415 C.2       1 UNK         0.5000 
     66 O           1.0585  -12.2738  -45.0456 O.2       1 UNK        -0.5000 
     67 C          -0.7407  -22.4410  -47.7421 C.2       11 UNK         0.5000 
     68 O          -0.9580  -23.3946  -48.4890 O.2       11 UNK        -0.5000 
     69 N          -1.6470  -21.4909  -47.4710 N.am      12 UNK        -0.5000 
     70 CA         -3.0026  -21.4576  -48.0156 C.3       12 UNK         0.1400 
     71 CB         -3.7018  -20.1531  -47.6089 C.3       12 UNK        -0.1800 
     72 C          -3.8367  -22.6811  -47.6053 C.2       12 UNK         0.5000 
     73 O          -4.5055  -23.2578  -48.4610 O.2       12 UNK        -0.5000 
     74 N          -3.7526  -23.0834  -46.3296 N.am      13 UNK        -0.5000 
     75 CA         -4.4003  -24.2799  -45.7895 C.3       13 UNK         0.1400 
     76 CB         -4.2086  -24.3351  -44.2668 C.3       13 UNK        -0.1800 
     77 C          -3.9045  -25.5769  -46.4541 C.2       13 UNK         0.5000 
     78 O          -4.7266  -26.4091  -46.8400 O.2       13 UNK        -0.5000 
     79 N          -2.5806  -25.7013  -46.6309 N.am      14 UNK        -0.5000 
     80 CA         -1.9376  -26.8059  -47.3502 C.3       14 UNK         0.1400 
     81 CB         -0.4138  -26.7080  -47.1842 C.3       14 UNK        -0.1800 
     82 C          -2.3247  -26.8577  -48.8421 C.2       14 UNK         0.5000 
     83 O          -2.4580  -27.9463  -49.4011 O.2       14 UNK        -0.5000 
     84 N          -2.5507  -25.6816  -49.4398 N.am      15 UNK        -0.5000 
     85 CA         -3.0516  -25.4858  -50.7999 C.3       15 UNK         0.1400 
     86 CB         -2.5005  -24.1526  -51.3359 C.3       15 UNK        -0.1800 
     87 C          -4.5932  -25.5553  -50.9054 C.2       15 UNK         0.5000 
     88 O          -5.1405  -25.1060  -51.9123 O.2       15 UNK        -0.5000 
     89 N          -5.2713  -26.1022  -49.8835 N.am      16 UNK        -0.5000 
     90 CA         -6.7169  -26.3447  -49.8009 C.3       16 UNK         0.1400 
     91 CB         -7.1490  -27.4064  -50.8344 C.3       16 UNK        -0.1800 
     92 C          -7.5498  -25.0487  -49.8792 C.2       16 UNK         0.5000 
     93 O          -8.4875  -24.9567  -50.6726 O.2       16 UNK        -0.5000 
     94 N          -7.1651  -24.0678  -49.0515 N.am      17 UNK        -0.5000 
     95 CA         -7.6682  -22.6904  -48.9996 C.3       17 UNK         0.1400 
     96 CB         -9.1769  -22.6383  -48.6775 C.3       17 UNK        -0.1800 
     97 C          -7.2713  -21.8939  -50.2594 C.2       17 UNK         0.5000 
     98 O          -8.0779  -21.1310  -50.7938 O.2       17 UNK        -0.5000 
     99 N          -6.0186  -22.1001  -50.6946 N.am      18 UNK        -0.5000 
    100 CA        -5.3670  -21.5178  -51.8712 C.3       18 UNK         0.1400 
    101 CB        -5.0692  -20.0229  -51.6379 C.3       18 UNK        -0.1800 
    102 C         -6.1353  -21.7925  -53.1814 C.2       18 UNK         0.5000 
    103 O         -6.3980  -20.8694  -53.9550 O.2       18 UNK        -0.5000 
    104 N         -6.4931  -23.0654  -53.3976 N.am      19 UNK        -0.5000 
    105 CA        -7.2340  -23.5580  -54.5574 C.3       19 UNK         0.1400 
    106 CB        -7.6540  -25.0154  -54.3021 C.3       19 UNK        -0.1800 
    107 C         -6.4049  -23.4193  -55.8477 C.2       19 UNK         0.5000 
    108 O         -5.5501  -24.2644  -56.1206 O.2       19 UNK        -0.5000 
    109 N         -6.6537  -22.3274  -56.5859 N.am      20 UNK        -0.5000 
    110 CA        -5.9334  -21.8835  -57.7853 C.3       20 UNK         0.1400 
    111 CB        -6.1750  -22.8536  -58.9613 C.3       20 UNK        -0.1800 
    112 C         -4.4358  -21.6132  -57.5162 C.2       20 UNK         0.5000 
    113 O         -3.5907  -21.9146  -58.3618 O.2       20 UNK        -0.5000 
    114 N         -4.1377  -21.0563  -56.3359 N.am      21 UNK        -0.5000 
    115 CA        -2.7923  -20.7366  -55.8673 C.3       21 UNK         0.1400 
    116 CB        -2.4066  -21.7320  -54.7590 C.3       21 UNK        -0.1800 
    117 C         -2.7437  -19.2934  -55.3441 C.2       21 UNK         0.5000 
    118 O         -3.7858  -18.6901  -55.0788 O.2       21 UNK        -0.5000 
    119 N         -1.5207  -18.7780  -55.1877 N.am      22 UNK        -0.5000 
    120 CA        -1.2103  -17.4535  -54.6226 C.3       22 UNK         0.1400 
    121 C         -1.4036  -17.3230  -53.0820 C.2       22 UNK         0.5000 
    122 N         -1.6628  -18.3970  -52.3457 N.am      22 UNK        -0.7600 
    123 O         -1.3510  -16.2172  -52.5517 O.2       22 UNK        -0.5000 
    124 C124        0.1772  -16.9318  -55.0982 C.3       23 UNK        -0.0398 
    125 S125        1.5112  -18.1865  -55.1067 S.3       23 UNK        -0.2404 
    126 C126        2.6963  -17.5356  -53.8821 C.3       23 UNK        -0.0205 
    127 H127       -2.3962  -14.9372  -44.2671 H         1 UNK         0.0600 
    128 H128       -2.2445  -15.7384  -45.8338 H         1 UNK         0.0600 
    129 H129       -3.6932  -14.8055  -45.4612 H         1 UNK         0.0600 
    130 H130       -0.4886  -14.6692  -46.7409 H         1 UNK         0.3000 
    131 H131       -0.6414  -12.0814  -47.8224 H         1 UNK         0.0600 
    132 H132        1.9035  -13.7168  -47.3398 H         1 UNK         0.0800 
    133 H133        1.7036  -12.4291  -48.4972 H         1 UNK         0.0800 
    134 H134        2.2641  -15.9558  -48.2569 H         1 UNK         0.0800 
    135 H135        2.9924  -15.0102  -49.5248 H         1 UNK         0.0800 
    136 H136        2.7303  -15.6656  -51.8996 H         1 UNK         0.1150 
    137 H137        1.6552  -19.7466  -52.6503 H         1 UNK         0.1150 
    138 H138        1.0539  -18.0554  -48.7595 H         1 UNK         0.1150 
    139 H139       -0.1570  -20.1624  -49.5276 H         1 UNK         0.0800 
    140 H140        0.2453  -20.8807  -51.0566 H         1 UNK         0.0800 
    141 H141        1.0887  -20.2380  -47.5091 H         1 UNK         0.0800 
    142 H142        2.4792  -21.1989  -47.1204 H         1 UNK         0.0800 
    143 H143        1.1360  -23.2823  -47.1632 H         1 UNK         0.0600 
    144 H144        0.8654  -21.2907  -45.1959 H         1 UNK         0.3000 
    145 H145       -1.1846  -23.1033  -42.8704 H         1 UNK         0.0600 
    146 H146        0.7201  -22.4288  -41.4331 H         1 UNK         0.0600 
    147 H147        1.1895  -23.7528  -42.4892 H         1 UNK         0.0600 
    148 H148        1.7162  -22.1145  -42.8517 H         1 UNK         0.0600 
    149 H149       -0.1740  -20.4540  -42.7655 H         1 UNK         0.3000 
    150 H150       -2.9260  -18.8394  -44.4310 H         1 UNK         0.0600 
    151 H151       -3.5596  -19.0701  -42.0488 H         1 UNK         0.0600 
    152 H152       -2.7631  -17.5257  -42.3164 H         1 UNK         0.0600 
    153 H153       -1.8899  -18.8491  -41.5469 H         1 UNK         0.0600 
    154 H154       -0.5117  -17.7667  -43.4053 H         1 UNK         0.3000 
    155 H155        1.5247  -18.2661  -46.3134 H         1 UNK         0.0600 
    156 H156        1.7659  -15.8211  -45.9803 H         1 UNK         0.0600 
    157 H157        0.2797  -15.7766  -45.0486 H         1 UNK         0.0600 
    158 H158        0.2447  -16.2292  -46.7542 H         1 UNK         0.0600 
    159 H159        1.8737  -17.1332  -43.6596 H         1 UNK         0.3000 
    160 H160        3.1344  -20.0862  -42.1704 H         1 UNK         0.0600 
    161 H161        5.1622  -18.7203  -41.7766 H         1 UNK         0.0600 
    162 H162        5.1388  -19.3209  -43.4275 H         1 UNK         0.0600 
    163 H163        4.7308  -17.6425  -43.1005 H         1 UNK         0.0600 
    164 H164        2.9365  -17.2822  -41.4232 H         1 UNK         0.3000 
    165 H165       -0.3681  -17.5245  -40.1087 H         1 UNK         0.0600 
    166 H166        0.7098  -16.8650  -37.9795 H         1 UNK         0.0600 
    167 H167        0.9901  -18.5711  -38.2882 H         1 UNK         0.0600 
    168 H168        2.2808  -17.4086  -38.5703 H         1 UNK         0.0600 
    169 H169        1.5560  -15.4519  -39.9202 H         1 UNK         0.3000 
    170 H170        0.1862  -13.5706  -42.4959 H         1 UNK         0.0600 
    171 H171        2.2852  -13.5792  -40.2562 H         1 UNK         0.0600 
    172 H172        1.5458  -12.1747  -41.0097 H         1 UNK         0.0600 
    173 H173        0.5667  -13.2506  -40.0299 H         1 UNK         0.0600 
    174 H174        1.9765  -13.3419  -43.7549 H         1 UNK         0.3000 
    175 H175        5.3812  -14.2551  -43.4199 H         1 UNK         0.0600 
    176 H176        3.6884  -14.8076  -45.8801 H         1 UNK         0.0600 
    177 H177        5.4082  -15.0414  -45.6442 H         1 UNK         0.0600 
    178 H178        4.2698  -16.1285  -44.8692 H         1 UNK         0.0600 
    179 H179        3.8776  -12.6412  -45.3021 H         1 UNK         0.3000 
    180 H180        4.5615   -9.5596  -43.5916 H         1 UNK         0.0600 
    181 H181        5.0779  -10.8002  -46.3590 H         1 UNK         0.0600 
    182 H182        6.3348  -10.2148  -45.2746 H         1 UNK         0.0600 
    183 H183        5.1683   -9.0904  -45.9474 H         1 UNK         0.0600 
    184 H184        2.4396  -11.1450  -44.6626 H         1 UNK         0.3000 
    185 H185        0.3206   -9.6914  -44.2920 H         1 UNK         0.0600 
    186 H186        0.1764   -7.3019  -44.9458 H         1 UNK         0.0600 
    187 H187        0.3961   -7.7299  -46.6392 H         1 UNK         0.0600 
    188 H188       -1.0479   -8.2498  -45.7695 H         1 UNK         0.0600 
    189 H189        0.0193  -10.1122  -47.0933 H         1 UNK         0.3000 
    190 H190       -1.3818  -20.7117  -46.8713 H         1 UNK         0.3000 
    191 H191       -2.9182  -21.4660  -49.1039 H         1 UNK         0.0600 
    192 H192       -3.7915  -20.0641  -46.5261 H         1 UNK         0.0600 
    193 H193       -4.7073  -20.1016  -48.0289 H         1 UNK         0.0600 
    194 H194       -3.1528  -19.2836  -47.9708 H         1 UNK         0.0600 
    195 H195       -3.2174  -22.5213  -45.6724 H         1 UNK         0.3000 
    196 H196       -5.4700  -24.1941  -45.9910 H         1 UNK         0.0600 
    197 H197       -4.6962  -25.2136  -43.8425 H         1 UNK         0.0600 
    198 H198       -4.6409  -23.4585  -43.7842 H         1 UNK         0.0600 
    199 H199       -3.1542  -24.3799  -43.9939 H         1 UNK         0.0600 
    200 H200       -1.9653  -24.9832  -46.2583 H         1 UNK         0.3000 
    201 H201       -2.2699  -27.7393  -46.8913 H         1 UNK         0.0600 
    202 H202       -0.1292  -26.7460  -46.1325 H         1 UNK         0.0600 
    203 H203       -0.0214  -25.7807  -47.6022 H         1 UNK         0.0600 
    204 H204        0.0886  -27.5346  -47.6880 H         1 UNK         0.0600 
    205 H205       -2.3567  -24.8359  -48.9134 H         1 UNK         0.3000 
    206 H206       -2.6611  -26.2829  -51.4354 H         1 UNK         0.0600 
    207 H207       -1.4106  -24.1426  -51.3146 H         1 UNK         0.0600 
    208 H208       -2.8028  -23.9810  -52.3697 H         1 UNK         0.0600 
    209 H209       -2.8487  -23.3098  -50.7401 H         1 UNK         0.0600 
    210 H210       -4.7434  -26.3830  -49.0667 H         1 UNK         0.3000 
    211 H211       -6.8987  -26.7625  -48.8096 H         1 UNK         0.0600 
    212 H212       -7.0310  -27.0500  -51.8581 H         1 UNK         0.0600 
    213 H213       -8.1975  -27.6755  -50.7020 H         1 UNK         0.0600 
    214 H214       -6.5642  -28.3200  -50.7283 H         1 UNK         0.0600 
    215 H215       -6.3144  -24.2201  -48.5211 H         1 UNK         0.3000 
    216 H216       -7.1470  -22.2133  -48.1684 H         1 UNK         0.0600 
    217 H217       -9.4947  -21.6141  -48.4794 H         1 UNK         0.0600 
    218 H218       -9.4117  -23.2278  -47.7914 H         1 UNK         0.0600 
    219 H219       -9.7856  -23.0110  -49.5013 H         1 UNK         0.0600 
    220 H220       -5.4518  -22.7419  -50.1502 H         1 UNK         0.3000 
    221 H221       -4.4102  -22.0274  -51.9722 H         1 UNK         0.0600 
    222 H222       -5.9846  -19.4398  -51.5344 H         1 UNK         0.0600 
    223 H223       -4.4730  -19.8748  -50.7377 H         1 UNK         0.0600 
    224 H224       -4.5064  -19.6010  -52.4714 H         1 UNK         0.0600 
    225 H225       -6.1682  -23.7771  -52.7464 H         1 UNK         0.3000 
    226 H226       -8.1438  -22.9628  -54.6585 H         1 UNK         0.0600 
    227 H227       -8.3035  -25.0903  -53.4301 H         1 UNK         0.0600 
    228 H228       -8.2035  -25.4187  -55.1534 H         1 UNK         0.0600 
    229 H229       -6.7916  -25.6609  -54.1304 H         1 UNK         0.0600 
    230 H230       -7.3350  -21.6712  -56.2283 H         1 UNK         0.3000 
    231 H231       -6.3663  -20.9211  -58.0618 H         1 UNK         0.0600 
    232 H232       -7.2403  -23.0122  -59.1290 H         1 UNK         0.0600 
    233 H233       -5.7143  -23.8263  -58.7870 H         1 UNK         0.0600 
    234 H234       -5.7580  -22.4565  -59.8874 H         1 UNK         0.0600 
    235 H235       -4.8902  -20.7802  -55.7151 H         1 UNK         0.3000 
    236 H236       -2.0724  -20.8178  -56.6844 H         1 UNK         0.0600 
    237 H237       -1.3828  -21.5709  -54.4198 H         1 UNK         0.0600 
    238 H238       -3.0590  -21.6387  -53.8918 H         1 UNK         0.0600 
    239 H239       -2.4713  -22.7607  -55.1142 H         1 UNK         0.0600 
    240 H240       -0.7121  -19.3369  -55.4215 H         1 UNK         0.3000 
    241 H241       -1.9486  -16.7640  -55.0370 H         1 UNK         0.0600 
    242 H242       -1.7886  -18.2849  -51.3539 H         1 UNK         0.3800 
    243 H243       -1.7103  -19.3073  -52.7680 H         1 UNK         0.3800 
    244 H244        0.0799  -16.5794  -56.1256 H         1 UNK         0.0800 
    245 H245        0.4909  -16.0554  -54.5282 H         1 UNK         0.0800 
    246 H246        2.9142  -16.4928  -54.1177 H         1 UNK         0.0800 
    247 H247        3.6371  -18.0766  -53.9904 H         1 UNK         0.0800 
@<TRIPOS>BOND
     1    1    2 1    
     2    1  127 1    
     3    1  128 1    
     4    1  129 1    
     5    2    3 2    
     6    2    4 am   BACKBONE|DICT|INTERRES
     7    4    5 1    
     8    4  130 1    
     9    5    6 1    
    10    5   65 1    
    11    5  131 1    
    12    6    7 1    
    13    6  132 1    
    14    6  133 1    
    15    7    8 1    
    16    8    9 1    
    17    8  134 1    
    18    8  135 1    
    19    9   10 ar   
    20    9   14 ar   
    21   10   11 ar   
    22   10  136 1    
    23   11   12 ar   
    24   11  126 1    
    25   12   13 ar   
    26   12  137 1    
    27   13   14 ar   
    28   13   15 1    
    29   14  138 1    
    30   15   16 1    
    31   15  139 1    
    32   15  140 1    
    33   16   17 1    
    34   17   18 1    
    35   17  141 1    
    36   17  142 1    
    37   18   19 1    
    38   18   67 1    
    39   18  143 1    
    40   19   20 am   BACKBONE|DICT|INTERRES
    41   19  144 1    
    42   20   21 2    
    43   20   22 1    
    44   22   23 1    
    45   22   24 1    
    46   22  145 1    
    47   23  146 1    
    48   23  147 1    
    49   23  148 1    
    50   24   25 am   BACKBONE|DICT|INTERRES
    51   24  149 1    
    52   25   26 2    
    53   25   27 1    
    54   27   28 1    
    55   27   29 1    
    56   27  150 1    
    57   28  151 1    
    58   28  152 1    
    59   28  153 1    
    60   29   30 am   BACKBONE|DICT|INTERRES
    61   29  154 1    
    62   30   31 2    
    63   30   32 1    
    64   32   33 1    
    65   32   34 1    
    66   32  155 1    
    67   33  156 1    
    68   33  157 1    
    69   33  158 1    
    70   34   35 am   BACKBONE|DICT|INTERRES
    71   34  159 1    
    72   35   36 2    
    73   35   37 1    
    74   37   38 1    
    75   37   39 1    
    76   37  160 1    
    77   38  161 1    
    78   38  162 1    
    79   38  163 1    
    80   39   40 am   BACKBONE|DICT|INTERRES
    81   39  164 1    
    82   40   41 2    
    83   40   42 1    
    84   42   43 1    
    85   42   44 1    
    86   42  165 1    
    87   43  166 1    
    88   43  167 1    
    89   43  168 1    
    90   44   45 am   BACKBONE|DICT|INTERRES
    91   44  169 1    
    92   45   46 2    
    93   45   47 1    
    94   47   48 1    
    95   47   49 1    
    96   47  170 1    
    97   48  171 1    
    98   48  172 1    
    99   48  173 1    
   100   49   50 am   BACKBONE|DICT|INTERRES
   101   49  174 1    
   102   50   51 2    
   103   50   52 1    
   104   52   53 1    
   105   52   54 1    
   106   52  175 1    
   107   53  176 1    
   108   53  177 1    
   109   53  178 1    
   110   54   55 am   BACKBONE|DICT|INTERRES
   111   54  179 1    
   112   55   56 2    
   113   55   57 1    
   114   57   58 1    
   115   57   59 1    
   116   57  180 1    
   117   58  181 1    
   118   58  182 1    
   119   58  183 1    
   120   59   60 am   BACKBONE|DICT|INTERRES
   121   59  184 1    
   122   60   61 2    
   123   60   62 1    
   124   62   63 1    
   125   62   64 1    
   126   62  185 1    
   127   63  186 1    
   128   63  187 1    
   129   63  188 1    
   130   64   65 am   BACKBONE|DICT|INTERRES
   131   64  189 1    
   132   65   66 2    
   133   67   68 2    
   134   67   69 am   BACKBONE|DICT|INTERRES
   135   69   70 1    
   136   69  190 1    
   137   70   71 1    
   138   70   72 1    
   139   70  191 1    
   140   71  192 1    
   141   71  193 1    
   142   71  194 1    
   143   72   73 2    
   144   72   74 am   BACKBONE|DICT|INTERRES
   145   74   75 1    
   146   74  195 1    
   147   75   76 1    
   148   75   77 1    
   149   75  196 1    
   150   76  197 1    
   151   76  198 1    
   152   76  199 1    
   153   77   78 2    
   154   77   79 am   BACKBONE|DICT|INTERRES
   155   79   80 1    
   156   79  200 1    
   157   80   81 1    
   158   80   82 1    
   159   80  201 1    
   160   81  202 1    
   161   81  203 1    
   162   81  204 1    
   163   82   83 2    
   164   82   84 am   BACKBONE|DICT|INTERRES
   165   84   85 1    
   166   84  205 1    
   167   85   86 1    
   168   85   87 1    
   169   85  206 1    
   170   86  207 1    
   171   86  208 1    
   172   86  209 1    
   173   87   88 2    
   174   87   89 am   BACKBONE|DICT|INTERRES
   175   89   90 1    
   176   89  210 1    
   177   90   91 1    
   178   90   92 1    
   179   90  211 1    
   180   91  212 1    
   181   91  213 1    
   182   91  214 1    
   183   92   93 2    
   184   92   94 am   BACKBONE|DICT|INTERRES
   185   94   95 1    
   186   94  215 1    
   187   95   96 1    
   188   95   97 1    
   189   95  216 1    
   190   96  217 1    
   191   96  218 1    
   192   96  219 1    
   193   97   98 2    
   194   97   99 am   BACKBONE|DICT|INTERRES
   195   99  100 1    
   196   99  220 1    
   197  100  101 1    
   198  100  102 1    
   199  100  221 1    
   200  101  222 1    
   201  101  223 1    
   202  101  224 1    
   203  102  103 2    
   204  102  104 am   BACKBONE|DICT|INTERRES
   205  104  105 1    
   206  104  225 1    
   207  105  106 1    
   208  105  107 1    
   209  105  226 1    
   210  106  227 1    
   211  106  228 1    
   212  106  229 1    
   213  107  108 2    
   214  107  109 am   BACKBONE|DICT|INTERRES
   215  109  110 1    
   216  109  230 1    
   217  110  111 1    
   218  110  112 1    
   219  110  231 1    
   220  111  232 1    
   221  111  233 1    
   222  111  234 1    
   223  112  113 2    
   224  112  114 am   BACKBONE|DICT|INTERRES
   225  114  115 1    
   226  114  235 1    
   227  115  116 1    
   228  115  117 1    
   229  115  236 1    
   230  116  237 1    
   231  116  238 1    
   232  116  239 1    
   233  117  118 2    
   234  117  119 am   BACKBONE|DICT|INTERRES
   235  119  120 1    
   236  119  240 1    
   237  120  121 1    
   238  120  124 1    
   239  120  241 1    
   240  121  122 am   BACKBONE|DICT|INTERRES
   241  121  123 2    
   242  122  242 1    
   243  122  243 1    
   244  124  125 1    
   245  124  244 1    
   246  124  245 1    
   247  125  126 1    
   248  126  246 1    
   249  126  247 1    
@<TRIPOS>SUBSTRUCTURE
     1 UNK         1 GROUP             0       ****    0 ROOT    
