@<TRIPOS>MOLECULE
3R540
247   249    1
SMALL
USER_CHARGES


@<TRIPOS>ATOM
      1 CA         -2.6982  -13.2660  -44.5786 C.3       0 UNK        -0.1800 
      2 C          -2.3134  -13.4155  -46.0436 C.2       0 UNK         0.5000 
      3 O          -1.2542  -13.9620  -46.3538 O.2       0 UNK        -0.5000 
      4 N          -3.1726  -12.9283  -46.9471 N.am      1 UNK        -0.5000 
      5 CA         -3.0466  -12.9565  -48.4118 C.3       1 UNK         0.1400 
      6 C6         -2.9479  -14.3814  -49.0240 C.3       23 UNK        -0.0398 
      7 S7         -4.3884  -15.4287  -48.6152 S.3       23 UNK        -0.2404 
      8 C8         -3.6299  -16.7483  -47.6132 C.3       23 UNK        -0.0205 
      9 C9         -2.9247  -17.7901  -48.4704 C.ar      23 UNK        -0.0193 
     10 C10        -3.6682  -18.7808  -49.1204 C.ar      23 UNK        -0.1150 
     11 C11        -3.0318  -19.7535  -49.8980 C.ar      23 UNK        -0.0193 
     12 C12        -1.6414  -19.7305  -50.0158 C.ar      23 UNK        -0.1150 
     13 C13        -0.8842  -18.7485  -49.3726 C.ar      23 UNK        -0.0193 
     14 C14        -1.5321  -17.7806  -48.5983 C.ar      23 UNK        -0.1150 
     15 C15         0.6309  -18.7254  -49.5291 C.3       23 UNK        -0.0205 
     16 S16         1.4203  -20.3017  -49.0626 S.3       23 UNK        -0.2404 
     17 C17         1.0797  -20.3534  -47.2729 C.3       23 UNK        -0.0398 
     18 CA          0.7603  -21.7723  -46.7433 C.3       11 UNK         0.1400 
     19 N           0.9055  -21.8287  -45.2866 N.am      11 UNK        -0.5000 
     20 C           0.8553  -22.9370  -44.5368 C.2       10 UNK         0.5000 
     21 O           0.7104  -24.0684  -44.9968 O.2       10 UNK        -0.5000 
     22 CA          0.9358  -22.7428  -43.0105 C.3       10 UNK         0.1400 
     23 CB          2.3878  -22.5356  -42.5545 C.3       10 UNK        -0.1800 
     24 N           0.1077  -21.6303  -42.5416 N.am      10 UNK        -0.5000 
     25 C          -1.2298  -21.5980  -42.6340 C.2       9 UNK         0.5000 
     26 O          -1.9071  -22.5218  -43.0823 O.2       9 UNK        -0.5000 
     27 CA         -1.9278  -20.2972  -42.2034 C.3       9 UNK         0.1400 
     28 CB         -2.0540  -20.2234  -40.6747 C.3       9 UNK        -0.1800 
     29 N          -1.2475  -19.1040  -42.7052 N.am      9 UNK        -0.5000 
     30 C          -1.0850  -18.8133  -44.0046 C.2       8 UNK         0.5000 
     31 O          -1.5282  -19.5001  -44.9231 O.2       8 UNK        -0.5000 
     32 CA         -0.2427  -17.5725  -44.3348 C.3       8 UNK         0.1400 
     33 CB         -1.0625  -16.2987  -44.1076 C.3       8 UNK        -0.1800 
     34 N           0.9807  -17.5016  -43.5416 N.am      8 UNK        -0.5000 
     35 C           1.9651  -18.4081  -43.5400 C.2       7 UNK         0.5000 
     36 O           1.9769  -19.4090  -44.2533 O.2       7 UNK        -0.5000 
     37 CA          3.1012  -18.1834  -42.5298 C.3       7 UNK         0.1400 
     38 CB          4.1259  -17.1711  -43.0633 C.3       7 UNK        -0.1800 
     39 N           2.5921  -17.7303  -41.2363 N.am      7 UNK        -0.5000 
     40 C           1.8944  -18.4959  -40.3868 C.2       6 UNK         0.5000 
     41 O           1.6354  -19.6833  -40.5891 O.2       6 UNK        -0.5000 
     42 CA          1.3747  -17.8035  -39.1130 C.3       6 UNK         0.1400 
     43 CB          2.4802  -17.7215  -38.0496 C.3       6 UNK        -0.1800 
     44 N           0.8492  -16.4604  -39.3730 N.am      6 UNK        -0.5000 
     45 C          -0.2752  -16.2187  -40.0605 C.2       5 UNK         0.5000 
     46 O          -0.9836  -17.1041  -40.5391 O.2       5 UNK        -0.5000 
     47 CA         -0.6590  -14.7418  -40.2841 C.3       5 UNK         0.1400 
     48 CB         -1.3991  -14.1880  -39.0573 C.3       5 UNK        -0.1800 
     49 N           0.4519  -13.8438  -40.6267 N.am      5 UNK        -0.5000 
     50 C           1.3230  -14.0378  -41.6254 C.2       4 UNK         0.5000 
     51 O           1.4052  -15.0861  -42.2650 O.2       4 UNK        -0.5000 
     52 CA          2.2833  -12.8818  -41.9609 C.3       4 UNK         0.1400 
     53 CB          3.5506  -12.9761  -41.0979 C.3       4 UNK        -0.1800 
     54 N           2.6676  -12.9287  -43.3741 N.am      4 UNK        -0.5000 
     55 C           1.8322  -12.6879  -44.3935 C.2       3 UNK         0.5000 
     56 O           0.7084  -12.1982  -44.2541 O.2       3 UNK        -0.5000 
     57 CA          2.3414  -13.0811  -45.7905 C.3       3 UNK         0.1400 
     58 CB          2.5150  -14.6075  -45.9049 C.3       3 UNK        -0.1800 
     59 N           1.3907  -12.6524  -46.8140 N.am      3 UNK        -0.5000 
     60 C           1.7044  -12.0064  -47.9454 C.2       2 UNK         0.5000 
     61 O           2.8549  -11.6687  -48.2298 O.2       2 UNK        -0.5000 
     62 CA          0.5646  -11.6940  -48.9385 C.3       2 UNK         0.1400 
     63 CB          0.9644  -12.0104  -50.3935 C.3       2 UNK        -0.1800 
     64 N          -0.6633  -12.4118  -48.6015 N.am      2 UNK        -0.5000 
     65 C          -1.9087  -12.0406  -48.9128 C.2       1 UNK         0.5000 
     66 O          -2.1815  -11.0220  -49.5497 O.2       1 UNK        -0.5000 
     67 C          -0.6229  -22.2832  -47.2054 C.2       11 UNK         0.5000 
     68 O          -0.6941  -23.0980  -48.1257 O.2       11 UNK        -0.5000 
     69 N          -1.6885  -21.8467  -46.5191 N.am      12 UNK        -0.5000 
     70 CA         -3.0605  -22.2954  -46.7456 C.3       12 UNK         0.1400 
     71 CB         -4.0317  -21.3997  -45.9634 C.3       12 UNK        -0.1800 
     72 C          -3.2682  -23.7807  -46.3952 C.2       12 UNK         0.5000 
     73 O          -3.9104  -24.4946  -47.1652 O.2       12 UNK        -0.5000 
     74 N          -2.6959  -24.2366  -45.2703 N.am      13 UNK        -0.5000 
     75 CA         -2.7270  -25.6349  -44.8262 C.3       13 UNK         0.1400 
     76 CB         -2.1614  -25.7399  -43.4022 C.3       13 UNK        -0.1800 
     77 C          -1.9806  -26.5908  -45.7767 C.2       13 UNK         0.5000 
     78 O          -2.4145  -27.7283  -45.9607 O.2       13 UNK        -0.5000 
     79 N          -0.9003  -26.0985  -46.3967 N.am      14 UNK        -0.5000 
     80 CA         -0.1353  -26.7808  -47.4423 C.3       14 UNK         0.1400 
     81 CB          1.2612  -26.1424  -47.5250 C.3       14 UNK        -0.1800 
     82 C          -0.8250  -26.7653  -48.8245 C.2       14 UNK         0.5000 
     83 O          -0.2725  -27.3244  -49.7732 O.2       14 UNK        -0.5000 
     84 N          -1.9907  -26.1105  -48.9326 N.am      15 UNK        -0.5000 
     85 CA         -2.8420  -25.8991  -50.1091 C.3       15 UNK         0.1400 
     86 CB         -3.2791  -27.2284  -50.7532 C.3       15 UNK        -0.1800 
     87 C          -2.2480  -24.9376  -51.1529 C.2       15 UNK         0.5000 
     88 O          -2.9844  -24.0985  -51.6689 O.2       15 UNK        -0.5000 
     89 N          -0.9463  -25.0701  -51.4402 N.am      16 UNK        -0.5000 
     90 CA         -0.0946  -24.2693  -52.3286 C.3       16 UNK         0.1400 
     91 CB         -0.0256  -22.8057  -51.8570 C.3       16 UNK        -0.1800 
     92 C          -0.4581  -24.3521  -53.8251 C.2       16 UNK         0.5000 
     93 O           0.4213  -24.6531  -54.6325 O.2       16 UNK        -0.5000 
     94 N          -1.7357  -24.1034  -54.1440 N.am      17 UNK        -0.5000 
     95 CA         -2.3770  -24.0115  -55.4582 C.3       17 UNK         0.1400 
     96 CB         -2.2043  -25.3063  -56.2751 C.3       17 UNK        -0.1800 
     97 C          -1.9243  -22.7711  -56.2531 C.2       17 UNK         0.5000 
     98 O          -0.7334  -22.5947  -56.5131 O.2       17 UNK        -0.5000 
     99 N          -2.9001  -21.9350  -56.6351 N.am      18 UNK        -0.5000 
    100 CA        -2.7716  -20.7155  -57.4482 C.3       18 UNK         0.1400 
    101 CB        -2.2499  -21.0536  -58.8608 C.3       18 UNK        -0.1800 
    102 C         -1.9729  -19.5649  -56.7932 C.2       18 UNK         0.5000 
    103 O         -1.6694  -18.5824  -57.4721 O.2       18 UNK        -0.5000 
    104 N         -1.6476  -19.6852  -55.4991 N.am      19 UNK        -0.5000 
    105 CA        -0.8327  -18.7171  -54.7630 C.3       19 UNK         0.1400 
    106 CB        -0.1785  -19.4229  -53.5666 C.3       19 UNK        -0.1800 
    107 C         -1.6249  -17.4811  -54.2984 C.2       19 UNK         0.5000 
    108 O         -1.0385  -16.4056  -54.1688 O.2       19 UNK        -0.5000 
    109 N         -2.9298  -17.6511  -54.0566 N.am      20 UNK        -0.5000 
    110 CA        -3.8446  -16.6238  -53.5655 C.3       20 UNK         0.1400 
    111 CB        -3.5606  -16.3211  -52.0792 C.3       20 UNK        -0.1800 
    112 C         -5.2841  -17.0860  -53.8475 C.2       20 UNK         0.5000 
    113 O         -5.5936  -17.4083  -54.9957 O.2       20 UNK        -0.5000 
    114 N         -6.1325  -17.1629  -52.8100 N.am      21 UNK        -0.5000 
    115 CA        -7.5123  -17.6700  -52.8665 C.3       21 UNK         0.1400 
    116 CB        -8.1630  -17.4911  -51.4864 C.3       21 UNK        -0.1800 
    117 C         -7.6112  -19.1417  -53.3238 C.2       21 UNK         0.5000 
    118 O         -8.6224  -19.5445  -53.8988 O.2       21 UNK        -0.5000 
    119 N         -6.5297  -19.8921  -53.0935 N.am      22 UNK        -0.5000 
    120 CA        -6.2229  -21.2147  -53.6537 C.3       22 UNK         0.1400 
    121 C         -5.9250  -21.2357  -55.1848 C.2       22 UNK         0.5000 
    122 N         -5.9191  -20.1161  -55.8969 N.am      22 UNK        -0.7600 
    123 O         -5.6790  -22.2990  -55.7481 O.2       22 UNK        -0.5000 
    124 C124       -5.0970  -21.9114  -52.8404 C.3       23 UNK        -0.0398 
    125 S125       -3.7083  -20.7994  -52.3969 S.3       23 UNK        -0.2404 
    126 C126       -3.8396  -20.8484  -50.5781 C.3       23 UNK        -0.0205 
    127 H127       -3.3585  -12.4124  -44.4250 H         1 UNK         0.0600 
    128 H128       -1.8104  -13.1205  -43.9635 H         1 UNK         0.0600 
    129 H129       -3.2096  -14.1632  -44.2313 H         1 UNK         0.0600 
    130 H130       -4.0131  -12.4789  -46.6119 H         1 UNK         0.3000 
    131 H131       -3.9729  -12.5166  -48.7855 H         1 UNK         0.0600 
    132 H132       -2.8923  -14.3101  -50.1103 H         1 UNK         0.0800 
    133 H133       -2.0305  -14.8819  -48.7146 H         1 UNK         0.0800 
    134 H134       -2.9395  -16.3103  -46.8924 H         1 UNK         0.0800 
    135 H135       -4.4095  -17.2362  -47.0266 H         1 UNK         0.0800 
    136 H136       -4.7439  -18.7919  -49.0158 H         1 UNK         0.1150 
    137 H137       -1.1440  -20.4855  -50.6045 H         1 UNK         0.1150 
    138 H138       -0.9539  -17.0196  -48.0933 H         1 UNK         0.1150 
    139 H139        0.8699  -18.5085  -50.5705 H         1 UNK         0.0800 
    140 H140        1.0719  -17.9208  -48.9385 H         1 UNK         0.0800 
    141 H141        0.2814  -19.6574  -47.0121 H         1 UNK         0.0800 
    142 H142        1.9777  -19.9716  -46.7869 H         1 UNK         0.0800 
    143 H143        1.5074  -22.4568  -47.1508 H         1 UNK         0.0600 
    144 H144        1.0804  -20.9409  -44.8217 H         1 UNK         0.3000 
    145 H145        0.5631  -23.6553  -42.5409 H         1 UNK         0.0600 
    146 H146        2.4526  -22.4641  -41.4685 H         1 UNK         0.0600 
    147 H147        3.0164  -23.3711  -42.8645 H         1 UNK         0.0600 
    148 H148        2.8193  -21.6269  -42.9739 H         1 UNK         0.0600 
    149 H149        0.5912  -20.8352  -42.1405 H         1 UNK         0.3000 
    150 H150       -2.9344  -20.3067  -42.6266 H         1 UNK         0.0600 
    151 H151       -2.5547  -21.1085  -40.2803 H         1 UNK         0.0600 
    152 H152       -2.6402  -19.3563  -40.3704 H         1 UNK         0.0600 
    153 H153       -1.0790  -20.1534  -40.1917 H         1 UNK         0.0600 
    154 H154       -0.8931  -18.4566  -42.0079 H         1 UNK         0.3000 
    155 H155        0.0421  -17.6195  -45.3877 H         1 UNK         0.0600 
    156 H156       -1.4149  -16.2186  -43.0800 H         1 UNK         0.0600 
    157 H157       -1.9380  -16.2821  -44.7554 H         1 UNK         0.0600 
    158 H158       -0.4717  -15.4091  -44.3226 H         1 UNK         0.0600 
    159 H159        1.0864  -16.6773  -42.9513 H         1 UNK         0.3000 
    160 H160        3.6110  -19.1383  -42.3844 H         1 UNK         0.0600 
    161 H161        3.6934  -16.1767  -43.1711 H         1 UNK         0.0600 
    162 H162        4.5030  -17.4745  -44.0407 H         1 UNK         0.0600 
    163 H163        4.9828  -17.0908  -42.3943 H         1 UNK         0.0600 
    164 H164        2.6883  -16.7462  -41.0322 H         1 UNK         0.3000 
    165 H165        0.5636  -18.4151  -38.7118 H         1 UNK         0.0600 
    166 H166        2.0987  -17.3080  -37.1159 H         1 UNK         0.0600 
    167 H167        2.8800  -18.7115  -37.8260 H         1 UNK         0.0600 
    168 H168        3.3124  -17.0977  -38.3783 H         1 UNK         0.0600 
    169 H169        1.3816  -15.6779  -39.0222 H         1 UNK         0.3000 
    170 H170       -1.3516  -14.7186  -41.1276 H         1 UNK         0.0600 
    171 H171       -2.2433  -14.8247  -38.7888 H         1 UNK         0.0600 
    172 H172       -0.7449  -14.1254  -38.1869 H         1 UNK         0.0600 
    173 H173       -1.7962  -13.1915  -39.2519 H         1 UNK         0.0600 
    174 H174        0.4754  -12.9638  -40.1322 H         1 UNK         0.3000 
    175 H175        1.7827  -11.9319  -41.7624 H         1 UNK         0.0600 
    176 H176        4.0813  -13.9151  -41.2621 H         1 UNK         0.0600 
    177 H177        4.2385  -12.1592  -41.3172 H         1 UNK         0.0600 
    178 H178        3.3074  -12.9179  -40.0363 H         1 UNK         0.0600 
    179 H179        3.5635  -13.3478  -43.5730 H         1 UNK         0.3000 
    180 H180        3.3093  -12.5970  -45.9347 H         1 UNK         0.0600 
    181 H181        1.5828  -15.1341  -45.6960 H         1 UNK         0.0600 
    182 H182        3.2649  -14.9767  -45.2060 H         1 UNK         0.0600 
    183 H183        2.8414  -14.8930  -46.9050 H         1 UNK         0.0600 
    184 H184        0.4211  -12.8408  -46.5814 H         1 UNK         0.3000 
    185 H185        0.3757  -10.6219  -48.8555 H         1 UNK         0.0600 
    186 H186        1.8584  -11.4594  -50.6878 H         1 UNK         0.0600 
    187 H187        1.1722  -13.0726  -50.5268 H         1 UNK         0.0600 
    188 H188        0.1752  -11.7336  -51.0926 H         1 UNK         0.0600 
    189 H189       -0.5588  -13.2331  -48.0135 H         1 UNK         0.3000 
    190 H190       -1.5578  -21.1339  -45.8045 H         1 UNK         0.3000 
    191 H191       -3.2755  -22.1744  -47.8087 H         1 UNK         0.0600 
    192 H192       -3.9441  -20.3593  -46.2781 H         1 UNK         0.0600 
    193 H193       -5.0655  -21.7048  -46.1292 H         1 UNK         0.0600 
    194 H194       -3.8419  -21.4413  -44.8904 H         1 UNK         0.0600 
    195 H195       -2.2271  -23.5776  -44.6540 H         1 UNK         0.3000 
    196 H196       -3.7719  -25.9504  -44.7986 H         1 UNK         0.0600 
    197 H197       -2.1844  -26.7707  -43.0465 H         1 UNK         0.0600 
    198 H198       -2.7446  -25.1423  -42.7015 H         1 UNK         0.0600 
    199 H199       -1.1272  -25.3985  -43.3544 H         1 UNK         0.0600 
    200 H200       -0.5721  -25.1746  -46.1332 H         1 UNK         0.3000 
    201 H201       -0.0130  -27.8271  -47.1556 H         1 UNK         0.0600 
    202 H202        1.7765  -26.1964  -46.5659 H         1 UNK         0.0600 
    203 H203        1.2054  -25.0929  -47.8158 H         1 UNK         0.0600 
    204 H204        1.8874  -26.6538  -48.2570 H         1 UNK         0.0600 
    205 H205       -2.3274  -25.6418  -48.1004 H         1 UNK         0.3000 
    206 H206       -3.7430  -25.4168  -49.7277 H         1 UNK         0.0600 
    207 H207       -4.0112  -27.0519  -51.5422 H         1 UNK         0.0600 
    208 H208       -3.7438  -27.8874  -50.0198 H         1 UNK         0.0600 
    209 H209       -2.4424  -27.7624  -51.2038 H         1 UNK         0.0600 
    210 H210       -0.4746  -25.8393  -50.9731 H         1 UNK         0.3000 
    211 H211        0.9066  -24.6900  -52.2227 H         1 UNK         0.0600 
    212 H212       -0.9815  -22.2982  -51.9837 H         1 UNK         0.0600 
    213 H213        0.7189  -22.2480  -52.4253 H         1 UNK         0.0600 
    214 H214        0.2515  -22.7411  -50.8047 H         1 UNK         0.0600 
    215 H215       -2.3450  -23.9071  -53.3514 H         1 UNK         0.3000 
    216 H216       -3.4424  -23.9081  -55.2484 H         1 UNK         0.0600 
    217 H217       -2.8011  -25.2684  -57.1870 H         1 UNK         0.0600 
    218 H218       -2.5306  -26.1778  -55.7076 H         1 UNK         0.0600 
    219 H219       -1.1684  -25.4674  -56.5743 H         1 UNK         0.0600 
    220 H220       -3.8543  -22.1597  -56.3623 H         1 UNK         0.3000 
    221 H221       -3.7832  -20.3319  -57.5721 H         1 UNK         0.0600 
    222 H222       -1.2069  -21.3705  -58.8442 H         1 UNK         0.0600 
    223 H223       -2.8362  -21.8508  -59.3177 H         1 UNK         0.0600 
    224 H224       -2.3150  -20.1881  -59.5211 H         1 UNK         0.0600 
    225 H225       -1.9254  -20.5213  -55.0072 H         1 UNK         0.3000 
    226 H226       -0.0321  -18.3655  -55.4176 H         1 UNK         0.0600 
    227 H227        0.4462  -20.2539  -53.8942 H         1 UNK         0.0600 
    228 H228        0.4592  -18.7365  -53.0088 H         1 UNK         0.0600 
    229 H229       -0.9236  -19.8140  -52.8755 H         1 UNK         0.0600 
    230 H230       -3.3408  -18.5560  -54.2371 H         1 UNK         0.3000 
    231 H231       -3.6898  -15.7111  -54.1441 H         1 UNK         0.0600 
    232 H232       -3.6706  -17.2102  -51.4588 H         1 UNK         0.0600 
    233 H233       -4.2352  -15.5538  -51.6989 H         1 UNK         0.0600 
    234 H234       -2.5464  -15.9496  -51.9349 H         1 UNK         0.0600 
    235 H235       -5.7983  -16.8810  -51.8995 H         1 UNK         0.3000 
    236 H236       -8.0614  -17.0642  -53.5900 H         1 UNK         0.0600 
    237 H237       -8.1728  -16.4429  -51.1872 H         1 UNK         0.0600 
    238 H238       -9.1981  -17.8352  -51.4946 H         1 UNK         0.0600 
    239 H239       -7.6349  -18.0556  -50.7167 H         1 UNK         0.0600 
    240 H240       -5.7599  -19.4609  -52.6033 H         1 UNK         0.3000 
    241 H241       -7.1236  -21.8206  -53.5415 H         1 UNK         0.0600 
    242 H242       -5.7870  -20.1695  -56.8927 H         1 UNK         0.3800 
    243 H243       -6.0465  -19.2058  -55.4663 H         1 UNK         0.3800 
    244 H244       -5.5291  -22.3218  -51.9273 H         1 UNK         0.0800 
    245 H245       -4.6959  -22.7800  -53.3642 H         1 UNK         0.0800 
    246 H246       -3.4912  -21.8201  -50.2256 H         1 UNK         0.0800 
    247 H247       -4.8885  -20.7701  -50.2885 H         1 UNK         0.0800 
@<TRIPOS>BOND
     1    1    2 1    
     2    1  127 1    
     3    1  128 1    
     4    1  129 1    
     5    2    3 2    
     6    2    4 am   BACKBONE|DICT|INTERRES
     7    4    5 1    
     8    4  130 1    
     9    5    6 1    
    10    5   65 1    
    11    5  131 1    
    12    6    7 1    
    13    6  132 1    
    14    6  133 1    
    15    7    8 1    
    16    8    9 1    
    17    8  134 1    
    18    8  135 1    
    19    9   10 ar   
    20    9   14 ar   
    21   10   11 ar   
    22   10  136 1    
    23   11   12 ar   
    24   11  126 1    
    25   12   13 ar   
    26   12  137 1    
    27   13   14 ar   
    28   13   15 1    
    29   14  138 1    
    30   15   16 1    
    31   15  139 1    
    32   15  140 1    
    33   16   17 1    
    34   17   18 1    
    35   17  141 1    
    36   17  142 1    
    37   18   19 1    
    38   18   67 1    
    39   18  143 1    
    40   19   20 am   BACKBONE|DICT|INTERRES
    41   19  144 1    
    42   20   21 2    
    43   20   22 1    
    44   22   23 1    
    45   22   24 1    
    46   22  145 1    
    47   23  146 1    
    48   23  147 1    
    49   23  148 1    
    50   24   25 am   BACKBONE|DICT|INTERRES
    51   24  149 1    
    52   25   26 2    
    53   25   27 1    
    54   27   28 1    
    55   27   29 1    
    56   27  150 1    
    57   28  151 1    
    58   28  152 1    
    59   28  153 1    
    60   29   30 am   BACKBONE|DICT|INTERRES
    61   29  154 1    
    62   30   31 2    
    63   30   32 1    
    64   32   33 1    
    65   32   34 1    
    66   32  155 1    
    67   33  156 1    
    68   33  157 1    
    69   33  158 1    
    70   34   35 am   BACKBONE|DICT|INTERRES
    71   34  159 1    
    72   35   36 2    
    73   35   37 1    
    74   37   38 1    
    75   37   39 1    
    76   37  160 1    
    77   38  161 1    
    78   38  162 1    
    79   38  163 1    
    80   39   40 am   BACKBONE|DICT|INTERRES
    81   39  164 1    
    82   40   41 2    
    83   40   42 1    
    84   42   43 1    
    85   42   44 1    
    86   42  165 1    
    87   43  166 1    
    88   43  167 1    
    89   43  168 1    
    90   44   45 am   BACKBONE|DICT|INTERRES
    91   44  169 1    
    92   45   46 2    
    93   45   47 1    
    94   47   48 1    
    95   47   49 1    
    96   47  170 1    
    97   48  171 1    
    98   48  172 1    
    99   48  173 1    
   100   49   50 am   BACKBONE|DICT|INTERRES
   101   49  174 1    
   102   50   51 2    
   103   50   52 1    
   104   52   53 1    
   105   52   54 1    
   106   52  175 1    
   107   53  176 1    
   108   53  177 1    
   109   53  178 1    
   110   54   55 am   BACKBONE|DICT|INTERRES
   111   54  179 1    
   112   55   56 2    
   113   55   57 1    
   114   57   58 1    
   115   57   59 1    
   116   57  180 1    
   117   58  181 1    
   118   58  182 1    
   119   58  183 1    
   120   59   60 am   BACKBONE|DICT|INTERRES
   121   59  184 1    
   122   60   61 2    
   123   60   62 1    
   124   62   63 1    
   125   62   64 1    
   126   62  185 1    
   127   63  186 1    
   128   63  187 1    
   129   63  188 1    
   130   64   65 am   BACKBONE|DICT|INTERRES
   131   64  189 1    
   132   65   66 2    
   133   67   68 2    
   134   67   69 am   BACKBONE|DICT|INTERRES
   135   69   70 1    
   136   69  190 1    
   137   70   71 1    
   138   70   72 1    
   139   70  191 1    
   140   71  192 1    
   141   71  193 1    
   142   71  194 1    
   143   72   73 2    
   144   72   74 am   BACKBONE|DICT|INTERRES
   145   74   75 1    
   146   74  195 1    
   147   75   76 1    
   148   75   77 1    
   149   75  196 1    
   150   76  197 1    
   151   76  198 1    
   152   76  199 1    
   153   77   78 2    
   154   77   79 am   BACKBONE|DICT|INTERRES
   155   79   80 1    
   156   79  200 1    
   157   80   81 1    
   158   80   82 1    
   159   80  201 1    
   160   81  202 1    
   161   81  203 1    
   162   81  204 1    
   163   82   83 2    
   164   82   84 am   BACKBONE|DICT|INTERRES
   165   84   85 1    
   166   84  205 1    
   167   85   86 1    
   168   85   87 1    
   169   85  206 1    
   170   86  207 1    
   171   86  208 1    
   172   86  209 1    
   173   87   88 2    
   174   87   89 am   BACKBONE|DICT|INTERRES
   175   89   90 1    
   176   89  210 1    
   177   90   91 1    
   178   90   92 1    
   179   90  211 1    
   180   91  212 1    
   181   91  213 1    
   182   91  214 1    
   183   92   93 2    
   184   92   94 am   BACKBONE|DICT|INTERRES
   185   94   95 1    
   186   94  215 1    
   187   95   96 1    
   188   95   97 1    
   189   95  216 1    
   190   96  217 1    
   191   96  218 1    
   192   96  219 1    
   193   97   98 2    
   194   97   99 am   BACKBONE|DICT|INTERRES
   195   99  100 1    
   196   99  220 1    
   197  100  101 1    
   198  100  102 1    
   199  100  221 1    
   200  101  222 1    
   201  101  223 1    
   202  101  224 1    
   203  102  103 2    
   204  102  104 am   BACKBONE|DICT|INTERRES
   205  104  105 1    
   206  104  225 1    
   207  105  106 1    
   208  105  107 1    
   209  105  226 1    
   210  106  227 1    
   211  106  228 1    
   212  106  229 1    
   213  107  108 2    
   214  107  109 am   BACKBONE|DICT|INTERRES
   215  109  110 1    
   216  109  230 1    
   217  110  111 1    
   218  110  112 1    
   219  110  231 1    
   220  111  232 1    
   221  111  233 1    
   222  111  234 1    
   223  112  113 2    
   224  112  114 am   BACKBONE|DICT|INTERRES
   225  114  115 1    
   226  114  235 1    
   227  115  116 1    
   228  115  117 1    
   229  115  236 1    
   230  116  237 1    
   231  116  238 1    
   232  116  239 1    
   233  117  118 2    
   234  117  119 am   BACKBONE|DICT|INTERRES
   235  119  120 1    
   236  119  240 1    
   237  120  121 1    
   238  120  124 1    
   239  120  241 1    
   240  121  122 am   BACKBONE|DICT|INTERRES
   241  121  123 2    
   242  122  242 1    
   243  122  243 1    
   244  124  125 1    
   245  124  244 1    
   246  124  245 1    
   247  125  126 1    
   248  126  246 1    
   249  126  247 1    
@<TRIPOS>SUBSTRUCTURE
     1 UNK         1 GROUP             0       ****    0 ROOT    
