@<TRIPOS>MOLECULE
3R540
247   249    1
SMALL
USER_CHARGES


@<TRIPOS>ATOM
      1 CA          0.5287  -11.4709  -53.2899 C.3       0 UNK        -0.1800 
      2 C          -0.5773  -11.2893  -52.2527 C.2       0 UNK         0.5000 
      3 O          -1.5244  -10.5464  -52.5025 O.2       0 UNK        -0.5000 
      4 N          -0.5104  -11.9372  -51.0820 N.am      1 UNK        -0.5000 
      5 CA          0.5725  -12.8154  -50.6182 C.3       1 UNK         0.1400 
      6 C6          0.0760  -13.8353  -49.5632 C.3       23 UNK        -0.0398 
      7 S7         -0.7435  -13.0894  -48.1068 S.3       23 UNK        -0.2404 
      8 C8         -2.5111  -13.3561  -48.4668 C.3       23 UNK        -0.0205 
      9 C9         -2.8955  -14.8273  -48.4208 C.ar      23 UNK        -0.0193 
     10 C10        -3.1158  -15.5370  -49.6054 C.ar      23 UNK        -0.1150 
     11 C11        -3.4514  -16.8930  -49.5677 C.ar      23 UNK        -0.0193 
     12 C12        -3.5824  -17.5355  -48.3344 C.ar      23 UNK        -0.1150 
     13 C13        -3.3633  -16.8368  -47.1449 C.ar      23 UNK        -0.0193 
     14 C14        -3.0282  -15.4808  -47.1922 C.ar      23 UNK        -0.1150 
     15 C15        -3.4449  -17.5628  -45.8152 C.3       23 UNK        -0.0205 
     16 S16        -1.7862  -18.1041  -45.3111 S.3       23 UNK        -0.2404 
     17 C17        -2.1581  -19.6219  -44.3743 C.3       23 UNK        -0.0398 
     18 CA         -2.2392  -20.8600  -45.2995 C.3       11 UNK         0.1400 
     19 N          -1.0441  -21.0384  -46.1271 N.am      11 UNK        -0.5000 
     20 C          -0.9905  -21.7738  -47.2447 C.2       10 UNK         0.5000 
     21 O          -1.9501  -22.3884  -47.7100 O.2       10 UNK        -0.5000 
     22 CA          0.3745  -21.8614  -47.9481 C.3       10 UNK         0.1400 
     23 CB          0.5399  -20.7024  -48.9398 C.3       10 UNK        -0.1800 
     24 N           1.4958  -21.8741  -47.0058 N.am      10 UNK        -0.5000 
     25 C           1.7480  -22.8867  -46.1643 C.2       9 UNK         0.5000 
     26 O           1.0677  -23.9095  -46.1055 O.2       9 UNK        -0.5000 
     27 CA          2.9295  -22.7114  -45.1956 C.3       9 UNK         0.1400 
     28 CB          4.2542  -23.0639  -45.8886 C.3       9 UNK        -0.1800 
     29 N           3.0264  -21.3716  -44.6102 N.am      9 UNK        -0.5000 
     30 C           2.0827  -20.7952  -43.8547 C.2       8 UNK         0.5000 
     31 O           0.9633  -21.2773  -43.6633 O.2       8 UNK        -0.5000 
     32 CA          2.4457  -19.4441  -43.2173 C.3       8 UNK         0.1400 
     33 CB          1.8233  -18.2853  -44.0050 C.3       8 UNK        -0.1800 
     34 N           1.9875  -19.3905  -41.8302 N.am      8 UNK        -0.5000 
     35 C           2.5746  -20.0504  -40.8212 C.2       7 UNK         0.5000 
     36 O           3.6065  -20.7106  -40.9605 O.2       7 UNK        -0.5000 
     37 CA          1.8972  -19.9804  -39.4336 C.3       7 UNK         0.1400 
     38 CB          2.9031  -20.1172  -38.2707 C.3       7 UNK        -0.1800 
     39 N           1.0373  -18.8069  -39.2428 N.am      7 UNK        -0.5000 
     40 C           1.4022  -17.5170  -39.2489 C.2       6 UNK         0.5000 
     41 O           2.5574  -17.1174  -39.4064 O.2       6 UNK        -0.5000 
     42 CA          0.2571  -16.5005  -39.0789 C.3       6 UNK         0.1400 
     43 CB          0.6155  -15.4185  -38.0465 C.3       6 UNK        -0.1800 
     44 N          -0.1045  -15.8499  -40.3379 N.am      6 UNK        -0.5000 
     45 C          -0.4964  -16.4555  -41.4688 C.2       5 UNK         0.5000 
     46 O          -0.5921  -17.6772  -41.5965 O.2       5 UNK        -0.5000 
     47 CA         -0.8686  -15.5406  -42.6524 C.3       5 UNK         0.1400 
     48 CB         -2.3961  -15.4377  -42.7824 C.3       5 UNK        -0.1800 
     49 N          -0.3140  -14.1879  -42.5419 N.am      5 UNK        -0.5000 
     50 C           0.9639  -13.8765  -42.7879 C.2       4 UNK         0.5000 
     51 O           1.8178  -14.6980  -43.1276 O.2       4 UNK        -0.5000 
     52 CA          1.3632  -12.4032  -42.5895 C.3       4 UNK         0.1400 
     53 CB          1.9838  -12.1976  -41.1986 C.3       4 UNK        -0.1800 
     54 N           2.3255  -11.9926  -43.6109 N.am      4 UNK        -0.5000 
     55 C           1.9994  -11.7438  -44.8842 C.2       3 UNK         0.5000 
     56 O           0.8371  -11.6911  -45.2953 O.2       3 UNK        -0.5000 
     57 CA          3.1672  -11.5351  -45.8586 C.3       3 UNK         0.1400 
     58 CB          3.8871  -12.8650  -46.1525 C.3       3 UNK        -0.1800 
     59 N           2.6531  -10.9747  -47.1031 N.am      3 UNK        -0.5000 
     60 C           3.3540  -10.2596  -47.9892 C.2       2 UNK         0.5000 
     61 O           4.5424   -9.9688  -47.8375 O.2       2 UNK        -0.5000 
     62 CA          2.5932   -9.7934  -49.2513 C.3       2 UNK         0.1400 
     63 CB          3.5339   -9.3844  -50.4045 C.3       2 UNK        -0.1800 
     64 N           1.5922  -10.7581  -49.7262 N.am      2 UNK        -0.5000 
     65 C           1.8022  -12.0268  -50.1163 C.2       1 UNK         0.5000 
     66 O           2.9045  -12.5752  -50.1170 O.2       1 UNK        -0.5000 
     67 C          -2.5394  -22.1389  -44.4994 C.2       11 UNK         0.5000 
     68 O          -3.6907  -22.5739  -44.4641 O.2       11 UNK        -0.5000 
     69 N          -1.4911  -22.7580  -43.9357 N.am      12 UNK        -0.5000 
     70 CA         -1.5438  -24.0599  -43.2646 C.3       12 UNK         0.1400 
     71 CB         -0.1760  -24.3585  -42.6327 C.3       12 UNK        -0.1800 
     72 C          -1.9731  -25.2015  -44.2083 C.2       12 UNK         0.5000 
     73 O          -2.6836  -26.1120  -43.7821 O.2       12 UNK        -0.5000 
     74 N          -1.5795  -25.0985  -45.4844 N.am      13 UNK        -0.5000 
     75 CA         -1.9870  -25.9777  -46.5797 C.3       13 UNK         0.1400 
     76 CB         -0.9096  -25.9337  -47.6767 C.3       13 UNK        -0.1800 
     77 C          -3.3790  -25.6479  -47.1619 C.2       13 UNK         0.5000 
     78 O          -3.7430  -26.2450  -48.1735 O.2       13 UNK        -0.5000 
     79 N          -4.1284  -24.7183  -46.5484 N.am      14 UNK        -0.5000 
     80 CA         -5.4772  -24.2792  -46.9235 C.3       14 UNK         0.1400 
     81 CB         -6.4961  -25.4270  -46.7601 C.3       14 UNK        -0.1800 
     82 C          -5.5106  -23.6375  -48.3240 C.2       14 UNK         0.5000 
     83 O          -6.1609  -24.1531  -49.2345 O.2       14 UNK        -0.5000 
     84 N          -4.7667  -22.5325  -48.4661 N.am      15 UNK        -0.5000 
     85 CA         -4.5564  -21.7565  -49.6928 C.3       15 UNK         0.1400 
     86 CB         -5.8646  -21.0928  -50.1710 C.3       15 UNK        -0.1800 
     87 C          -3.8619  -22.5926  -50.7838 C.2       15 UNK         0.5000 
     88 O          -4.3089  -22.6158  -51.9327 O.2       15 UNK        -0.5000 
     89 N          -2.7882  -23.2850  -50.3752 N.am      16 UNK        -0.5000 
     90 CA         -1.9572  -24.1825  -51.1823 C.3       16 UNK         0.1400 
     91 CB         -1.1495  -23.3689  -52.2168 C.3       16 UNK        -0.1800 
     92 C          -2.7813  -25.3224  -51.8183 C.2       16 UNK         0.5000 
     93 O          -2.7949  -25.4674  -53.0404 O.2       16 UNK        -0.5000 
     94 N          -3.4951  -26.0814  -50.9734 N.am      17 UNK        -0.5000 
     95 CA         -4.4250  -27.1613  -51.3260 C.3       17 UNK         0.1400 
     96 CB         -3.6713  -28.3582  -51.9428 C.3       17 UNK        -0.1800 
     97 C          -5.5998  -26.6649  -52.1944 C.2       17 UNK         0.5000 
     98 O          -5.9925  -27.3321  -53.1531 O.2       17 UNK        -0.5000 
     99 N          -6.1160  -25.4781  -51.8441 N.am      18 UNK        -0.5000 
    100 CA        -7.1831  -24.7230  -52.5058 C.3       18 UNK         0.1400 
    101 CB        -8.5232  -25.4825  -52.4201 C.3       18 UNK        -0.1800 
    102 C         -6.8544  -24.2616  -53.9436 C.2       18 UNK         0.5000 
    103 O         -7.7667  -23.8574  -54.6670 O.2       18 UNK        -0.5000 
    104 N         -5.5734  -24.2995  -54.3402 N.am      19 UNK        -0.5000 
    105 CA        -5.1043  -23.8212  -55.6423 C.3       19 UNK         0.1400 
    106 CB        -3.7261  -24.4268  -55.9467 C.3       19 UNK        -0.1800 
    107 C         -5.0338  -22.2855  -55.7163 C.2       19 UNK         0.5000 
    108 O         -5.1198  -21.7339  -56.8140 O.2       19 UNK        -0.5000 
    109 N         -4.8639  -21.6322  -54.5555 N.am      20 UNK        -0.5000 
    110 CA        -4.7287  -20.1861  -54.3602 C.3       20 UNK         0.1400 
    111 CB        -6.0345  -19.4516  -54.7253 C.3       20 UNK        -0.1800 
    112 C         -3.4834  -19.5926  -55.0514 C.2       20 UNK         0.5000 
    113 O         -3.4898  -18.4231  -55.4395 O.2       20 UNK        -0.5000 
    114 N         -2.4131  -20.3971  -55.1530 N.am      21 UNK        -0.5000 
    115 CA        -1.1074  -20.0210  -55.7136 C.3       21 UNK         0.1400 
    116 CB        -0.2088  -21.2666  -55.7500 C.3       21 UNK        -0.1800 
    117 C         -0.4166  -18.8743  -54.9447 C.2       21 UNK         0.5000 
    118 O          0.3863  -18.1382  -55.5183 O.2       21 UNK        -0.5000 
    119 N         -0.7838  -18.7360  -53.6679 N.am      22 UNK        -0.5000 
    120 CA        -0.5157  -17.6016  -52.7779 C.3       22 UNK         0.1400 
    121 C         -1.1801  -16.2536  -53.1920 C.2       22 UNK         0.5000 
    122 N         -2.1426  -16.2211  -54.1064 N.am      22 UNK        -0.7600 
    123 O         -0.8033  -15.2075  -52.6738 O.2       22 UNK        -0.5000 
    124 C124       -0.8518  -17.9702  -51.3056 C.3       23 UNK        -0.0398 
    125 S125       -2.3903  -18.9509  -51.0985 S.3       23 UNK        -0.2404 
    126 C126       -3.6607  -17.6695  -50.8572 C.3       23 UNK        -0.0205 
    127 H127        0.3287  -10.8619  -54.1718 H         1 UNK         0.0600 
    128 H128        0.5879  -12.5106  -53.6121 H         1 UNK         0.0600 
    129 H129        1.4965  -11.1675  -52.8914 H         1 UNK         0.0600 
    130 H130       -1.2580  -11.8051  -50.4172 H         1 UNK         0.3000 
    131 H131        0.9194  -13.4041  -51.4690 H         1 UNK         0.0600 
    132 H132       -0.6058  -14.5353  -50.0427 H         1 UNK         0.0800 
    133 H133        0.9049  -14.4504  -49.2082 H         1 UNK         0.0800 
    134 H134       -2.7595  -12.9239  -49.4369 H         1 UNK         0.0800 
    135 H135       -3.1035  -12.8097  -47.7315 H         1 UNK         0.0800 
    136 H136       -3.0089  -15.0376  -50.5586 H         1 UNK         0.1150 
    137 H137       -3.8279  -18.5877  -48.3037 H         1 UNK         0.1150 
    138 H138       -2.8441  -14.9400  -46.2745 H         1 UNK         0.1150 
    139 H139       -3.8707  -16.9119  -45.0509 H         1 UNK         0.0800 
    140 H140       -4.1140  -18.4201  -45.9010 H         1 UNK         0.0800 
    141 H141       -3.0901  -19.4834  -43.8234 H         1 UNK         0.0800 
    142 H142       -1.3768  -19.7505  -43.6228 H         1 UNK         0.0800 
    143 H143       -3.0828  -20.7043  -45.9756 H         1 UNK         0.0600 
    144 H144       -0.2016  -20.5928  -45.7955 H         1 UNK         0.3000 
    145 H145        0.3964  -22.7947  -48.5145 H         1 UNK         0.0600 
    146 H146        0.5138  -19.7333  -48.4397 H         1 UNK         0.0600 
    147 H147        1.4813  -20.7774  -49.4841 H         1 UNK         0.0600 
    148 H148       -0.2626  -20.7140  -49.6782 H         1 UNK         0.0600 
    149 H149        2.0977  -21.0640  -46.9889 H         1 UNK         0.3000 
    150 H150        2.7816  -23.4150  -44.3737 H         1 UNK         0.0600 
    151 H151        4.2149  -24.0652  -46.3199 H         1 UNK         0.0600 
    152 H152        5.0849  -23.0490  -45.1829 H         1 UNK         0.0600 
    153 H153        4.4859  -22.3677  -46.6956 H         1 UNK         0.0600 
    154 H154        3.9121  -20.9002  -44.7245 H         1 UNK         0.3000 
    155 H155        3.5308  -19.3216  -43.2316 H         1 UNK         0.0600 
    156 H156        2.1239  -18.3099  -45.0530 H         1 UNK         0.0600 
    157 H157        2.1358  -17.3242  -43.5979 H         1 UNK         0.0600 
    158 H158        0.7363  -18.3226  -43.9711 H         1 UNK         0.0600 
    159 H159        1.1199  -18.8951  -41.6558 H         1 UNK         0.3000 
    160 H160        1.2331  -20.8448  -39.3903 H         1 UNK         0.0600 
    161 H161        2.3984  -20.0777  -37.3055 H         1 UNK         0.0600 
    162 H162        3.6545  -19.3275  -38.2896 H         1 UNK         0.0600 
    163 H163        3.4312  -21.0703  -38.3186 H         1 UNK         0.0600 
    164 H164        0.0509  -19.0122  -39.1610 H         1 UNK         0.3000 
    165 H165       -0.6270  -17.0278  -38.7145 H         1 UNK         0.0600 
    166 H166        1.4523  -14.8030  -38.3798 H         1 UNK         0.0600 
    167 H167       -0.2309  -14.7583  -37.8560 H         1 UNK         0.0600 
    168 H168        0.8973  -15.8673  -37.0931 H         1 UNK         0.0600 
    169 H169       -0.0427  -14.8437  -40.3491 H         1 UNK         0.3000 
    170 H170       -0.4779  -16.0052  -43.5600 H         1 UNK         0.0600 
    171 H171       -2.8412  -14.9312  -41.9252 H         1 UNK         0.0600 
    172 H172       -2.6787  -14.8913  -43.6823 H         1 UNK         0.0600 
    173 H173       -2.8502  -16.4272  -42.8475 H         1 UNK         0.0600 
    174 H174       -0.9578  -13.4576  -42.2726 H         1 UNK         0.3000 
    175 H175        0.4732  -11.7748  -42.6683 H         1 UNK         0.0600 
    176 H176        2.8778  -12.8077  -41.0614 H         1 UNK         0.0600 
    177 H177        2.2611  -11.1552  -41.0405 H         1 UNK         0.0600 
    178 H178        1.2788  -12.4683  -40.4116 H         1 UNK         0.0600 
    179 H179        3.3005  -12.0579  -43.3576 H         1 UNK         0.3000 
    180 H180        3.8657  -10.8297  -45.4035 H         1 UNK         0.0600 
    181 H181        3.2134  -13.5891  -46.6127 H         1 UNK         0.0600 
    182 H182        4.2787  -13.3147  -45.2394 H         1 UNK         0.0600 
    183 H183        4.7305  -12.7191  -46.8276 H         1 UNK         0.0600 
    184 H184        1.6661  -11.1427  -47.2572 H         1 UNK         0.3000 
    185 H185        2.0384   -8.9031  -48.9521 H         1 UNK         0.0600 
    186 H186        4.1687  -10.2122  -50.7220 H         1 UNK         0.0600 
    187 H187        2.9688   -9.0436  -51.2720 H         1 UNK         0.0600 
    188 H188        4.1894   -8.5660  -50.1046 H         1 UNK         0.0600 
    189 H189        0.6421  -10.4162  -49.7628 H         1 UNK         0.3000 
    190 H190       -0.5787  -22.3092  -43.9793 H         1 UNK         0.3000 
    191 H191       -2.2844  -23.9931  -42.4651 H         1 UNK         0.0600 
    192 H192        0.6088  -24.4248  -43.3867 H         1 UNK         0.0600 
    193 H193        0.1087  -23.5815  -41.9228 H         1 UNK         0.0600 
    194 H194       -0.1935  -25.3052  -42.0915 H         1 UNK         0.0600 
    195 H195       -0.9312  -24.3578  -45.7273 H         1 UNK         0.3000 
    196 H196       -2.0379  -27.0012  -46.2033 H         1 UNK         0.0600 
    197 H197        0.0628  -26.2307  -47.2837 H         1 UNK         0.0600 
    198 H198       -0.8082  -24.9332  -48.0959 H         1 UNK         0.0600 
    199 H199       -1.1447  -26.6141  -48.4961 H         1 UNK         0.0600 
    200 H200       -3.7350  -24.2445  -45.7440 H         1 UNK         0.3000 
    201 H201       -5.7548  -23.4965  -46.2161 H         1 UNK         0.0600 
    202 H202       -7.5108  -25.0732  -46.9455 H         1 UNK         0.0600 
    203 H203       -6.4728  -25.8323  -45.7486 H         1 UNK         0.0600 
    204 H204       -6.3072  -26.2468  -47.4539 H         1 UNK         0.0600 
    205 H205       -4.1710  -22.2695  -47.6917 H         1 UNK         0.3000 
    206 H206       -3.8605  -20.9590  -49.4309 H         1 UNK         0.0600 
    207 H207       -6.6080  -21.8281  -50.4783 H         1 UNK         0.0600 
    208 H208       -5.6804  -20.4418  -51.0259 H         1 UNK         0.0600 
    209 H209       -6.3036  -20.4788  -49.3850 H         1 UNK         0.0600 
    210 H210       -2.5166  -23.1770  -49.4021 H         1 UNK         0.3000 
    211 H211       -1.2457  -24.6527  -50.5029 H         1 UNK         0.0600 
    212 H212       -0.5568  -22.5932  -51.7318 H         1 UNK         0.0600 
    213 H213       -0.4593  -24.0110  -52.7650 H         1 UNK         0.0600 
    214 H214       -1.7961  -22.8853  -52.9495 H         1 UNK         0.0600 
    215 H215       -3.4522  -25.8894  -49.9751 H         1 UNK         0.3000 
    216 H216       -4.8668  -27.5009  -50.3882 H         1 UNK         0.0600 
    217 H217       -4.3387  -29.2094  -52.0814 H         1 UNK         0.0600 
    218 H218       -3.2475  -28.1143  -52.9173 H         1 UNK         0.0600 
    219 H219       -2.8582  -28.6866  -51.2954 H         1 UNK         0.0600 
    220 H220       -5.7488  -25.0283  -51.0108 H         1 UNK         0.3000 
    221 H221       -7.2912  -23.8067  -51.9242 H         1 UNK         0.0600 
    222 H222       -8.5192  -26.3827  -53.0350 H         1 UNK         0.0600 
    223 H223       -8.7434  -25.7765  -51.3938 H         1 UNK         0.0600 
    224 H224       -9.3506  -24.8590  -52.7605 H         1 UNK         0.0600 
    225 H225       -4.8683  -24.6310  -53.6931 H         1 UNK         0.3000 
    226 H226       -5.8011  -24.1636  -56.4103 H         1 UNK         0.0600 
    227 H227       -3.7446  -25.5142  -55.8705 H         1 UNK         0.0600 
    228 H228       -3.4061  -24.1756  -56.9586 H         1 UNK         0.0600 
    229 H229       -2.9626  -24.0543  -55.2630 H         1 UNK         0.0600 
    230 H230       -4.7779  -22.1839  -53.7036 H         1 UNK         0.3000 
    231 H231       -4.5664  -20.0451  -53.2909 H         1 UNK         0.0600 
    232 H232       -5.9866  -18.4016  -54.4346 H         1 UNK         0.0600 
    233 H233       -6.8893  -19.8906  -54.2109 H         1 UNK         0.0600 
    234 H234       -6.2332  -19.4849  -55.7968 H         1 UNK         0.0600 
    235 H235       -2.5018  -21.3426  -54.8119 H         1 UNK         0.3000 
    236 H236       -1.2697  -19.6793  -56.7378 H         1 UNK         0.0600 
    237 H237       -0.6561  -22.0592  -56.3504 H         1 UNK         0.0600 
    238 H238        0.7620  -21.0351  -56.1902 H         1 UNK         0.0600 
    239 H239       -0.0297  -21.6629  -54.7496 H         1 UNK         0.0600 
    240 H240       -1.4455  -19.4034  -53.2996 H         1 UNK         0.3000 
    241 H241        0.5583  -17.4139  -52.8288 H         1 UNK         0.0600 
    242 H242       -2.5425  -15.3322  -54.3587 H         1 UNK         0.3800 
    243 H243       -2.4866  -17.0644  -54.5559 H         1 UNK         0.3800 
    244 H244       -0.0398  -18.5838  -50.9157 H         1 UNK         0.0800 
    245 H245       -0.8708  -17.0922  -50.6583 H         1 UNK         0.0800 
    246 H246       -4.6406  -18.1469  -50.8264 H         1 UNK         0.0800 
    247 H247       -3.6754  -17.0030  -51.7202 H         1 UNK         0.0800 
@<TRIPOS>BOND
     1    1    2 1    
     2    1  127 1    
     3    1  128 1    
     4    1  129 1    
     5    2    3 2    
     6    2    4 am   BACKBONE|DICT|INTERRES
     7    4    5 1    
     8    4  130 1    
     9    5    6 1    
    10    5   65 1    
    11    5  131 1    
    12    6    7 1    
    13    6  132 1    
    14    6  133 1    
    15    7    8 1    
    16    8    9 1    
    17    8  134 1    
    18    8  135 1    
    19    9   10 ar   
    20    9   14 ar   
    21   10   11 ar   
    22   10  136 1    
    23   11   12 ar   
    24   11  126 1    
    25   12   13 ar   
    26   12  137 1    
    27   13   14 ar   
    28   13   15 1    
    29   14  138 1    
    30   15   16 1    
    31   15  139 1    
    32   15  140 1    
    33   16   17 1    
    34   17   18 1    
    35   17  141 1    
    36   17  142 1    
    37   18   19 1    
    38   18   67 1    
    39   18  143 1    
    40   19   20 am   BACKBONE|DICT|INTERRES
    41   19  144 1    
    42   20   21 2    
    43   20   22 1    
    44   22   23 1    
    45   22   24 1    
    46   22  145 1    
    47   23  146 1    
    48   23  147 1    
    49   23  148 1    
    50   24   25 am   BACKBONE|DICT|INTERRES
    51   24  149 1    
    52   25   26 2    
    53   25   27 1    
    54   27   28 1    
    55   27   29 1    
    56   27  150 1    
    57   28  151 1    
    58   28  152 1    
    59   28  153 1    
    60   29   30 am   BACKBONE|DICT|INTERRES
    61   29  154 1    
    62   30   31 2    
    63   30   32 1    
    64   32   33 1    
    65   32   34 1    
    66   32  155 1    
    67   33  156 1    
    68   33  157 1    
    69   33  158 1    
    70   34   35 am   BACKBONE|DICT|INTERRES
    71   34  159 1    
    72   35   36 2    
    73   35   37 1    
    74   37   38 1    
    75   37   39 1    
    76   37  160 1    
    77   38  161 1    
    78   38  162 1    
    79   38  163 1    
    80   39   40 am   BACKBONE|DICT|INTERRES
    81   39  164 1    
    82   40   41 2    
    83   40   42 1    
    84   42   43 1    
    85   42   44 1    
    86   42  165 1    
    87   43  166 1    
    88   43  167 1    
    89   43  168 1    
    90   44   45 am   BACKBONE|DICT|INTERRES
    91   44  169 1    
    92   45   46 2    
    93   45   47 1    
    94   47   48 1    
    95   47   49 1    
    96   47  170 1    
    97   48  171 1    
    98   48  172 1    
    99   48  173 1    
   100   49   50 am   BACKBONE|DICT|INTERRES
   101   49  174 1    
   102   50   51 2    
   103   50   52 1    
   104   52   53 1    
   105   52   54 1    
   106   52  175 1    
   107   53  176 1    
   108   53  177 1    
   109   53  178 1    
   110   54   55 am   BACKBONE|DICT|INTERRES
   111   54  179 1    
   112   55   56 2    
   113   55   57 1    
   114   57   58 1    
   115   57   59 1    
   116   57  180 1    
   117   58  181 1    
   118   58  182 1    
   119   58  183 1    
   120   59   60 am   BACKBONE|DICT|INTERRES
   121   59  184 1    
   122   60   61 2    
   123   60   62 1    
   124   62   63 1    
   125   62   64 1    
   126   62  185 1    
   127   63  186 1    
   128   63  187 1    
   129   63  188 1    
   130   64   65 am   BACKBONE|DICT|INTERRES
   131   64  189 1    
   132   65   66 2    
   133   67   68 2    
   134   67   69 am   BACKBONE|DICT|INTERRES
   135   69   70 1    
   136   69  190 1    
   137   70   71 1    
   138   70   72 1    
   139   70  191 1    
   140   71  192 1    
   141   71  193 1    
   142   71  194 1    
   143   72   73 2    
   144   72   74 am   BACKBONE|DICT|INTERRES
   145   74   75 1    
   146   74  195 1    
   147   75   76 1    
   148   75   77 1    
   149   75  196 1    
   150   76  197 1    
   151   76  198 1    
   152   76  199 1    
   153   77   78 2    
   154   77   79 am   BACKBONE|DICT|INTERRES
   155   79   80 1    
   156   79  200 1    
   157   80   81 1    
   158   80   82 1    
   159   80  201 1    
   160   81  202 1    
   161   81  203 1    
   162   81  204 1    
   163   82   83 2    
   164   82   84 am   BACKBONE|DICT|INTERRES
   165   84   85 1    
   166   84  205 1    
   167   85   86 1    
   168   85   87 1    
   169   85  206 1    
   170   86  207 1    
   171   86  208 1    
   172   86  209 1    
   173   87   88 2    
   174   87   89 am   BACKBONE|DICT|INTERRES
   175   89   90 1    
   176   89  210 1    
   177   90   91 1    
   178   90   92 1    
   179   90  211 1    
   180   91  212 1    
   181   91  213 1    
   182   91  214 1    
   183   92   93 2    
   184   92   94 am   BACKBONE|DICT|INTERRES
   185   94   95 1    
   186   94  215 1    
   187   95   96 1    
   188   95   97 1    
   189   95  216 1    
   190   96  217 1    
   191   96  218 1    
   192   96  219 1    
   193   97   98 2    
   194   97   99 am   BACKBONE|DICT|INTERRES
   195   99  100 1    
   196   99  220 1    
   197  100  101 1    
   198  100  102 1    
   199  100  221 1    
   200  101  222 1    
   201  101  223 1    
   202  101  224 1    
   203  102  103 2    
   204  102  104 am   BACKBONE|DICT|INTERRES
   205  104  105 1    
   206  104  225 1    
   207  105  106 1    
   208  105  107 1    
   209  105  226 1    
   210  106  227 1    
   211  106  228 1    
   212  106  229 1    
   213  107  108 2    
   214  107  109 am   BACKBONE|DICT|INTERRES
   215  109  110 1    
   216  109  230 1    
   217  110  111 1    
   218  110  112 1    
   219  110  231 1    
   220  111  232 1    
   221  111  233 1    
   222  111  234 1    
   223  112  113 2    
   224  112  114 am   BACKBONE|DICT|INTERRES
   225  114  115 1    
   226  114  235 1    
   227  115  116 1    
   228  115  117 1    
   229  115  236 1    
   230  116  237 1    
   231  116  238 1    
   232  116  239 1    
   233  117  118 2    
   234  117  119 am   BACKBONE|DICT|INTERRES
   235  119  120 1    
   236  119  240 1    
   237  120  121 1    
   238  120  124 1    
   239  120  241 1    
   240  121  122 am   BACKBONE|DICT|INTERRES
   241  121  123 2    
   242  122  242 1    
   243  122  243 1    
   244  124  125 1    
   245  124  244 1    
   246  124  245 1    
   247  125  126 1    
   248  126  246 1    
   249  126  247 1    
@<TRIPOS>SUBSTRUCTURE
     1 UNK         1 GROUP             0       ****    0 ROOT    
