@<TRIPOS>MOLECULE
3R540
247   249    1
SMALL
USER_CHARGES


@<TRIPOS>ATOM
      1 CA         -0.4881   -9.2364  -50.2690 C.3       0 UNK        -0.1800 
      2 C           0.9031   -9.5843  -49.7580 C.2       0 UNK         0.5000 
      3 O           1.8669   -8.8887  -50.0799 O.2       0 UNK        -0.5000 
      4 N           1.0108  -10.6609  -48.9709 N.am      1 UNK        -0.5000 
      5 CA          2.2528  -11.1222  -48.3443 C.3       1 UNK         0.1400 
      6 C6          2.1234  -12.5585  -47.7839 C.3       23 UNK        -0.0398 
      7 S7          1.6866  -13.8050  -49.0441 S.3       23 UNK        -0.2404 
      8 C8         -0.0652  -14.0895  -48.6452 C.3       23 UNK        -0.0205 
      9 C9         -0.5984  -15.3490  -49.3074 C.ar      23 UNK        -0.0193 
     10 C10        -1.1142  -15.3090  -50.6068 C.ar      23 UNK        -0.1150 
     11 C11        -1.6593  -16.4589  -51.1874 C.ar      23 UNK        -0.0193 
     12 C12        -1.6797  -17.6525  -50.4602 C.ar      23 UNK        -0.1150 
     13 C13        -1.1736  -17.7020  -49.1591 C.ar      23 UNK        -0.0193 
     14 C14        -0.6196  -16.5510  -48.5955 C.ar      23 UNK        -0.1150 
     15 C15        -1.2989  -18.9771  -48.3426 C.3       23 UNK        -0.0205 
     16 S16        -0.1498  -20.2732  -48.8844 S.3       23 UNK        -0.2404 
     17 C17        -0.9728  -21.7379  -48.1770 C.3       23 UNK        -0.0398 
     18 CA         -0.0472  -22.5992  -47.2899 C.3       11 UNK         0.1400 
     19 N           0.4520  -21.8697  -46.1205 N.am      11 UNK        -0.5000 
     20 C           1.4522  -22.2968  -45.3385 C.2       10 UNK         0.5000 
     21 O           2.0761  -23.3395  -45.5432 O.2       10 UNK        -0.5000 
     22 CA          1.8439  -21.4186  -44.1367 C.3       10 UNK         0.1400 
     23 CB          3.0596  -20.5460  -44.4867 C.3       10 UNK        -0.1800 
     24 N           0.7518  -20.5721  -43.6473 N.am      10 UNK        -0.5000 
     25 C          -0.2288  -21.0109  -42.8438 C.2       9 UNK         0.5000 
     26 O          -0.3364  -22.1871  -42.4945 O.2       9 UNK        -0.5000 
     27 CA         -1.2414  -19.9823  -42.2962 C.3       9 UNK         0.1400 
     28 CB         -0.9505  -19.6893  -40.8157 C.3       9 UNK        -0.1800 
     29 N          -1.2597  -18.7124  -43.0191 N.am      9 UNK        -0.5000 
     30 C          -1.8147  -18.5209  -44.2223 C.2       8 UNK         0.5000 
     31 O          -2.3932  -19.3992  -44.8619 O.2       8 UNK        -0.5000 
     32 CA         -1.6430  -17.1150  -44.8311 C.3       8 UNK         0.1400 
     33 CB         -2.7015  -16.1505  -44.2789 C.3       8 UNK        -0.1800 
     34 N          -0.3016  -16.5585  -44.6197 N.am      8 UNK        -0.5000 
     35 C           0.8422  -17.1455  -45.0065 C.2       7 UNK         0.5000 
     36 O           0.8896  -18.2222  -45.5982 O.2       7 UNK        -0.5000 
     37 CA          2.1528  -16.4338  -44.6428 C.3       7 UNK         0.1400 
     38 CB          2.4693  -15.3326  -45.6624 C.3       7 UNK        -0.1800 
     39 N           2.0963  -15.8769  -43.2916 N.am      7 UNK        -0.5000 
     40 C           2.2684  -16.6073  -42.1797 C.2       6 UNK         0.5000 
     41 O           2.6032  -17.7913  -42.1858 O.2       6 UNK        -0.5000 
     42 CA          1.9806  -15.9187  -40.8328 C.3       6 UNK         0.1400 
     43 CB          3.2557  -15.3023  -40.2417 C.3       6 UNK        -0.1800 
     44 N           0.9389  -14.8959  -40.9327 N.am      6 UNK        -0.5000 
     45 C          -0.3569  -15.1745  -41.1358 C.2       5 UNK         0.5000 
     46 O          -0.7972  -16.3196  -41.2434 O.2       5 UNK        -0.5000 
     47 CA         -1.3192  -13.9805  -41.2816 C.3       5 UNK         0.1400 
     48 CB         -1.9002  -13.5930  -39.9139 C.3       5 UNK        -0.1800 
     49 N          -0.7208  -12.7964  -41.9005 N.am      5 UNK        -0.5000 
     50 C          -0.1609  -12.7428  -43.1170 C.2       4 UNK         0.5000 
     51 O          -0.0479  -13.7210  -43.8586 O.2       4 UNK        -0.5000 
     52 CA          0.3870  -11.3763  -43.5811 C.3       4 UNK         0.1400 
     53 CB         -0.0266  -10.1917  -42.6799 C.3       4 UNK        -0.1800 
     54 N           1.8420  -11.3785  -43.7548 N.am      4 UNK        -0.5000 
     55 C           2.7749  -11.7499  -42.8622 C.2       3 UNK         0.5000 
     56 O           2.5110  -12.2229  -41.7555 O.2       3 UNK        -0.5000 
     57 CA          4.2556  -11.5651  -43.2615 C.3       3 UNK         0.1400 
     58 CB          4.9731  -12.9190  -43.3673 C.3       3 UNK        -0.1800 
     59 N           4.4302  -10.8444  -44.5253 N.am      3 UNK        -0.5000 
     60 C           4.4110   -9.5106  -44.6560 C.2       2 UNK         0.5000 
     61 O           4.2879   -8.7317  -43.7105 O.2       2 UNK        -0.5000 
     62 CA          4.5234   -8.9552  -46.0908 C.3       2 UNK         0.1400 
     63 CB          5.9899   -8.6566  -46.4379 C.3       2 UNK        -0.1800 
     64 N           3.9574   -9.8414  -47.1156 N.am      2 UNK        -0.5000 
     65 C           2.6605  -10.1658  -47.2060 C.2       1 UNK         0.5000 
     66 O           1.8061   -9.7869  -46.4013 O.2       1 UNK        -0.5000 
     67 C          -0.7993  -23.8769  -46.8664 C.2       11 UNK         0.5000 
     68 O          -1.5851  -23.8420  -45.9161 O.2       11 UNK        -0.5000 
     69 N          -0.5921  -24.9655  -47.6166 N.am      12 UNK        -0.5000 
     70 CA         -1.3312  -26.2182  -47.4824 C.3       12 UNK         0.1400 
     71 CB         -0.4761  -27.3691  -48.0427 C.3       12 UNK        -0.1800 
     72 C          -2.6887  -26.0983  -48.1984 C.2       12 UNK         0.5000 
     73 O          -2.8170  -26.5221  -49.3460 O.2       12 UNK        -0.5000 
     74 N          -3.6741  -25.5009  -47.5158 N.am      13 UNK        -0.5000 
     75 CA         -5.0204  -25.2164  -48.0306 C.3       13 UNK         0.1400 
     76 CB         -5.7919  -24.4142  -46.9711 C.3       13 UNK        -0.1800 
     77 C          -5.8315  -26.4610  -48.4497 C.2       13 UNK         0.5000 
     78 O          -6.7560  -26.3385  -49.2530 O.2       13 UNK        -0.5000 
     79 N          -5.4730  -27.6314  -47.9039 N.am      14 UNK        -0.5000 
     80 CA         -6.0269  -28.9347  -48.2759 C.3       14 UNK         0.1400 
     81 CB         -5.7156  -29.9382  -47.1544 C.3       14 UNK        -0.1800 
     82 C          -5.4974  -29.4580  -49.6285 C.2       14 UNK         0.5000 
     83 O          -6.1153  -30.3518  -50.2092 O.2       14 UNK        -0.5000 
     84 N          -4.3704  -28.9091  -50.0977 N.am      15 UNK        -0.5000 
     85 CA         -3.7543  -29.1915  -51.3901 C.3       15 UNK         0.1400 
     86 CB         -2.2467  -29.4162  -51.1644 C.3       15 UNK        -0.1800 
     87 C          -4.0127  -28.0193  -52.3562 C.2       15 UNK         0.5000 
     88 O          -4.7366  -27.0800  -52.0228 O.2       15 UNK        -0.5000 
     89 N          -3.4056  -28.0859  -53.5471 N.am      16 UNK        -0.5000 
     90 CA         -3.4745  -27.0420  -54.5745 C.3       16 UNK         0.1400 
     91 CB         -3.1832  -27.6821  -55.9412 C.3       16 UNK        -0.1800 
     92 C          -2.5188  -25.8559  -54.3191 C.2       16 UNK         0.5000 
     93 O          -2.5735  -24.8790  -55.0679 O.2       16 UNK        -0.5000 
     94 N          -1.6612  -25.9615  -53.2923 N.am      17 UNK        -0.5000 
     95 CA         -0.6013  -25.0208  -52.9179 C.3       17 UNK         0.1400 
     96 CB          0.0046  -25.4659  -51.5780 C.3       17 UNK        -0.1800 
     97 C          -1.0702  -23.5566  -52.8292 C.2       17 UNK         0.5000 
     98 O          -1.9873  -23.2571  -52.0619 O.2       17 UNK        -0.5000 
     99 N          -0.4350  -22.6874  -53.6293 N.am      18 UNK        -0.5000 
    100 CA        -0.7041  -21.2504  -53.7641 C.3       18 UNK         0.1400 
    101 CB        -0.2782  -20.5029  -52.4859 C.3       18 UNK        -0.1800 
    102 C         -2.1638  -20.9523  -54.1637 C.2       18 UNK         0.5000 
    103 O         -2.8004  -20.0868  -53.5630 O.2       18 UNK        -0.5000 
    104 N         -2.6763  -21.7111  -55.1445 N.am      19 UNK        -0.5000 
    105 CA        -4.0662  -21.7087  -55.6186 C.3       19 UNK         0.1400 
    106 CB        -4.4250  -20.3628  -56.2846 C.3       19 UNK        -0.1800 
    107 C         -5.0499  -22.1153  -54.5019 C.2       19 UNK         0.5000 
    108 O         -6.0623  -21.4474  -54.2867 O.2       19 UNK        -0.5000 
    109 N         -4.6944  -23.1936  -53.7897 N.am      20 UNK        -0.5000 
    110 CA        -5.3701  -23.7491  -52.6127 C.3       20 UNK         0.1400 
    111 CB        -6.6994  -24.4176  -53.0168 C.3       20 UNK        -0.1800 
    112 C         -5.5267  -22.7068  -51.4875 C.2       20 UNK         0.5000 
    113 O         -6.6349  -22.4696  -51.0040 O.2       20 UNK        -0.5000 
    114 N         -4.3950  -22.0870  -51.1259 N.am      21 UNK        -0.5000 
    115 CA        -4.2484  -20.9928  -50.1662 C.3       21 UNK         0.1400 
    116 CB        -4.5623  -21.4758  -48.7353 C.3       21 UNK        -0.1800 
    117 C         -5.0396  -19.7312  -50.5736 C.2       21 UNK         0.5000 
    118 O         -5.8204  -19.2019  -49.7803 O.2       21 UNK        -0.5000 
    119 N         -4.7923  -19.2580  -51.8016 N.am      22 UNK        -0.5000 
    120 CA        -5.3498  -18.0289  -52.3879 C.3       22 UNK         0.1400 
    121 C         -6.8797  -18.0923  -52.6886 C.2       22 UNK         0.5000 
    122 N         -7.4273  -19.2495  -53.0362 N.am      22 UNK        -0.7600 
    123 O         -7.5849  -17.0878  -52.6357 O.2       22 UNK        -0.5000 
    124 C124       -4.8908  -16.7477  -51.6170 C.3       23 UNK        -0.0398 
    125 S125       -3.8865  -15.6203  -52.6439 S.3       23 UNK        -0.2404 
    126 C126       -2.2438  -16.4135  -52.5921 C.3       23 UNK        -0.0205 
    127 H127       -0.4989   -9.2387  -51.3590 H         1 UNK         0.0600 
    128 H128       -0.7759   -8.2427  -49.9259 H         1 UNK         0.0600 
    129 H129       -1.2379   -9.9471  -49.9205 H         1 UNK         0.0600 
    130 H130        0.1792  -11.1735  -48.7209 H         1 UNK         0.3000 
    131 H131        3.0372  -11.1192  -49.1044 H         1 UNK         0.0600 
    132 H132        3.0713  -12.8736  -47.3440 H         1 UNK         0.0800 
    133 H133        1.3941  -12.5866  -46.9721 H         1 UNK         0.0800 
    134 H134       -0.1898  -14.1702  -47.5638 H         1 UNK         0.0800 
    135 H135       -0.6552  -13.2279  -48.9597 H         1 UNK         0.0800 
    136 H136       -1.1077  -14.3802  -51.1600 H         1 UNK         0.1150 
    137 H137       -2.1108  -18.5402  -50.9002 H         1 UNK         0.1150 
    138 H138       -0.2278  -16.5806  -47.5907 H         1 UNK         0.1150 
    139 H139       -1.1116  -18.7887  -47.2879 H         1 UNK         0.0800 
    140 H140       -2.3287  -19.3260  -48.4124 H         1 UNK         0.0800 
    141 H141       -1.3539  -22.3233  -49.0168 H         1 UNK         0.0800 
    142 H142       -1.8455  -21.4296  -47.5990 H         1 UNK         0.0800 
    143 H143        0.8172  -22.8921  -47.8902 H         1 UNK         0.0600 
    144 H144       -0.0150  -21.0059  -45.8850 H         1 UNK         0.3000 
    145 H145        2.1466  -22.0894  -43.3297 H         1 UNK         0.0600 
    146 H146        3.3641  -19.9313  -43.6402 H         1 UNK         0.0600 
    147 H147        2.8578  -19.8861  -45.3299 H         1 UNK         0.0600 
    148 H148        3.9148  -21.1654  -44.7595 H         1 UNK         0.0600 
    149 H149        0.7621  -19.6028  -43.9386 H         1 UNK         0.3000 
    150 H150       -2.2336  -20.4330  -42.3661 H         1 UNK         0.0600 
    151 H151       -0.9579  -20.6051  -40.2232 H         1 UNK         0.0600 
    152 H152       -1.7010  -19.0222  -40.3910 H         1 UNK         0.0600 
    153 H153        0.0256  -19.2195  -40.6856 H         1 UNK         0.0600 
    154 H154       -0.8492  -17.9152  -42.5434 H         1 UNK         0.3000 
    155 H155       -1.8030  -17.1864  -45.9059 H         1 UNK         0.0600 
    156 H156       -3.7019  -16.4649  -44.5783 H         1 UNK         0.0600 
    157 H157       -2.5528  -15.1368  -44.6518 H         1 UNK         0.0600 
    158 H158       -2.6872  -16.1189  -43.1906 H         1 UNK         0.0600 
    159 H159       -0.2505  -15.6435  -44.1825 H         1 UNK         0.3000 
    160 H160        2.9553  -17.1731  -44.6933 H         1 UNK         0.0600 
    161 H161        1.7826  -14.4922  -45.5757 H         1 UNK         0.0600 
    162 H162        2.3960  -15.7133  -46.6822 H         1 UNK         0.0600 
    163 H163        3.4837  -14.9597  -45.5372 H         1 UNK         0.0600 
    164 H164        1.7562  -14.9287  -43.2030 H         1 UNK         0.3000 
    165 H165        1.6328  -16.6898  -40.1417 H         1 UNK         0.0600 
    166 H166        3.0711  -14.8926  -39.2486 H         1 UNK         0.0600 
    167 H167        4.0433  -16.0506  -40.1442 H         1 UNK         0.0600 
    168 H168        3.6410  -14.4994  -40.8673 H         1 UNK         0.0600 
    169 H169        1.2390  -13.9286  -40.9056 H         1 UNK         0.3000 
    170 H170       -2.1447  -14.2956  -41.9202 H         1 UNK         0.0600 
    171 H171       -1.1266  -13.2284  -39.2369 H         1 UNK         0.0600 
    172 H172       -2.6565  -12.8140  -40.0119 H         1 UNK         0.0600 
    173 H173       -2.3783  -14.4492  -39.4358 H         1 UNK         0.0600 
    174 H174       -0.7392  -11.9490  -41.3522 H         1 UNK         0.3000 
    175 H175       -0.0404  -11.2023  -44.5697 H         1 UNK         0.0600 
    176 H176        0.4016  -10.2649  -41.6794 H         1 UNK         0.0600 
    177 H177        0.3083   -9.2471  -43.1091 H         1 UNK         0.0600 
    178 H178       -1.1110  -10.1280  -42.5801 H         1 UNK         0.0600 
    179 H179        2.1594  -10.9812  -44.6295 H         1 UNK         0.3000 
    180 H180        4.7345  -10.9961  -42.4619 H         1 UNK         0.0600 
    181 H181        6.0191  -12.7906  -43.6465 H         1 UNK         0.0600 
    182 H182        4.5056  -13.5656  -44.1070 H         1 UNK         0.0600 
    183 H183        4.9609  -13.4456  -42.4138 H         1 UNK         0.0600 
    184 H184        4.5559  -11.4054  -45.3546 H         1 UNK         0.3000 
    185 H185        3.9686   -8.0150  -46.1203 H         1 UNK         0.0600 
    186 H186        6.0754   -8.1800  -47.4147 H         1 UNK         0.0600 
    187 H187        6.4341   -7.9785  -45.7078 H         1 UNK         0.0600 
    188 H188        6.5938   -9.5648  -46.4521 H         1 UNK         0.0600 
    189 H189        4.6029  -10.1917  -47.8094 H         1 UNK         0.3000 
    190 H190        0.0523  -24.9141  -48.3919 H         1 UNK         0.3000 
    191 H191       -1.5162  -26.4257  -46.4261 H         1 UNK         0.0600 
    192 H192        0.4496  -27.4806  -47.4781 H         1 UNK         0.0600 
    193 H193       -0.2112  -27.2115  -49.0884 H         1 UNK         0.0600 
    194 H194       -1.0107  -28.3178  -47.9804 H         1 UNK         0.0600 
    195 H195       -3.4607  -25.1404  -46.5947 H         1 UNK         0.3000 
    196 H196       -4.9058  -24.5945  -48.9207 H         1 UNK         0.0600 
    197 H197       -5.2545  -23.5109  -46.6833 H         1 UNK         0.0600 
    198 H198       -5.9616  -25.0024  -46.0684 H         1 UNK         0.0600 
    199 H199       -6.7667  -24.1044  -47.3503 H         1 UNK         0.0600 
    200 H200       -4.7160  -27.6340  -47.2367 H         1 UNK         0.3000 
    201 H201       -7.1117  -28.8416  -48.3605 H         1 UNK         0.0600 
    202 H202       -6.1372  -29.6112  -46.2036 H         1 UNK         0.0600 
    203 H203       -4.6414  -30.0703  -47.0193 H         1 UNK         0.0600 
    204 H204       -6.1412  -30.9176  -47.3768 H         1 UNK         0.0600 
    205 H205       -3.9821  -28.1046  -49.6159 H         1 UNK         0.3000 
    206 H206       -4.1819  -30.0936  -51.8318 H         1 UNK         0.0600 
    207 H207       -1.7469  -28.5068  -50.8289 H         1 UNK         0.0600 
    208 H208       -2.0738  -30.1851  -50.4111 H         1 UNK         0.0600 
    209 H209       -1.7500  -29.7481  -52.0763 H         1 UNK         0.0600 
    210 H210       -2.8339  -28.8898  -53.7640 H         1 UNK         0.3000 
    211 H211       -4.4885  -26.6373  -54.6014 H         1 UNK         0.0600 
    212 H212       -2.1761  -28.0987  -55.9844 H         1 UNK         0.0600 
    213 H213       -3.2700  -26.9497  -56.7450 H         1 UNK         0.0600 
    214 H214       -3.8889  -28.4839  -56.1596 H         1 UNK         0.0600 
    215 H215       -1.7351  -26.7866  -52.7177 H         1 UNK         0.3000 
    216 H216        0.1745  -25.0957  -53.6821 H         1 UNK         0.0600 
    217 H217        0.8226  -24.8088  -51.2800 H         1 UNK         0.0600 
    218 H218        0.4055  -26.4778  -51.6386 H         1 UNK         0.0600 
    219 H219       -0.7396  -25.4459  -50.7813 H         1 UNK         0.0600 
    220 H220        0.2919  -23.0442  -54.2338 H         1 UNK         0.3000 
    221 H221       -0.0803  -20.8894  -54.5830 H         1 UNK         0.0600 
    222 H222       -0.9199  -20.7621  -51.6443 H         1 UNK         0.0600 
    223 H223        0.7496  -20.7374  -52.2094 H         1 UNK         0.0600 
    224 H224       -0.3395  -19.4228  -52.6234 H         1 UNK         0.0600 
    225 H225       -2.0914  -22.4412  -55.5291 H         1 UNK         0.3000 
    226 H226       -4.1331  -22.4838  -56.3834 H         1 UNK         0.0600 
    227 H227       -3.7117  -20.1082  -57.0683 H         1 UNK         0.0600 
    228 H228       -5.4118  -20.4097  -56.7464 H         1 UNK         0.0600 
    229 H229       -4.4424  -19.5420  -55.5670 H         1 UNK         0.0600 
    230 H230       -3.8257  -23.6474  -54.0501 H         1 UNK         0.3000 
    231 H231       -4.7103  -24.5210  -52.2170 H         1 UNK         0.0600 
    232 H232       -7.1568  -24.9154  -52.1607 H         1 UNK         0.0600 
    233 H233       -6.5402  -25.1761  -53.7830 H         1 UNK         0.0600 
    234 H234       -7.4187  -23.6941  -53.4017 H         1 UNK         0.0600 
    235 H235       -3.5324  -22.3907  -51.5759 H         1 UNK         0.3000 
    236 H236       -3.1944  -20.7152  -50.1956 H         1 UNK         0.0600 
    237 H237       -5.6098  -21.7557  -48.6216 H         1 UNK         0.0600 
    238 H238       -3.9541  -22.3403  -48.4717 H         1 UNK         0.0600 
    239 H239       -4.3544  -20.6958  -48.0023 H         1 UNK         0.0600 
    240 H240       -4.1262  -19.7462  -52.3985 H         1 UNK         0.3000 
    241 H241       -4.9068  -17.9975  -53.3837 H         1 UNK         0.0600 
    242 H242       -6.8555  -20.0736  -53.2025 H         1 UNK         0.3800 
    243 H243       -8.4139  -19.2871  -53.2338 H         1 UNK         0.3800 
    244 H244       -4.3233  -16.9971  -50.7218 H         1 UNK         0.0800 
    245 H245       -5.7350  -16.1745  -51.2327 H         1 UNK         0.0800 
    246 H246       -1.5658  -15.8629  -53.2455 H         1 UNK         0.0800 
    247 H247       -2.3171  -17.4188  -53.0102 H         1 UNK         0.0800 
@<TRIPOS>BOND
     1    1    2 1    
     2    1  127 1    
     3    1  128 1    
     4    1  129 1    
     5    2    3 2    
     6    2    4 am   BACKBONE|DICT|INTERRES
     7    4    5 1    
     8    4  130 1    
     9    5    6 1    
    10    5   65 1    
    11    5  131 1    
    12    6    7 1    
    13    6  132 1    
    14    6  133 1    
    15    7    8 1    
    16    8    9 1    
    17    8  134 1    
    18    8  135 1    
    19    9   10 ar   
    20    9   14 ar   
    21   10   11 ar   
    22   10  136 1    
    23   11   12 ar   
    24   11  126 1    
    25   12   13 ar   
    26   12  137 1    
    27   13   14 ar   
    28   13   15 1    
    29   14  138 1    
    30   15   16 1    
    31   15  139 1    
    32   15  140 1    
    33   16   17 1    
    34   17   18 1    
    35   17  141 1    
    36   17  142 1    
    37   18   19 1    
    38   18   67 1    
    39   18  143 1    
    40   19   20 am   BACKBONE|DICT|INTERRES
    41   19  144 1    
    42   20   21 2    
    43   20   22 1    
    44   22   23 1    
    45   22   24 1    
    46   22  145 1    
    47   23  146 1    
    48   23  147 1    
    49   23  148 1    
    50   24   25 am   BACKBONE|DICT|INTERRES
    51   24  149 1    
    52   25   26 2    
    53   25   27 1    
    54   27   28 1    
    55   27   29 1    
    56   27  150 1    
    57   28  151 1    
    58   28  152 1    
    59   28  153 1    
    60   29   30 am   BACKBONE|DICT|INTERRES
    61   29  154 1    
    62   30   31 2    
    63   30   32 1    
    64   32   33 1    
    65   32   34 1    
    66   32  155 1    
    67   33  156 1    
    68   33  157 1    
    69   33  158 1    
    70   34   35 am   BACKBONE|DICT|INTERRES
    71   34  159 1    
    72   35   36 2    
    73   35   37 1    
    74   37   38 1    
    75   37   39 1    
    76   37  160 1    
    77   38  161 1    
    78   38  162 1    
    79   38  163 1    
    80   39   40 am   BACKBONE|DICT|INTERRES
    81   39  164 1    
    82   40   41 2    
    83   40   42 1    
    84   42   43 1    
    85   42   44 1    
    86   42  165 1    
    87   43  166 1    
    88   43  167 1    
    89   43  168 1    
    90   44   45 am   BACKBONE|DICT|INTERRES
    91   44  169 1    
    92   45   46 2    
    93   45   47 1    
    94   47   48 1    
    95   47   49 1    
    96   47  170 1    
    97   48  171 1    
    98   48  172 1    
    99   48  173 1    
   100   49   50 am   BACKBONE|DICT|INTERRES
   101   49  174 1    
   102   50   51 2    
   103   50   52 1    
   104   52   53 1    
   105   52   54 1    
   106   52  175 1    
   107   53  176 1    
   108   53  177 1    
   109   53  178 1    
   110   54   55 am   BACKBONE|DICT|INTERRES
   111   54  179 1    
   112   55   56 2    
   113   55   57 1    
   114   57   58 1    
   115   57   59 1    
   116   57  180 1    
   117   58  181 1    
   118   58  182 1    
   119   58  183 1    
   120   59   60 am   BACKBONE|DICT|INTERRES
   121   59  184 1    
   122   60   61 2    
   123   60   62 1    
   124   62   63 1    
   125   62   64 1    
   126   62  185 1    
   127   63  186 1    
   128   63  187 1    
   129   63  188 1    
   130   64   65 am   BACKBONE|DICT|INTERRES
   131   64  189 1    
   132   65   66 2    
   133   67   68 2    
   134   67   69 am   BACKBONE|DICT|INTERRES
   135   69   70 1    
   136   69  190 1    
   137   70   71 1    
   138   70   72 1    
   139   70  191 1    
   140   71  192 1    
   141   71  193 1    
   142   71  194 1    
   143   72   73 2    
   144   72   74 am   BACKBONE|DICT|INTERRES
   145   74   75 1    
   146   74  195 1    
   147   75   76 1    
   148   75   77 1    
   149   75  196 1    
   150   76  197 1    
   151   76  198 1    
   152   76  199 1    
   153   77   78 2    
   154   77   79 am   BACKBONE|DICT|INTERRES
   155   79   80 1    
   156   79  200 1    
   157   80   81 1    
   158   80   82 1    
   159   80  201 1    
   160   81  202 1    
   161   81  203 1    
   162   81  204 1    
   163   82   83 2    
   164   82   84 am   BACKBONE|DICT|INTERRES
   165   84   85 1    
   166   84  205 1    
   167   85   86 1    
   168   85   87 1    
   169   85  206 1    
   170   86  207 1    
   171   86  208 1    
   172   86  209 1    
   173   87   88 2    
   174   87   89 am   BACKBONE|DICT|INTERRES
   175   89   90 1    
   176   89  210 1    
   177   90   91 1    
   178   90   92 1    
   179   90  211 1    
   180   91  212 1    
   181   91  213 1    
   182   91  214 1    
   183   92   93 2    
   184   92   94 am   BACKBONE|DICT|INTERRES
   185   94   95 1    
   186   94  215 1    
   187   95   96 1    
   188   95   97 1    
   189   95  216 1    
   190   96  217 1    
   191   96  218 1    
   192   96  219 1    
   193   97   98 2    
   194   97   99 am   BACKBONE|DICT|INTERRES
   195   99  100 1    
   196   99  220 1    
   197  100  101 1    
   198  100  102 1    
   199  100  221 1    
   200  101  222 1    
   201  101  223 1    
   202  101  224 1    
   203  102  103 2    
   204  102  104 am   BACKBONE|DICT|INTERRES
   205  104  105 1    
   206  104  225 1    
   207  105  106 1    
   208  105  107 1    
   209  105  226 1    
   210  106  227 1    
   211  106  228 1    
   212  106  229 1    
   213  107  108 2    
   214  107  109 am   BACKBONE|DICT|INTERRES
   215  109  110 1    
   216  109  230 1    
   217  110  111 1    
   218  110  112 1    
   219  110  231 1    
   220  111  232 1    
   221  111  233 1    
   222  111  234 1    
   223  112  113 2    
   224  112  114 am   BACKBONE|DICT|INTERRES
   225  114  115 1    
   226  114  235 1    
   227  115  116 1    
   228  115  117 1    
   229  115  236 1    
   230  116  237 1    
   231  116  238 1    
   232  116  239 1    
   233  117  118 2    
   234  117  119 am   BACKBONE|DICT|INTERRES
   235  119  120 1    
   236  119  240 1    
   237  120  121 1    
   238  120  124 1    
   239  120  241 1    
   240  121  122 am   BACKBONE|DICT|INTERRES
   241  121  123 2    
   242  122  242 1    
   243  122  243 1    
   244  124  125 1    
   245  124  244 1    
   246  124  245 1    
   247  125  126 1    
   248  126  246 1    
   249  126  247 1    
@<TRIPOS>SUBSTRUCTURE
     1 UNK         1 GROUP             0       ****    0 ROOT    
