@<TRIPOS>MOLECULE
3R540
247   249    1
SMALL
USER_CHARGES


@<TRIPOS>ATOM
      1 CA         -1.3311   -8.8283  -49.4072 C.3       0 UNK        -0.1800 
      2 C          -0.7831  -10.2412  -49.2633 C.2       0 UNK         0.5000 
      3 O          -1.4384  -11.0899  -48.6594 O.2       0 UNK        -0.5000 
      4 N           0.4109  -10.4898  -49.8197 N.am      1 UNK        -0.5000 
      5 CA          1.1436  -11.7621  -49.7787 C.3       1 UNK         0.1400 
      6 C6          0.4090  -12.9186  -50.5201 C.3       23 UNK        -0.0398 
      7 S7          1.5545  -13.9763  -51.4709 S.3       23 UNK        -0.2404 
      8 C8          1.7815  -15.4150  -50.3666 C.3       23 UNK        -0.0205 
      9 C9          0.5623  -16.3169  -50.1623 C.ar      23 UNK        -0.0193 
     10 C10        -0.5451  -16.3055  -51.0209 C.ar      23 UNK        -0.1150 
     11 C11        -1.6247  -17.1653  -50.8034 C.ar      23 UNK        -0.0193 
     12 C12        -1.5900  -18.0579  -49.7281 C.ar      23 UNK        -0.1150 
     13 C13        -0.4877  -18.0950  -48.8705 C.ar      23 UNK        -0.0193 
     14 C14         0.5779  -17.2170  -49.0914 C.ar      23 UNK        -0.1150 
     15 C15        -0.4167  -19.1102  -47.7372 C.3       23 UNK        -0.0205 
     16 S16        -1.6805  -18.8357  -46.4545 S.3       23 UNK        -0.2404 
     17 C17        -2.8599  -20.1932  -46.7726 C.3       23 UNK        -0.0398 
     18 CA         -2.3391  -21.5721  -46.2959 C.3       11 UNK         0.1400 
     19 N          -1.8802  -21.5529  -44.8982 N.am      11 UNK        -0.5000 
     20 C          -1.3001  -22.5590  -44.2260 C.2       10 UNK         0.5000 
     21 O          -1.1817  -23.6976  -44.6808 O.2       10 UNK        -0.5000 
     22 CA         -0.7423  -22.2563  -42.8241 C.3       10 UNK         0.1400 
     23 CB          0.7761  -22.4948  -42.7942 C.3       10 UNK        -0.1800 
     24 N          -1.0014  -20.8851  -42.3887 N.am      10 UNK        -0.5000 
     25 C          -2.0977  -20.4585  -41.7505 C.2       9 UNK         0.5000 
     26 O          -3.0656  -21.1798  -41.5036 O.2       9 UNK        -0.5000 
     27 CA         -2.0876  -18.9744  -41.3213 C.3       9 UNK         0.1400 
     28 CB         -3.1936  -18.6238  -40.3050 C.3       9 UNK        -0.1800 
     29 N          -0.7697  -18.5450  -40.8378 N.am      9 UNK        -0.5000 
     30 C          -0.0847  -19.0275  -39.7889 C.2       8 UNK         0.5000 
     31 O          -0.5335  -19.8583  -38.9982 O.2       8 UNK        -0.5000 
     32 CA          1.3630  -18.5281  -39.6010 C.3       8 UNK         0.1400 
     33 CB          2.3538  -19.6379  -39.9879 C.3       8 UNK        -0.1800 
     34 N           1.6779  -17.3282  -40.3792 N.am      8 UNK        -0.5000 
     35 C           1.2725  -16.0873  -40.0763 C.2       7 UNK         0.5000 
     36 O           0.6328  -15.8049  -39.0627 O.2       7 UNK        -0.5000 
     37 CA          1.6042  -14.9840  -41.1008 C.3       7 UNK         0.1400 
     38 CB          3.0272  -14.4464  -40.8873 C.3       7 UNK        -0.1800 
     39 N           1.4592  -15.4353  -42.4864 N.am      7 UNK        -0.5000 
     40 C           0.3061  -15.8257  -43.0477 C.2       6 UNK         0.5000 
     41 O          -0.7796  -15.8068  -42.4684 O.2       6 UNK        -0.5000 
     42 CA          0.3879  -16.3907  -44.4739 C.3       6 UNK         0.1400 
     43 CB          0.4033  -15.2690  -45.5207 C.3       6 UNK        -0.1800 
     44 N           1.5552  -17.2542  -44.6499 N.am      6 UNK        -0.5000 
     45 C           1.6618  -18.4840  -44.1289 C.2       5 UNK         0.5000 
     46 O           0.7707  -19.0299  -43.4805 O.2       5 UNK        -0.5000 
     47 CA          2.9976  -19.2190  -44.3384 C.3       5 UNK         0.1400 
     48 CB          2.9886  -19.9775  -45.6736 C.3       5 UNK        -0.1800 
     49 N           4.1537  -18.3225  -44.2912 N.am      5 UNK        -0.5000 
     50 C           4.5573  -17.6657  -43.1937 C.2       4 UNK         0.5000 
     51 O           4.0179  -17.7779  -42.0940 O.2       4 UNK        -0.5000 
     52 CA          5.7190  -16.6688  -43.3720 C.3       4 UNK         0.1400 
     53 CB          7.0715  -17.3860  -43.2495 C.3       4 UNK        -0.1800 
     54 N           5.6643  -15.9410  -44.6445 N.am      4 UNK        -0.5000 
     55 C           4.6505  -15.1501  -45.0196 C.2       3 UNK         0.5000 
     56 O           3.6524  -14.9509  -44.3222 O.2       3 UNK        -0.5000 
     57 CA          4.7385  -14.5480  -46.4332 C.3       3 UNK         0.1400 
     58 CB          4.4165  -15.6198  -47.4875 C.3       3 UNK        -0.1800 
     59 N           3.7952  -13.4462  -46.6000 N.am      3 UNK        -0.5000 
     60 C           3.9366  -12.2116  -46.1084 C.2       2 UNK         0.5000 
     61 O           4.9633  -11.8185  -45.5506 O.2       2 UNK        -0.5000 
     62 CA          2.7264  -11.2636  -46.2862 C.3       2 UNK         0.1400 
     63 CB          3.0047   -9.8407  -45.7686 C.3       2 UNK        -0.1800 
     64 N           2.2562  -11.1719  -47.6733 N.am      2 UNK        -0.5000 
     65 C           1.5676  -12.1135  -48.3341 C.2       1 UNK         0.5000 
     66 O           1.2643  -13.1961  -47.8326 O.2       1 UNK        -0.5000 
     67 C          -3.3556  -22.6851  -46.6280 C.2       11 UNK         0.5000 
     68 O          -3.4298  -23.0965  -47.7865 O.2       11 UNK        -0.5000 
     69 N          -4.0624  -23.2020  -45.6121 N.am      12 UNK        -0.5000 
     70 CA         -4.9093  -24.3970  -45.6789 C.3       12 UNK         0.1400 
     71 CB         -5.5253  -24.6502  -44.2953 C.3       12 UNK        -0.1800 
     72 C          -4.1663  -25.6552  -46.1749 C.2       12 UNK         0.5000 
     73 O          -4.7667  -26.4758  -46.8688 O.2       12 UNK        -0.5000 
     74 N          -2.8743  -25.7596  -45.8398 N.am      13 UNK        -0.5000 
     75 CA         -1.9701  -26.8046  -46.3092 C.3       13 UNK         0.1400 
     76 CB         -1.2464  -27.4244  -45.1032 C.3       13 UNK        -0.1800 
     77 C          -0.9560  -26.2317  -47.3112 C.2       13 UNK         0.5000 
     78 O          -0.7620  -26.8169  -48.3764 O.2       13 UNK        -0.5000 
     79 N          -0.3375  -25.0931  -46.9637 N.am      14 UNK        -0.5000 
     80 CA          0.7835  -24.4874  -47.6892 C.3       14 UNK         0.1400 
     81 CB          1.4055  -23.3783  -46.8252 C.3       14 UNK        -0.1800 
     82 C           0.4298  -23.9500  -49.0885 C.2       14 UNK         0.5000 
     83 O           1.3145  -23.8824  -49.9424 O.2       14 UNK        -0.5000 
     84 N          -0.8413  -23.5911  -49.3037 N.am      15 UNK        -0.5000 
     85 CA         -1.3748  -23.1363  -50.5879 C.3       15 UNK         0.1400 
     86 CB         -1.5852  -21.6126  -50.5439 C.3       15 UNK        -0.1800 
     87 C          -2.6674  -23.8877  -50.9506 C.2       15 UNK         0.5000 
     88 O          -3.4354  -23.3929  -51.7728 O.2       15 UNK        -0.5000 
     89 N          -2.9048  -25.0508  -50.3214 N.am      16 UNK        -0.5000 
     90 CA         -4.0575  -25.9415  -50.5151 C.3       16 UNK         0.1400 
     91 CB         -3.9244  -26.6823  -51.8618 C.3       16 UNK        -0.1800 
     92 C          -5.4292  -25.2438  -50.3505 C.2       16 UNK         0.5000 
     93 O          -6.3617  -25.5324  -51.1024 O.2       16 UNK        -0.5000 
     94 N          -5.5116  -24.3268  -49.3756 N.am      17 UNK        -0.5000 
     95 CA         -6.6538  -23.4632  -49.0550 C.3       17 UNK         0.1400 
     96 CB         -7.9274  -24.2728  -48.7315 C.3       17 UNK        -0.1800 
     97 C          -6.8781  -22.3288  -50.0745 C.2       17 UNK         0.5000 
     98 O          -7.9857  -21.7964  -50.1647 O.2       17 UNK        -0.5000 
     99 N          -5.7995  -21.9339  -50.7635 N.am      18 UNK        -0.5000 
    100 CA        -5.6785  -20.7741  -51.6426 C.3       18 UNK         0.1400 
    101 CB        -5.8509  -19.4636  -50.8372 C.3       18 UNK        -0.1800 
    102 C         -6.5617  -20.8812  -52.9019 C.2       18 UNK         0.5000 
    103 O         -6.5015  -21.8992  -53.5944 O.2       18 UNK        -0.5000 
    104 N         -7.3224  -19.8191  -53.2062 N.am      19 UNK        -0.5000 
    105 CA        -8.1163  -19.6230  -54.4217 C.3       19 UNK         0.1400 
    106 CB        -9.3024  -20.6132  -54.4746 C.3       19 UNK        -0.1800 
    107 C         -7.2103  -19.6345  -55.6707 C.2       19 UNK         0.5000 
    108 O         -6.2418  -18.8726  -55.7130 O.2       19 UNK        -0.5000 
    109 N         -7.5029  -20.5027  -56.6476 N.am      20 UNK        -0.5000 
    110 CA        -6.7790  -20.6422  -57.9163 C.3       20 UNK         0.1400 
    111 CB        -7.5127  -21.6729  -58.7887 C.3       20 UNK        -0.1800 
    112 C         -5.2853  -21.0132  -57.7848 C.2       20 UNK         0.5000 
    113 O         -4.5358  -20.8283  -58.7446 O.2       20 UNK        -0.5000 
    114 N         -4.8728  -21.5179  -56.6137 N.am      21 UNK        -0.5000 
    115 CA        -3.4865  -21.8559  -56.2944 C.3       21 UNK         0.1400 
    116 CB        -3.4658  -22.7141  -55.0213 C.3       21 UNK        -0.1800 
    117 C         -2.5650  -20.6311  -56.1193 C.2       21 UNK         0.5000 
    118 O         -1.3503  -20.7843  -56.2581 O.2       21 UNK        -0.5000 
    119 N         -3.1274  -19.4556  -55.8044 N.am      22 UNK        -0.5000 
    120 CA        -2.3539  -18.2437  -55.4756 C.3       22 UNK         0.1400 
    121 C         -3.0798  -16.8933  -55.7351 C.2       22 UNK         0.5000 
    122 N         -4.3738  -16.8517  -56.0236 N.am      22 UNK        -0.7600 
    123 O         -2.4405  -15.8452  -55.7027 O.2       22 UNK        -0.5000 
    124 C124       -1.7212  -18.3094  -54.0567 C.3       23 UNK        -0.0398 
    125 S125       -2.9515  -18.6250  -52.7457 S.3       23 UNK        -0.2404 
    126 C126       -2.8358  -17.1274  -51.7224 C.3       23 UNK        -0.0205 
    127 H127       -0.6536   -8.1846  -49.9687 H         1 UNK         0.0600 
    128 H128       -1.4849   -8.3840  -48.4238 H         1 UNK         0.0600 
    129 H129       -2.2891   -8.8485  -49.9268 H         1 UNK         0.0600 
    130 H130        0.8842   -9.7386  -50.3026 H         1 UNK         0.3000 
    131 H131        2.0715  -11.5557  -50.3144 H         1 UNK         0.0600 
    132 H132       -0.2149  -13.5172  -49.8542 H         1 UNK         0.0800 
    133 H133       -0.2839  -12.5033  -51.2529 H         1 UNK         0.0800 
    134 H134        2.1356  -15.0577  -49.4005 H         1 UNK         0.0800 
    135 H135        2.5859  -16.0275  -50.7754 H         1 UNK         0.0800 
    136 H136       -0.5766  -15.6315  -51.8640 H         1 UNK         0.1150 
    137 H137       -2.4190  -18.7320  -49.5699 H         1 UNK         0.1150 
    138 H138        1.4359  -17.2450  -48.4348 H         1 UNK         0.1150 
    139 H139       -0.4965  -20.1146  -48.1505 H         1 UNK         0.0800 
    140 H140        0.5592  -19.0655  -47.2535 H         1 UNK         0.0800 
    141 H141       -3.0962  -20.2107  -47.8372 H         1 UNK         0.0800 
    142 H142       -3.7919  -19.9457  -46.2616 H         1 UNK         0.0800 
    143 H143       -1.4586  -21.8085  -46.8926 H         1 UNK         0.0600 
    144 H144       -1.9059  -20.6507  -44.4457 H         1 UNK         0.3000 
    145 H145       -1.2127  -22.9521  -42.1266 H         1 UNK         0.0600 
    146 H146        1.1863  -22.3005  -41.8030 H         1 UNK         0.0600 
    147 H147        1.0175  -23.5278  -43.0479 H         1 UNK         0.0600 
    148 H148        1.2978  -21.8527  -43.5046 H         1 UNK         0.0600 
    149 H149       -0.2821  -20.2004  -42.6194 H         1 UNK         0.3000 
    150 H150       -2.2785  -18.3966  -42.2268 H         1 UNK         0.0600 
    151 H151       -4.1822  -18.8153  -40.7236 H         1 UNK         0.0600 
    152 H152       -3.1560  -17.5690  -40.0323 H         1 UNK         0.0600 
    153 H153       -3.1078  -19.2107  -39.3903 H         1 UNK         0.0600 
    154 H154       -0.3002  -17.8671  -41.4231 H         1 UNK         0.3000 
    155 H155        1.4986  -18.3017  -38.5414 H         1 UNK         0.0600 
    156 H156        2.2692  -19.8995  -41.0434 H         1 UNK         0.0600 
    157 H157        2.1753  -20.5452  -39.4095 H         1 UNK         0.0600 
    158 H158        3.3829  -19.3312  -39.8002 H         1 UNK         0.0600 
    159 H159        2.2738  -17.4612  -41.1907 H         1 UNK         0.3000 
    160 H160        0.9026  -14.1623  -40.9439 H         1 UNK         0.0600 
    161 H161        3.7771  -15.2243  -41.0308 H         1 UNK         0.0600 
    162 H162        3.1488  -14.0553  -39.8766 H         1 UNK         0.0600 
    163 H163        3.2507  -13.6353  -41.5807 H         1 UNK         0.0600 
    164 H164        2.2996  -15.4338  -43.0586 H         1 UNK         0.3000 
    165 H165       -0.5107  -16.9863  -44.6360 H         1 UNK         0.0600 
    166 H166        0.4184  -15.6731  -46.5328 H         1 UNK         0.0600 
    167 H167       -0.4871  -14.6452  -45.4365 H         1 UNK         0.0600 
    168 H168        1.2683  -14.6164  -45.4068 H         1 UNK         0.0600 
    169 H169        2.3556  -16.8458  -45.1078 H         1 UNK         0.3000 
    170 H170        3.1011  -19.9487  -43.5325 H         1 UNK         0.0600 
    171 H171        2.1222  -20.6365  -45.7415 H         1 UNK         0.0600 
    172 H172        2.9524  -19.2970  -46.5251 H         1 UNK         0.0600 
    173 H173        3.8773  -20.5999  -45.7790 H         1 UNK         0.0600 
    174 H174        4.6559  -18.1748  -45.1538 H         1 UNK         0.3000 
    175 H175        5.6488  -15.9346  -42.5669 H         1 UNK         0.0600 
    176 H176        7.2173  -18.1131  -44.0493 H         1 UNK         0.0600 
    177 H177        7.8987  -16.6768  -43.2848 H         1 UNK         0.0600 
    178 H178        7.1446  -17.9211  -42.3017 H         1 UNK         0.0600 
    179 H179        6.4476  -16.0669  -45.2694 H         1 UNK         0.3000 
    180 H180        5.7527  -14.1774  -46.5953 H         1 UNK         0.0600 
    181 H181        3.4092  -16.0189  -47.3609 H         1 UNK         0.0600 
    182 H182        5.1124  -16.4575  -47.4289 H         1 UNK         0.0600 
    183 H183        4.4908  -15.2121  -48.4959 H         1 UNK         0.0600 
    184 H184        2.8983  -13.6692  -47.0223 H         1 UNK         0.3000 
    185 H185        1.9173  -11.6780  -45.6808 H         1 UNK         0.0600 
    186 H186        3.2992   -9.8554  -44.7184 H         1 UNK         0.0600 
    187 H187        3.8063   -9.3582  -46.3292 H         1 UNK         0.0600 
    188 H188        2.1166   -9.2128  -45.8441 H         1 UNK         0.0600 
    189 H189        2.4749  -10.3130  -48.1568 H         1 UNK         0.3000 
    190 H190       -3.9264  -22.8025  -44.6949 H         1 UNK         0.3000 
    191 H191       -5.7224  -24.1987  -46.3758 H         1 UNK         0.0600 
    192 H192       -6.1279  -23.8018  -43.9702 H         1 UNK         0.0600 
    193 H193       -6.1787  -25.5236  -44.3122 H         1 UNK         0.0600 
    194 H194       -4.7587  -24.8275  -43.5398 H         1 UNK         0.0600 
    195 H195       -2.4525  -25.0163  -45.2915 H         1 UNK         0.3000 
    196 H196       -2.5243  -27.5990  -46.8136 H         1 UNK         0.0600 
    197 H197       -0.5473  -28.1987  -45.4218 H         1 UNK         0.0600 
    198 H198       -1.9558  -27.8888  -44.4181 H         1 UNK         0.0600 
    199 H199       -0.6806  -26.6795  -44.5418 H         1 UNK         0.0600 
    200 H200       -0.5773  -24.6589  -46.0752 H         1 UNK         0.3000 
    201 H201        1.5380  -25.2648  -47.8275 H         1 UNK         0.0600 
    202 H202        1.7174  -23.7614  -45.8534 H         1 UNK         0.0600 
    203 H203        0.7089  -22.5592  -46.6528 H         1 UNK         0.0600 
    204 H204        2.2895  -22.9577  -47.3063 H         1 UNK         0.0600 
    205 H205       -1.5172  -23.6742  -48.5542 H         1 UNK         0.3000 
    206 H206       -0.6706  -23.3573  -51.3922 H         1 UNK         0.0600 
    207 H207       -0.6533  -21.0931  -50.3231 H         1 UNK         0.0600 
    208 H208       -1.9380  -21.2358  -51.5043 H         1 UNK         0.0600 
    209 H209       -2.3209  -21.3316  -49.7911 H         1 UNK         0.0600 
    210 H210       -2.1993  -25.3890  -49.6813 H         1 UNK         0.3000 
    211 H211       -4.0031  -26.6874  -49.7206 H         1 UNK         0.0600 
    212 H212       -4.0085  -25.9978  -52.7069 H         1 UNK         0.0600 
    213 H213       -4.7014  -27.4394  -51.9731 H         1 UNK         0.0600 
    214 H214       -2.9641  -27.1923  -51.9376 H         1 UNK         0.0600 
    215 H215       -4.6671  -24.1227  -48.8480 H         1 UNK         0.3000 
    216 H216       -6.3711  -22.9436  -48.1398 H         1 UNK         0.0600 
    217 H217       -8.6947  -23.6323  -48.2953 H         1 UNK         0.0600 
    218 H218       -7.7197  -25.0649  -48.0120 H         1 UNK         0.0600 
    219 H219       -8.3579  -24.7298  -49.6225 H         1 UNK         0.0600 
    220 H220       -4.9726  -22.5192  -50.7267 H         1 UNK         0.3000 
    221 H221       -4.6525  -20.8034  -52.0078 H         1 UNK         0.0600 
    222 H222       -6.8514  -19.3662  -50.4149 H         1 UNK         0.0600 
    223 H223       -5.1382  -19.4196  -50.0134 H         1 UNK         0.0600 
    224 H224       -5.6691  -18.5863  -51.4579 H         1 UNK         0.0600 
    225 H225       -7.2790  -19.0226  -52.5870 H         1 UNK         0.3000 
    226 H226       -8.5312  -18.6161  -54.3600 H         1 UNK         0.0600 
    227 H227       -9.9094  -20.5371  -53.5724 H         1 UNK         0.0600 
    228 H228       -9.9590  -20.3970  -55.3182 H         1 UNK         0.0600 
    229 H229       -8.9764  -21.6501  -54.5617 H         1 UNK         0.0600 
    230 H230       -8.2948  -21.1152  -56.5167 H         1 UNK         0.3000 
    231 H231       -6.8212  -19.6757  -58.4226 H         1 UNK         0.0600 
    232 H232       -7.5294  -22.6567  -58.3181 H         1 UNK         0.0600 
    233 H233       -7.0280  -21.7818  -59.7598 H         1 UNK         0.0600 
    234 H234       -8.5435  -21.3710  -58.9755 H         1 UNK         0.0600 
    235 H235       -5.5505  -21.6381  -55.8723 H         1 UNK         0.3000 
    236 H236       -3.0859  -22.4552  -57.1147 H         1 UNK         0.0600 
    237 H237       -4.0888  -23.6025  -55.1261 H         1 UNK         0.0600 
    238 H238       -2.4546  -23.0512  -54.7900 H         1 UNK         0.0600 
    239 H239       -3.8251  -22.1530  -54.1583 H         1 UNK         0.0600 
    240 H240       -4.1329  -19.3920  -55.7114 H         1 UNK         0.3000 
    241 H241       -1.5232  -18.2104  -56.1833 H         1 UNK         0.0600 
    242 H242       -4.9760  -17.6713  -55.9874 H         1 UNK         0.3800 
    243 H243       -4.7944  -15.9539  -56.2008 H         1 UNK         0.3800 
    244 H244       -1.1574  -17.4016  -53.8362 H         1 UNK         0.0800 
    245 H245       -0.9896  -19.1171  -54.0186 H         1 UNK         0.0800 
    246 H246       -3.7362  -17.0468  -51.1126 H         1 UNK         0.0800 
    247 H247       -2.8223  -16.2441  -52.3632 H         1 UNK         0.0800 
@<TRIPOS>BOND
     1    1    2 1    
     2    1  127 1    
     3    1  128 1    
     4    1  129 1    
     5    2    3 2    
     6    2    4 am   BACKBONE|DICT|INTERRES
     7    4    5 1    
     8    4  130 1    
     9    5    6 1    
    10    5   65 1    
    11    5  131 1    
    12    6    7 1    
    13    6  132 1    
    14    6  133 1    
    15    7    8 1    
    16    8    9 1    
    17    8  134 1    
    18    8  135 1    
    19    9   10 ar   
    20    9   14 ar   
    21   10   11 ar   
    22   10  136 1    
    23   11   12 ar   
    24   11  126 1    
    25   12   13 ar   
    26   12  137 1    
    27   13   14 ar   
    28   13   15 1    
    29   14  138 1    
    30   15   16 1    
    31   15  139 1    
    32   15  140 1    
    33   16   17 1    
    34   17   18 1    
    35   17  141 1    
    36   17  142 1    
    37   18   19 1    
    38   18   67 1    
    39   18  143 1    
    40   19   20 am   BACKBONE|DICT|INTERRES
    41   19  144 1    
    42   20   21 2    
    43   20   22 1    
    44   22   23 1    
    45   22   24 1    
    46   22  145 1    
    47   23  146 1    
    48   23  147 1    
    49   23  148 1    
    50   24   25 am   BACKBONE|DICT|INTERRES
    51   24  149 1    
    52   25   26 2    
    53   25   27 1    
    54   27   28 1    
    55   27   29 1    
    56   27  150 1    
    57   28  151 1    
    58   28  152 1    
    59   28  153 1    
    60   29   30 am   BACKBONE|DICT|INTERRES
    61   29  154 1    
    62   30   31 2    
    63   30   32 1    
    64   32   33 1    
    65   32   34 1    
    66   32  155 1    
    67   33  156 1    
    68   33  157 1    
    69   33  158 1    
    70   34   35 am   BACKBONE|DICT|INTERRES
    71   34  159 1    
    72   35   36 2    
    73   35   37 1    
    74   37   38 1    
    75   37   39 1    
    76   37  160 1    
    77   38  161 1    
    78   38  162 1    
    79   38  163 1    
    80   39   40 am   BACKBONE|DICT|INTERRES
    81   39  164 1    
    82   40   41 2    
    83   40   42 1    
    84   42   43 1    
    85   42   44 1    
    86   42  165 1    
    87   43  166 1    
    88   43  167 1    
    89   43  168 1    
    90   44   45 am   BACKBONE|DICT|INTERRES
    91   44  169 1    
    92   45   46 2    
    93   45   47 1    
    94   47   48 1    
    95   47   49 1    
    96   47  170 1    
    97   48  171 1    
    98   48  172 1    
    99   48  173 1    
   100   49   50 am   BACKBONE|DICT|INTERRES
   101   49  174 1    
   102   50   51 2    
   103   50   52 1    
   104   52   53 1    
   105   52   54 1    
   106   52  175 1    
   107   53  176 1    
   108   53  177 1    
   109   53  178 1    
   110   54   55 am   BACKBONE|DICT|INTERRES
   111   54  179 1    
   112   55   56 2    
   113   55   57 1    
   114   57   58 1    
   115   57   59 1    
   116   57  180 1    
   117   58  181 1    
   118   58  182 1    
   119   58  183 1    
   120   59   60 am   BACKBONE|DICT|INTERRES
   121   59  184 1    
   122   60   61 2    
   123   60   62 1    
   124   62   63 1    
   125   62   64 1    
   126   62  185 1    
   127   63  186 1    
   128   63  187 1    
   129   63  188 1    
   130   64   65 am   BACKBONE|DICT|INTERRES
   131   64  189 1    
   132   65   66 2    
   133   67   68 2    
   134   67   69 am   BACKBONE|DICT|INTERRES
   135   69   70 1    
   136   69  190 1    
   137   70   71 1    
   138   70   72 1    
   139   70  191 1    
   140   71  192 1    
   141   71  193 1    
   142   71  194 1    
   143   72   73 2    
   144   72   74 am   BACKBONE|DICT|INTERRES
   145   74   75 1    
   146   74  195 1    
   147   75   76 1    
   148   75   77 1    
   149   75  196 1    
   150   76  197 1    
   151   76  198 1    
   152   76  199 1    
   153   77   78 2    
   154   77   79 am   BACKBONE|DICT|INTERRES
   155   79   80 1    
   156   79  200 1    
   157   80   81 1    
   158   80   82 1    
   159   80  201 1    
   160   81  202 1    
   161   81  203 1    
   162   81  204 1    
   163   82   83 2    
   164   82   84 am   BACKBONE|DICT|INTERRES
   165   84   85 1    
   166   84  205 1    
   167   85   86 1    
   168   85   87 1    
   169   85  206 1    
   170   86  207 1    
   171   86  208 1    
   172   86  209 1    
   173   87   88 2    
   174   87   89 am   BACKBONE|DICT|INTERRES
   175   89   90 1    
   176   89  210 1    
   177   90   91 1    
   178   90   92 1    
   179   90  211 1    
   180   91  212 1    
   181   91  213 1    
   182   91  214 1    
   183   92   93 2    
   184   92   94 am   BACKBONE|DICT|INTERRES
   185   94   95 1    
   186   94  215 1    
   187   95   96 1    
   188   95   97 1    
   189   95  216 1    
   190   96  217 1    
   191   96  218 1    
   192   96  219 1    
   193   97   98 2    
   194   97   99 am   BACKBONE|DICT|INTERRES
   195   99  100 1    
   196   99  220 1    
   197  100  101 1    
   198  100  102 1    
   199  100  221 1    
   200  101  222 1    
   201  101  223 1    
   202  101  224 1    
   203  102  103 2    
   204  102  104 am   BACKBONE|DICT|INTERRES
   205  104  105 1    
   206  104  225 1    
   207  105  106 1    
   208  105  107 1    
   209  105  226 1    
   210  106  227 1    
   211  106  228 1    
   212  106  229 1    
   213  107  108 2    
   214  107  109 am   BACKBONE|DICT|INTERRES
   215  109  110 1    
   216  109  230 1    
   217  110  111 1    
   218  110  112 1    
   219  110  231 1    
   220  111  232 1    
   221  111  233 1    
   222  111  234 1    
   223  112  113 2    
   224  112  114 am   BACKBONE|DICT|INTERRES
   225  114  115 1    
   226  114  235 1    
   227  115  116 1    
   228  115  117 1    
   229  115  236 1    
   230  116  237 1    
   231  116  238 1    
   232  116  239 1    
   233  117  118 2    
   234  117  119 am   BACKBONE|DICT|INTERRES
   235  119  120 1    
   236  119  240 1    
   237  120  121 1    
   238  120  124 1    
   239  120  241 1    
   240  121  122 am   BACKBONE|DICT|INTERRES
   241  121  123 2    
   242  122  242 1    
   243  122  243 1    
   244  124  125 1    
   245  124  244 1    
   246  124  245 1    
   247  125  126 1    
   248  126  246 1    
   249  126  247 1    
@<TRIPOS>SUBSTRUCTURE
     1 UNK         1 GROUP             0       ****    0 ROOT    
