@<TRIPOS>MOLECULE
3R540
247   249    1
SMALL
USER_CHARGES


@<TRIPOS>ATOM
      1 CA         -1.9821  -12.1470  -52.1479 C.3       0 UNK        -0.1800 
      2 C          -1.0965  -12.2775  -50.9165 C.2       0 UNK         0.5000 
      3 O          -0.3698  -11.3412  -50.5824 O.2       0 UNK        -0.5000 
      4 N          -1.1489  -13.4354  -50.2470 N.am      1 UNK        -0.5000 
      5 CA         -0.4239  -13.7170  -49.0044 C.3       1 UNK         0.1400 
      6 C6         -0.3748  -15.2414  -48.7134 C.3       23 UNK        -0.0398 
      7 S7          1.1981  -15.7645  -47.9469 S.3       23 UNK        -0.2404 
      8 C8          2.1706  -16.2928  -49.3968 C.3       23 UNK        -0.0205 
      9 C9          1.7094  -17.6328  -49.9562 C.ar      23 UNK        -0.0193 
     10 C10         0.7979  -17.6798  -51.0139 C.ar      23 UNK        -0.1150 
     11 C11         0.3676  -18.9026  -51.5334 C.ar      23 UNK        -0.0193 
     12 C12         0.8704  -20.0915  -50.9965 C.ar      23 UNK        -0.1150 
     13 C13         1.7982  -20.0639  -49.9481 C.ar      23 UNK        -0.0193 
     14 C14         2.2136  -18.8281  -49.4354 C.ar      23 UNK        -0.1150 
     15 C15         2.3574  -21.3760  -49.3981 C.3       23 UNK        -0.0205 
     16 S16         2.4455  -21.4437  -47.5745 S.3       23 UNK        -0.2404 
     17 C17         0.7083  -21.1464  -47.1173 C.3       23 UNK        -0.0398 
     18 CA          0.1139  -22.2483  -46.2093 C.3       11 UNK         0.1400 
     19 N           0.7742  -22.3043  -44.9073 N.am      11 UNK        -0.5000 
     20 C           0.9117  -23.3931  -44.1432 C.2       10 UNK         0.5000 
     21 O           0.5040  -24.5097  -44.4671 O.2       10 UNK        -0.5000 
     22 CA          1.6085  -23.1769  -42.7813 C.3       10 UNK         0.1400 
     23 CB          2.2158  -24.4684  -42.1956 C.3       10 UNK        -0.1800 
     24 N           2.5945  -22.0898  -42.8135 N.am      10 UNK        -0.5000 
     25 C           3.7283  -22.0299  -43.5301 C.2       9 UNK         0.5000 
     26 O           4.1564  -22.9575  -44.2177 O.2       9 UNK        -0.5000 
     27 CA          4.5135  -20.7020  -43.4961 C.3       9 UNK         0.1400 
     28 CB          4.4005  -19.9794  -44.8473 C.3       9 UNK        -0.1800 
     29 N           4.0713  -19.7879  -42.4414 N.am      9 UNK        -0.5000 
     30 C           4.3699  -19.9180  -41.1424 C.2       8 UNK         0.5000 
     31 O           5.0931  -20.8073  -40.6920 O.2       8 UNK        -0.5000 
     32 CA          3.7269  -18.9003  -40.1822 C.3       8 UNK         0.1400 
     33 CB          4.5478  -17.6026  -40.1407 C.3       8 UNK        -0.1800 
     34 N           2.3338  -18.5905  -40.5169 N.am      8 UNK        -0.5000 
     35 C           1.3250  -19.4739  -40.4753 C.2       7 UNK         0.5000 
     36 O           1.4621  -20.6544  -40.1549 O.2       7 UNK        -0.5000 
     37 CA         -0.0652  -18.9679  -40.8983 C.3       7 UNK         0.1400 
     38 CB         -0.7129  -18.1401  -39.7787 C.3       7 UNK        -0.1800 
     39 N          -0.0196  -18.1865  -42.1330 N.am      7 UNK        -0.5000 
     40 C           0.2882  -18.6944  -43.3343 C.2       6 UNK         0.5000 
     41 O           0.4913  -19.8907  -43.5370 O.2       6 UNK        -0.5000 
     42 CA          0.4134  -17.7063  -44.5047 C.3       6 UNK         0.1400 
     43 CB         -0.9660  -17.4087  -45.1088 C.3       6 UNK        -0.1800 
     44 N           1.0631  -16.4576  -44.1161 N.am      6 UNK        -0.5000 
     45 C           2.3237  -16.3599  -43.6726 C.2       5 UNK         0.5000 
     46 O           3.0881  -17.3167  -43.5548 O.2       5 UNK        -0.5000 
     47 CA          2.7875  -14.9639  -43.2310 C.3       5 UNK         0.1400 
     48 CB          3.1291  -14.0894  -44.4472 C.3       5 UNK        -0.1800 
     49 N           1.7843  -14.2976  -42.4000 N.am      5 UNK        -0.5000 
     50 C           1.4390  -14.6958  -41.1670 C.2       4 UNK         0.5000 
     51 O           1.9457  -15.6577  -40.5901 O.2       4 UNK        -0.5000 
     52 CA          0.3110  -13.9082  -40.4773 C.3       4 UNK         0.1400 
     53 CB          0.8596  -12.6280  -39.8298 C.3       4 UNK        -0.1800 
     54 N          -0.7746  -13.5627  -41.3952 N.am      4 UNK        -0.5000 
     55 C          -1.5969  -14.4569  -41.9613 C.2       3 UNK         0.5000 
     56 O          -1.5402  -15.6686  -41.7548 O.2       3 UNK        -0.5000 
     57 CA         -2.6212  -13.9052  -42.9695 C.3       3 UNK         0.1400 
     58 CB         -3.8551  -13.3505  -42.2420 C.3       3 UNK        -0.1800 
     59 N          -2.0733  -12.8761  -43.8603 N.am      3 UNK        -0.5000 
     60 C          -1.0445  -13.0730  -44.6942 C.2       2 UNK         0.5000 
     61 O          -0.3907  -14.1167  -44.7361 O.2       2 UNK        -0.5000 
     62 CA         -0.6579  -11.9104  -45.6233 C.3       2 UNK         0.1400 
     63 CB          0.4742  -11.0768  -45.0041 C.3       2 UNK        -0.1800 
     64 N          -0.2199  -12.4383  -46.9153 N.am      2 UNK        -0.5000 
     65 C          -1.0571  -12.9493  -47.8258 C.2       1 UNK         0.5000 
     66 O          -2.2863  -12.8678  -47.7443 O.2       1 UNK        -0.5000 
     67 C          -1.3941  -21.9873  -46.0637 C.2       11 UNK         0.5000 
     68 O          -2.1261  -22.3051  -46.9966 O.2       11 UNK        -0.5000 
     69 N          -1.8268  -21.3804  -44.9462 N.am      12 UNK        -0.5000 
     70 CA         -3.1547  -20.7873  -44.7265 C.3       12 UNK         0.1400 
     71 CB         -3.2791  -20.3634  -43.2549 C.3       12 UNK        -0.1800 
     72 C          -4.3676  -21.6419  -45.1459 C.2       12 UNK         0.5000 
     73 O          -5.3123  -21.1060  -45.7263 O.2       12 UNK        -0.5000 
     74 N          -4.3058  -22.9529  -44.8792 N.am      13 UNK        -0.5000 
     75 CA         -5.3465  -23.9196  -45.2388 C.3       13 UNK         0.1400 
     76 CB         -5.0687  -25.2437  -44.5110 C.3       13 UNK        -0.1800 
     77 C          -5.4753  -24.1582  -46.7574 C.2       13 UNK         0.5000 
     78 O          -6.5684  -24.4753  -47.2273 O.2       13 UNK        -0.5000 
     79 N          -4.3663  -24.0054  -47.4914 N.am      14 UNK        -0.5000 
     80 CA         -4.2917  -24.1598  -48.9421 C.3       14 UNK         0.1400 
     81 CB         -2.9462  -24.8070  -49.3071 C.3       14 UNK        -0.1800 
     82 C          -4.4506  -22.8038  -49.6461 C.2       14 UNK         0.5000 
     83 O          -5.1673  -22.7158  -50.6434 O.2       14 UNK        -0.5000 
     84 N          -3.8039  -21.7608  -49.1053 N.am      15 UNK        -0.5000 
     85 CA         -3.7939  -20.3862  -49.6150 C.3       15 UNK         0.1400 
     86 CB         -2.8256  -19.5355  -48.7798 C.3       15 UNK        -0.1800 
     87 C          -5.1864  -19.7317  -49.6761 C.2       15 UNK         0.5000 
     88 O          -5.4016  -18.8583  -50.5159 O.2       15 UNK        -0.5000 
     89 N          -6.1278  -20.2178  -48.8546 N.am      16 UNK        -0.5000 
     90 CA         -7.5572  -19.8975  -48.9149 C.3       16 UNK         0.1400 
     91 CB         -8.2685  -20.6041  -47.7512 C.3       16 UNK        -0.1800 
     92 C          -8.2256  -20.2685  -50.2591 C.2       16 UNK         0.5000 
     93 O          -9.2198  -19.6442  -50.6303 O.2       16 UNK        -0.5000 
     94 N          -7.6551  -21.2503  -50.9704 N.am      17 UNK        -0.5000 
     95 CA         -8.0307  -21.6738  -52.3197 C.3       17 UNK         0.1400 
     96 CB         -8.3882  -23.1702  -52.2775 C.3       17 UNK        -0.1800 
     97 C          -6.8926  -21.3850  -53.3236 C.2       17 UNK         0.5000 
     98 O          -6.8126  -22.0419  -54.3630 O.2       17 UNK        -0.5000 
     99 N          -6.0072  -20.4324  -52.9838 N.am      18 UNK        -0.5000 
    100 CA        -4.8192  -19.9948  -53.7302 C.3       18 UNK         0.1400 
    101 CB        -5.2281  -19.3563  -55.0732 C.3       18 UNK        -0.1800 
    102 C         -3.7432  -21.0883  -53.9099 C.2       18 UNK         0.5000 
    103 O         -2.8772  -20.9549  -54.7766 O.2       18 UNK        -0.5000 
    104 N         -3.8217  -22.1658  -53.1144 N.am      19 UNK        -0.5000 
    105 CA        -2.9552  -23.3519  -53.1044 C.3       19 UNK         0.1400 
    106 CB        -1.5648  -22.9805  -52.5502 C.3       19 UNK        -0.1800 
    107 C         -2.8684  -24.1028  -54.4528 C.2       19 UNK         0.5000 
    108 O         -1.9540  -24.9061  -54.6411 O.2       19 UNK        -0.5000 
    109 N         -3.8025  -23.8061  -55.3714 N.am      20 UNK        -0.5000 
    110 CA        -3.8194  -24.1903  -56.7871 C.3       20 UNK         0.1400 
    111 CB        -4.0912  -25.7018  -56.9348 C.3       20 UNK        -0.1800 
    112 C         -2.5617  -23.7257  -57.5620 C.2       20 UNK         0.5000 
    113 O         -2.1742  -24.3735  -58.5367 O.2       20 UNK        -0.5000 
    114 N         -1.9380  -22.6265  -57.1116 N.am      21 UNK        -0.5000 
    115 CA        -0.6536  -22.1376  -57.6160 C.3       21 UNK         0.1400 
    116 CB         0.4752  -22.6523  -56.7069 C.3       21 UNK        -0.1800 
    117 C         -0.6046  -20.6063  -57.7226 C.2       21 UNK         0.5000 
    118 O         -0.0079  -20.0916  -58.6695 O.2       21 UNK        -0.5000 
    119 N         -1.2237  -19.9023  -56.7675 N.am      22 UNK        -0.5000 
    120 CA        -1.2510  -18.4319  -56.6982 C.3       22 UNK         0.1400 
    121 C         -2.3681  -17.7739  -57.5616 C.2       22 UNK         0.5000 
    122 N         -3.2383  -18.5302  -58.2201 N.am      22 UNK        -0.7600 
    123 O         -2.4405  -16.5510  -57.6464 O.2       22 UNK        -0.5000 
    124 C124       -1.3045  -17.9303  -55.2316 C.3       23 UNK        -0.0398 
    125 S125        0.1405  -18.4612  -54.2489 S.3       23 UNK        -0.2404 
    126 C126       -0.6420  -18.9200  -52.6711 C.3       23 UNK        -0.0205 
    127 H127       -2.5586  -13.0541  -52.3315 H         1 UNK         0.0600 
    128 H128       -2.6808  -11.3200  -52.0214 H         1 UNK         0.0600 
    129 H129       -1.3724  -11.9480  -53.0293 H         1 UNK         0.0600 
    130 H130       -1.7990  -14.1467  -50.5479 H         1 UNK         0.3000 
    131 H131        0.5962  -13.3523  -49.1461 H         1 UNK         0.0600 
    132 H132       -0.5168  -15.8077  -49.6302 H         1 UNK         0.0800 
    133 H133       -1.1979  -15.5586  -48.0701 H         1 UNK         0.0800 
    134 H134        3.2191  -16.3647  -49.1040 H         1 UNK         0.0800 
    135 H135        2.1257  -15.5212  -50.1671 H         1 UNK         0.0800 
    136 H136        0.4232  -16.7622  -51.4447 H         1 UNK         0.1150 
    137 H137        0.5459  -21.0390  -51.4029 H         1 UNK         0.1150 
    138 H138        2.9311  -18.7947  -48.6276 H         1 UNK         0.1150 
    139 H139        1.7607  -22.2216  -49.7441 H         1 UNK         0.0800 
    140 H140        3.3601  -21.5213  -49.8014 H         1 UNK         0.0800 
    141 H141        0.1232  -21.0645  -48.0345 H         1 UNK         0.0800 
    142 H142        0.6481  -20.1694  -46.6353 H         1 UNK         0.0800 
    143 H143        0.2308  -23.2095  -46.7146 H         1 UNK         0.0600 
    144 H144        1.0707  -21.4150  -44.5165 H         1 UNK         0.3000 
    145 H145        0.8264  -22.8454  -42.0968 H         1 UNK         0.0600 
    146 H146        2.7011  -24.2759  -41.2387 H         1 UNK         0.0600 
    147 H147        1.4434  -25.2183  -42.0217 H         1 UNK         0.0600 
    148 H148        2.9540  -24.9113  -42.8644 H         1 UNK         0.0600 
    149 H149        2.3395  -21.2672  -42.2828 H         1 UNK         0.3000 
    150 H150        5.5642  -20.9464  -43.3278 H         1 UNK         0.0600 
    151 H151        4.7675  -20.6070  -45.6601 H         1 UNK         0.0600 
    152 H152        4.9890  -19.0618  -44.8557 H         1 UNK         0.0600 
    153 H153        3.3666  -19.7158  -45.0749 H         1 UNK         0.0600 
    154 H154        3.5252  -18.9834  -42.7411 H         1 UNK         0.3000 
    155 H155        3.7378  -19.3389  -39.1823 H         1 UNK         0.0600 
    156 H156        4.5352  -17.0880  -41.1022 H         1 UNK         0.0600 
    157 H157        5.5894  -17.8053  -39.8888 H         1 UNK         0.0600 
    158 H158        4.1597  -16.9154  -39.3888 H         1 UNK         0.0600 
    159 H159        2.1338  -17.6253  -40.7624 H         1 UNK         0.3000 
    160 H160       -0.6957  -19.8417  -41.0766 H         1 UNK         0.0600 
    161 H161       -1.7361  -17.8659  -40.0358 H         1 UNK         0.0600 
    162 H162       -0.1598  -17.2208  -39.5840 H         1 UNK         0.0600 
    163 H163       -0.7525  -18.7050  -38.8467 H         1 UNK         0.0600 
    164 H164       -0.2428  -17.1994  -42.0567 H         1 UNK         0.3000 
    165 H165        1.0327  -18.1711  -45.2743 H         1 UNK         0.0600 
    166 H166       -0.8912  -16.7022  -45.9340 H         1 UNK         0.0600 
    167 H167       -1.4216  -18.3171  -45.5017 H         1 UNK         0.0600 
    168 H168       -1.6474  -16.9845  -44.3704 H         1 UNK         0.0600 
    169 H169        0.5132  -15.6067  -44.2204 H         1 UNK         0.3000 
    170 H170        3.6944  -15.0843  -42.6347 H         1 UNK         0.0600 
    171 H171        3.9221  -14.5462  -45.0406 H         1 UNK         0.0600 
    172 H172        2.2707  -13.9543  -45.1054 H         1 UNK         0.0600 
    173 H173        3.4793  -13.1038  -44.1406 H         1 UNK         0.0600 
    174 H174        1.2730  -13.5391  -42.8247 H         1 UNK         0.3000 
    175 H175       -0.1005  -14.5402  -39.6873 H         1 UNK         0.0600 
    176 H176        0.0829  -12.1047  -39.2719 H         1 UNK         0.0600 
    177 H177        1.6622  -12.8596  -39.1281 H         1 UNK         0.0600 
    178 H178        1.2620  -11.9387  -40.5732 H         1 UNK         0.0600 
    179 H179       -0.8878  -12.5872  -41.6282 H         1 UNK         0.3000 
    180 H180       -2.9438  -14.7409  -43.5942 H         1 UNK         0.0600 
    181 H181       -3.6072  -12.4822  -41.6303 H         1 UNK         0.0600 
    182 H182       -4.2907  -14.1030  -41.5831 H         1 UNK         0.0600 
    183 H183       -4.6296  -13.0534  -42.9493 H         1 UNK         0.0600 
    184 H184       -2.5555  -11.9889  -43.8741 H         1 UNK         0.3000 
    185 H185       -1.5260  -11.2652  -45.7746 H         1 UNK         0.0600 
    186 H186        1.3714  -11.6718  -44.8338 H         1 UNK         0.0600 
    187 H187        0.7453  -10.2416  -45.6501 H         1 UNK         0.0600 
    188 H188        0.1711  -10.6581  -44.0437 H         1 UNK         0.0600 
    189 H189        0.7724  -12.5882  -47.0242 H         1 UNK         0.3000 
    190 H190       -1.1274  -21.1564  -44.2492 H         1 UNK         0.3000 
    191 H191       -3.1961  -19.8822  -45.3335 H         1 UNK         0.0600 
    192 H192       -2.5435  -19.6020  -42.9983 H         1 UNK         0.0600 
    193 H193       -3.1379  -21.2083  -42.5800 H         1 UNK         0.0600 
    194 H194       -4.2625  -19.9385  -43.0491 H         1 UNK         0.0600 
    195 H195       -3.4835  -23.3134  -44.4179 H         1 UNK         0.3000 
    196 H196       -6.3046  -23.5318  -44.8861 H         1 UNK         0.0600 
    197 H197       -5.8398  -25.9821  -44.7350 H         1 UNK         0.0600 
    198 H198       -5.0579  -25.1053  -43.4297 H         1 UNK         0.0600 
    199 H199       -4.1093  -25.6710  -44.8055 H         1 UNK         0.0600 
    200 H200       -3.5267  -23.6625  -47.0367 H         1 UNK         0.3000 
    201 H201       -5.0900  -24.8189  -49.2899 H         1 UNK         0.0600 
    202 H202       -2.8170  -25.7588  -48.7917 H         1 UNK         0.0600 
    203 H203       -2.1011  -24.1693  -49.0443 H         1 UNK         0.0600 
    204 H204       -2.8841  -25.0108  -50.3753 H         1 UNK         0.0600 
    205 H205       -3.2199  -21.9365  -48.2889 H         1 UNK         0.3000 
    206 H206       -3.4119  -20.4230  -50.6371 H         1 UNK         0.0600 
    207 H207       -1.8104  -19.9266  -48.8368 H         1 UNK         0.0600 
    208 H208       -2.7931  -18.5068  -49.1414 H         1 UNK         0.0600 
    209 H209       -3.1192  -19.5074  -47.7306 H         1 UNK         0.0600 
    210 H210       -5.8504  -20.9076  -48.1691 H         1 UNK         0.3000 
    211 H211       -7.6628  -18.8190  -48.7821 H         1 UNK         0.0600 
    212 H212       -8.1593  -21.6879  -47.8128 H         1 UNK         0.0600 
    213 H213       -9.3359  -20.3795  -47.7487 H         1 UNK         0.0600 
    214 H214       -7.8672  -20.2820  -46.7900 H         1 UNK         0.0600 
    215 H215       -6.8277  -21.7073  -50.5978 H         1 UNK         0.3000 
    216 H216       -8.9057  -21.1213  -52.6666 H         1 UNK         0.0600 
    217 H217       -8.7353  -23.5216  -53.2498 H         1 UNK         0.0600 
    218 H218       -9.1867  -23.3634  -51.5610 H         1 UNK         0.0600 
    219 H219       -7.5288  -23.7789  -51.9931 H         1 UNK         0.0600 
    220 H220       -6.1508  -19.9488  -52.1040 H         1 UNK         0.3000 
    221 H221       -4.3525  -19.2166  -53.1252 H         1 UNK         0.0600 
    222 H222       -5.6221  -20.0944  -55.7722 H         1 UNK         0.0600 
    223 H223       -5.9895  -18.5898  -54.9300 H         1 UNK         0.0600 
    224 H224       -4.3788  -18.8762  -55.5566 H         1 UNK         0.0600 
    225 H225       -4.5691  -22.1940  -52.4275 H         1 UNK         0.3000 
    226 H226       -3.4185  -24.0533  -52.4116 H         1 UNK         0.0600 
    227 H227       -1.6470  -22.4595  -51.5960 H         1 UNK         0.0600 
    228 H228       -1.0158  -22.3386  -53.2399 H         1 UNK         0.0600 
    229 H229       -0.9584  -23.8705  -52.3796 H         1 UNK         0.0600 
    230 H230       -4.5192  -23.1475  -55.0956 H         1 UNK         0.3000 
    231 H231       -4.6604  -23.6589  -57.2345 H         1 UNK         0.0600 
    232 H232       -4.9835  -25.9973  -56.3829 H         1 UNK         0.0600 
    233 H233       -3.2568  -26.3010  -56.5695 H         1 UNK         0.0600 
    234 H234       -4.2543  -25.9709  -57.9790 H         1 UNK         0.0600 
    235 H235       -2.3274  -22.1423  -56.3098 H         1 UNK         0.3000 
    236 H236       -0.4809  -22.5212  -58.6238 H         1 UNK         0.0600 
    237 H237        1.4488  -22.3025  -57.0526 H         1 UNK         0.0600 
    238 H238        0.3474  -22.3114  -55.6784 H         1 UNK         0.0600 
    239 H239        0.5052  -23.7420  -56.6953 H         1 UNK         0.0600 
    240 H240       -1.7112  -20.3779  -56.0123 H         1 UNK         0.3000 
    241 H241       -0.3152  -18.0599  -57.1198 H         1 UNK         0.0600 
    242 H242       -3.9517  -18.0933  -58.7821 H         1 UNK         0.3800 
    243 H243       -3.1818  -19.5342  -58.1694 H         1 UNK         0.3800 
    244 H244       -1.3319  -16.8398  -55.1979 H         1 UNK         0.0800 
    245 H245       -2.2210  -18.2713  -54.7506 H         1 UNK         0.0800 
    246 H246       -1.1020  -19.9037  -52.7685 H         1 UNK         0.0800 
    247 H247       -1.4471  -18.2210  -52.4391 H         1 UNK         0.0800 
@<TRIPOS>BOND
     1    1    2 1    
     2    1  127 1    
     3    1  128 1    
     4    1  129 1    
     5    2    3 2    
     6    2    4 am   BACKBONE|DICT|INTERRES
     7    4    5 1    
     8    4  130 1    
     9    5    6 1    
    10    5   65 1    
    11    5  131 1    
    12    6    7 1    
    13    6  132 1    
    14    6  133 1    
    15    7    8 1    
    16    8    9 1    
    17    8  134 1    
    18    8  135 1    
    19    9   10 ar   
    20    9   14 ar   
    21   10   11 ar   
    22   10  136 1    
    23   11   12 ar   
    24   11  126 1    
    25   12   13 ar   
    26   12  137 1    
    27   13   14 ar   
    28   13   15 1    
    29   14  138 1    
    30   15   16 1    
    31   15  139 1    
    32   15  140 1    
    33   16   17 1    
    34   17   18 1    
    35   17  141 1    
    36   17  142 1    
    37   18   19 1    
    38   18   67 1    
    39   18  143 1    
    40   19   20 am   BACKBONE|DICT|INTERRES
    41   19  144 1    
    42   20   21 2    
    43   20   22 1    
    44   22   23 1    
    45   22   24 1    
    46   22  145 1    
    47   23  146 1    
    48   23  147 1    
    49   23  148 1    
    50   24   25 am   BACKBONE|DICT|INTERRES
    51   24  149 1    
    52   25   26 2    
    53   25   27 1    
    54   27   28 1    
    55   27   29 1    
    56   27  150 1    
    57   28  151 1    
    58   28  152 1    
    59   28  153 1    
    60   29   30 am   BACKBONE|DICT|INTERRES
    61   29  154 1    
    62   30   31 2    
    63   30   32 1    
    64   32   33 1    
    65   32   34 1    
    66   32  155 1    
    67   33  156 1    
    68   33  157 1    
    69   33  158 1    
    70   34   35 am   BACKBONE|DICT|INTERRES
    71   34  159 1    
    72   35   36 2    
    73   35   37 1    
    74   37   38 1    
    75   37   39 1    
    76   37  160 1    
    77   38  161 1    
    78   38  162 1    
    79   38  163 1    
    80   39   40 am   BACKBONE|DICT|INTERRES
    81   39  164 1    
    82   40   41 2    
    83   40   42 1    
    84   42   43 1    
    85   42   44 1    
    86   42  165 1    
    87   43  166 1    
    88   43  167 1    
    89   43  168 1    
    90   44   45 am   BACKBONE|DICT|INTERRES
    91   44  169 1    
    92   45   46 2    
    93   45   47 1    
    94   47   48 1    
    95   47   49 1    
    96   47  170 1    
    97   48  171 1    
    98   48  172 1    
    99   48  173 1    
   100   49   50 am   BACKBONE|DICT|INTERRES
   101   49  174 1    
   102   50   51 2    
   103   50   52 1    
   104   52   53 1    
   105   52   54 1    
   106   52  175 1    
   107   53  176 1    
   108   53  177 1    
   109   53  178 1    
   110   54   55 am   BACKBONE|DICT|INTERRES
   111   54  179 1    
   112   55   56 2    
   113   55   57 1    
   114   57   58 1    
   115   57   59 1    
   116   57  180 1    
   117   58  181 1    
   118   58  182 1    
   119   58  183 1    
   120   59   60 am   BACKBONE|DICT|INTERRES
   121   59  184 1    
   122   60   61 2    
   123   60   62 1    
   124   62   63 1    
   125   62   64 1    
   126   62  185 1    
   127   63  186 1    
   128   63  187 1    
   129   63  188 1    
   130   64   65 am   BACKBONE|DICT|INTERRES
   131   64  189 1    
   132   65   66 2    
   133   67   68 2    
   134   67   69 am   BACKBONE|DICT|INTERRES
   135   69   70 1    
   136   69  190 1    
   137   70   71 1    
   138   70   72 1    
   139   70  191 1    
   140   71  192 1    
   141   71  193 1    
   142   71  194 1    
   143   72   73 2    
   144   72   74 am   BACKBONE|DICT|INTERRES
   145   74   75 1    
   146   74  195 1    
   147   75   76 1    
   148   75   77 1    
   149   75  196 1    
   150   76  197 1    
   151   76  198 1    
   152   76  199 1    
   153   77   78 2    
   154   77   79 am   BACKBONE|DICT|INTERRES
   155   79   80 1    
   156   79  200 1    
   157   80   81 1    
   158   80   82 1    
   159   80  201 1    
   160   81  202 1    
   161   81  203 1    
   162   81  204 1    
   163   82   83 2    
   164   82   84 am   BACKBONE|DICT|INTERRES
   165   84   85 1    
   166   84  205 1    
   167   85   86 1    
   168   85   87 1    
   169   85  206 1    
   170   86  207 1    
   171   86  208 1    
   172   86  209 1    
   173   87   88 2    
   174   87   89 am   BACKBONE|DICT|INTERRES
   175   89   90 1    
   176   89  210 1    
   177   90   91 1    
   178   90   92 1    
   179   90  211 1    
   180   91  212 1    
   181   91  213 1    
   182   91  214 1    
   183   92   93 2    
   184   92   94 am   BACKBONE|DICT|INTERRES
   185   94   95 1    
   186   94  215 1    
   187   95   96 1    
   188   95   97 1    
   189   95  216 1    
   190   96  217 1    
   191   96  218 1    
   192   96  219 1    
   193   97   98 2    
   194   97   99 am   BACKBONE|DICT|INTERRES
   195   99  100 1    
   196   99  220 1    
   197  100  101 1    
   198  100  102 1    
   199  100  221 1    
   200  101  222 1    
   201  101  223 1    
   202  101  224 1    
   203  102  103 2    
   204  102  104 am   BACKBONE|DICT|INTERRES
   205  104  105 1    
   206  104  225 1    
   207  105  106 1    
   208  105  107 1    
   209  105  226 1    
   210  106  227 1    
   211  106  228 1    
   212  106  229 1    
   213  107  108 2    
   214  107  109 am   BACKBONE|DICT|INTERRES
   215  109  110 1    
   216  109  230 1    
   217  110  111 1    
   218  110  112 1    
   219  110  231 1    
   220  111  232 1    
   221  111  233 1    
   222  111  234 1    
   223  112  113 2    
   224  112  114 am   BACKBONE|DICT|INTERRES
   225  114  115 1    
   226  114  235 1    
   227  115  116 1    
   228  115  117 1    
   229  115  236 1    
   230  116  237 1    
   231  116  238 1    
   232  116  239 1    
   233  117  118 2    
   234  117  119 am   BACKBONE|DICT|INTERRES
   235  119  120 1    
   236  119  240 1    
   237  120  121 1    
   238  120  124 1    
   239  120  241 1    
   240  121  122 am   BACKBONE|DICT|INTERRES
   241  121  123 2    
   242  122  242 1    
   243  122  243 1    
   244  124  125 1    
   245  124  244 1    
   246  124  245 1    
   247  125  126 1    
   248  126  246 1    
   249  126  247 1    
@<TRIPOS>SUBSTRUCTURE
     1 UNK         1 GROUP             0       ****    0 ROOT    
