@<TRIPOS>MOLECULE
3R540
247   249    1
SMALL
USER_CHARGES


@<TRIPOS>ATOM
      1 CA         -2.8240  -17.1833  -43.1856 C.3       0 UNK        -0.1800 
      2 C          -3.7762  -16.0132  -42.9979 C.2       0 UNK         0.5000 
      3 O          -3.7733  -15.3818  -41.9415 O.2       0 UNK        -0.5000 
      4 N          -4.5729  -15.7053  -44.0294 N.am      1 UNK        -0.5000 
      5 CA         -5.4855  -14.5525  -44.0730 C.3       1 UNK         0.1400 
      6 C6         -6.6140  -14.7539  -45.1128 C.3       23 UNK        -0.0398 
      7 S7         -7.8023  -16.0238  -44.5648 S.3       23 UNK        -0.2404 
      8 C8         -7.9964  -17.0445  -46.0582 C.3       23 UNK        -0.0205 
      9 C9         -6.8756  -18.0597  -46.2343 C.ar      23 UNK        -0.0193 
     10 C10        -6.0705  -18.0347  -47.3772 C.ar      23 UNK        -0.1150 
     11 C11        -5.1085  -19.0304  -47.5970 C.ar      23 UNK        -0.0193 
     12 C12        -4.9471  -20.0369  -46.6409 C.ar      23 UNK        -0.1150 
     13 C13        -5.7241  -20.0581  -45.4799 C.ar      23 UNK        -0.0193 
     14 C14        -6.6905  -19.0692  -45.2856 C.ar      23 UNK        -0.1150 
     15 C15        -5.5513  -21.1729  -44.4585 C.3       23 UNK        -0.0205 
     16 S16        -4.3158  -20.7781  -43.1734 S.3       23 UNK        -0.2404 
     17 C17        -2.7597  -20.5816  -44.1126 C.3       23 UNK        -0.0398 
     18 CA         -2.2629  -21.8735  -44.8004 C.3       11 UNK         0.1400 
     19 N          -1.3762  -21.5841  -45.9312 N.am      11 UNK        -0.5000 
     20 C          -0.9904  -22.4790  -46.8519 C.2       10 UNK         0.5000 
     21 O          -1.3174  -23.6646  -46.8275 O.2       10 UNK        -0.5000 
     22 CA         -0.0577  -21.9786  -47.9639 C.3       10 UNK         0.1400 
     23 CB         -0.8135  -21.0962  -48.9693 C.3       10 UNK        -0.1800 
     24 N           1.0757  -21.2493  -47.4035 N.am      10 UNK        -0.5000 
     25 C           2.0543  -21.8226  -46.6880 C.2       9 UNK         0.5000 
     26 O           2.1529  -23.0367  -46.5093 O.2       9 UNK        -0.5000 
     27 CA          3.0749  -20.8785  -46.0317 C.3       9 UNK         0.1400 
     28 CB          4.2856  -20.6672  -46.9527 C.3       9 UNK        -0.1800 
     29 N           2.4898  -19.5853  -45.6663 N.am      9 UNK        -0.5000 
     30 C           1.6187  -19.4257  -44.6592 C.2       8 UNK         0.5000 
     31 O           1.1943  -20.3559  -43.9735 O.2       8 UNK        -0.5000 
     32 CA          1.1049  -18.0023  -44.3867 C.3       8 UNK         0.1400 
     33 CB          2.1688  -17.1567  -43.6723 C.3       8 UNK        -0.1800 
     34 N           0.6424  -17.2967  -45.5799 N.am      8 UNK        -0.5000 
     35 C          -0.3771  -17.6914  -46.3545 C.2       7 UNK         0.5000 
     36 O          -0.9605  -18.7681  -46.2325 O.2       7 UNK        -0.5000 
     37 CA         -0.8198  -16.7102  -47.4461 C.3       7 UNK         0.1400 
     38 CB         -1.5066  -15.4861  -46.8227 C.3       7 UNK        -0.1800 
     39 N           0.3246  -16.2887  -48.2468 N.am      7 UNK        -0.5000 
     40 C           0.7505  -16.9354  -49.3408 C.2       6 UNK         0.5000 
     41 O           0.1519  -17.8808  -49.8527 O.2       6 UNK        -0.5000 
     42 CA          2.0779  -16.4624  -49.9657 C.3       6 UNK         0.1400 
     43 CB          1.8114  -15.4242  -51.0657 C.3       6 UNK        -0.1800 
     44 N           3.0181  -15.8925  -48.9992 N.am      6 UNK        -0.5000 
     45 C           3.5491  -16.5424  -47.9536 C.2       5 UNK         0.5000 
     46 O           3.3231  -17.7212  -47.6887 O.2       5 UNK        -0.5000 
     47 CA          4.4326  -15.7125  -47.0048 C.3       5 UNK         0.1400 
     48 CB          5.8973  -15.7493  -47.4643 C.3       5 UNK        -0.1800 
     49 N           3.9986  -14.3184  -46.8695 N.am      5 UNK        -0.5000 
     50 C           2.7915  -13.9258  -46.4404 C.2       4 UNK         0.5000 
     51 O           1.8787  -14.7036  -46.1474 O.2       4 UNK        -0.5000 
     52 CA          2.5471  -12.4075  -46.4067 C.3       4 UNK         0.1400 
     53 CB          1.8878  -11.9549  -47.7191 C.3       4 UNK        -0.1800 
     54 N           1.6915  -12.0087  -45.2924 N.am      4 UNK        -0.5000 
     55 C           1.9926  -12.1317  -43.9921 C.2       3 UNK         0.5000 
     56 O           3.0770  -12.5446  -43.5781 O.2       3 UNK        -0.5000 
     57 CA          0.9123  -11.6972  -42.9788 C.3       3 UNK         0.1400 
     58 CB          1.3194  -10.3870  -42.2857 C.3       3 UNK        -0.1800 
     59 N          -0.4129  -11.5175  -43.5810 N.am      3 UNK        -0.5000 
     60 C          -1.2211  -12.5210  -43.9416 C.2       2 UNK         0.5000 
     61 O          -0.9514  -13.7137  -43.7765 O.2       2 UNK        -0.5000 
     62 CA         -2.5358  -12.1189  -44.6246 C.3       2 UNK         0.1400 
     63 CB         -2.3014  -11.7253  -46.0931 C.3       2 UNK        -0.1800 
     64 N          -3.4419  -13.2572  -44.5654 N.am      2 UNK        -0.5000 
     65 C          -4.7506  -13.2087  -44.2966 C.2       1 UNK         0.5000 
     66 O          -5.3813  -12.1544  -44.2021 O.2       1 UNK        -0.5000 
     67 C          -1.6573  -22.8771  -43.7996 C.2       11 UNK         0.5000 
     68 O          -2.3790  -23.7487  -43.3141 O.2       11 UNK        -0.5000 
     69 N          -0.3362  -22.8081  -43.5785 N.am      12 UNK        -0.5000 
     70 CA          0.4301  -23.7798  -42.7890 C.3       12 UNK         0.1400 
     71 CB          1.8823  -23.2953  -42.6638 C.3       12 UNK        -0.1800 
     72 C           0.3907  -25.2155  -43.3570 C.2       12 UNK         0.5000 
     73 O           0.5711  -26.1706  -42.6011 O.2       12 UNK        -0.5000 
     74 N           0.1288  -25.3385  -44.6639 N.am      13 UNK        -0.5000 
     75 CA         -0.0534  -26.5917  -45.3916 C.3       13 UNK         0.1400 
     76 CB          0.8002  -26.5240  -46.6677 C.3       13 UNK        -0.1800 
     77 C          -1.5419  -26.8743  -45.7002 C.2       13 UNK         0.5000 
     78 O          -1.8286  -27.7284  -46.5388 O.2       13 UNK        -0.5000 
     79 N          -2.4611  -26.1716  -45.0182 N.am      14 UNK        -0.5000 
     80 CA         -3.9222  -26.2703  -45.1214 C.3       14 UNK         0.1400 
     81 CB         -4.4208  -27.6742  -44.7163 C.3       14 UNK        -0.1800 
     82 C          -4.4728  -25.7897  -46.4813 C.2       14 UNK         0.5000 
     83 O          -5.3488  -26.4343  -47.0603 O.2       14 UNK        -0.5000 
     84 N          -3.9523  -24.6445  -46.9443 N.am      15 UNK        -0.5000 
     85 CA         -4.2775  -23.9415  -48.1909 C.3       15 UNK         0.1400 
     86 CB         -5.7586  -23.5108  -48.2344 C.3       15 UNK        -0.1800 
     87 C          -3.8157  -24.7252  -49.4349 C.2       15 UNK         0.5000 
     88 O          -4.5658  -24.8658  -50.4029 O.2       15 UNK        -0.5000 
     89 N          -2.5766  -25.2290  -49.3735 N.am      16 UNK        -0.5000 
     90 CA         -1.9159  -25.9550  -50.4579 C.3       16 UNK         0.1400 
     91 CB         -0.7466  -26.7609  -49.8720 C.3       16 UNK        -0.1800 
     92 C          -1.4118  -25.0216  -51.5763 C.2       16 UNK         0.5000 
     93 O          -1.4340  -23.7960  -51.4336 O.2       16 UNK        -0.5000 
     94 N          -0.9372  -25.6418  -52.6655 N.am      17 UNK        -0.5000 
     95 CA         -0.3054  -25.0703  -53.8627 C.3       17 UNK         0.1400 
     96 CB          0.9448  -24.2413  -53.5085 C.3       17 UNK        -0.1800 
     97 C          -1.2548  -24.2748  -54.7755 C.2       17 UNK         0.5000 
     98 O          -1.2093  -24.4637  -55.9912 O.2       17 UNK        -0.5000 
     99 N          -2.0777  -23.3962  -54.1878 N.am      18 UNK        -0.5000 
    100 CA        -3.0942  -22.5167  -54.7864 C.3       18 UNK         0.1400 
    101 CB        -4.1939  -23.3365  -55.4860 C.3       18 UNK        -0.1800 
    102 C         -2.5514  -21.4146  -55.7218 C.2       18 UNK         0.5000 
    103 O         -3.1033  -20.3145  -55.7324 O.2       18 UNK        -0.5000 
    104 N         -1.4695  -21.6977  -56.4586 N.am      19 UNK        -0.5000 
    105 CA        -0.7948  -20.8097  -57.4121 C.3       19 UNK         0.1400 
    106 CB         0.3182  -21.6007  -58.1160 C.3       19 UNK        -0.1800 
    107 C         -0.2263  -19.5166  -56.7925 C.2       19 UNK         0.5000 
    108 O         -0.0310  -18.5355  -57.5104 O.2       19 UNK        -0.5000 
    109 N          0.0004  -19.5266  -55.4715 N.am      20 UNK        -0.5000 
    110 CA         0.3716  -18.3604  -54.6674 C.3       20 UNK         0.1400 
    111 CB         0.8458  -18.8517  -53.2900 C.3       20 UNK        -0.1800 
    112 C         -0.7734  -17.3358  -54.5078 C.2       20 UNK         0.5000 
    113 O         -0.5133  -16.2026  -54.0990 O.2       20 UNK        -0.5000 
    114 N         -2.0184  -17.7568  -54.7932 N.am      21 UNK        -0.5000 
    115 CA        -3.2684  -16.9840  -54.7632 C.3       21 UNK         0.1400 
    116 CB        -3.2517  -15.9037  -55.8638 C.3       21 UNK        -0.1800 
    117 C         -3.6267  -16.4004  -53.3791 C.2       21 UNK         0.5000 
    118 O         -4.4686  -15.5046  -53.2937 O.2       21 UNK        -0.5000 
    119 N         -2.9719  -16.9095  -52.3274 N.am      22 UNK        -0.5000 
    120 CA        -3.0030  -16.3993  -50.9487 C.3       22 UNK         0.1400 
    121 C         -2.4432  -14.9488  -50.8121 C.2       22 UNK         0.5000 
    122 N         -1.5426  -14.5121  -51.6870 N.am      22 UNK        -0.7600 
    123 O         -2.8197  -14.2090  -49.9087 O.2       22 UNK        -0.5000 
    124 C124       -4.3724  -16.6064  -50.2415 C.3       23 UNK        -0.0398 
    125 S125       -4.9620  -18.3350  -50.3432 S.3       23 UNK        -0.2404 
    126 C126       -4.2248  -19.0678  -48.8436 C.3       23 UNK        -0.0205 
    127 H127       -3.0750  -17.9866  -42.4936 H         1 UNK         0.0600 
    128 H128       -1.8002  -16.8656  -42.9884 H         1 UNK         0.0600 
    129 H129       -2.8653  -17.5731  -44.2022 H         1 UNK         0.0600 
    130 H130       -4.5665  -16.2876  -44.8543 H         1 UNK         0.3000 
    131 H131       -5.9560  -14.4622  -43.0912 H         1 UNK         0.0600 
    132 H132       -7.1845  -13.8349  -45.2599 H         1 UNK         0.0800 
    133 H133       -6.1977  -15.0131  -46.0877 H         1 UNK         0.0800 
    134 H134       -8.9401  -17.5864  -45.9838 H         1 UNK         0.0800 
    135 H135       -8.0889  -16.3989  -46.9329 H         1 UNK         0.0800 
    136 H136       -6.2231  -17.2545  -48.1076 H         1 UNK         0.1150 
    137 H137       -4.2109  -20.8108  -46.8029 H         1 UNK         0.1150 
    138 H138       -7.3134  -19.0932  -44.4023 H         1 UNK         0.1150 
    139 H139       -6.5054  -21.3592  -43.9632 H         1 UNK         0.0800 
    140 H140       -5.3008  -22.1094  -44.9564 H         1 UNK         0.0800 
    141 H141       -1.9922  -20.1791  -43.4489 H         1 UNK         0.0800 
    142 H142       -2.9295  -19.8049  -44.8556 H         1 UNK         0.0800 
    143 H143       -3.1243  -22.3738  -45.2404 H         1 UNK         0.0600 
    144 H144       -1.0737  -20.6167  -46.0277 H         1 UNK         0.3000 
    145 H145        0.3227  -22.8505  -48.5009 H         1 UNK         0.0600 
    146 H146       -1.6559  -21.6354  -49.4048 H         1 UNK         0.0600 
    147 H147       -1.2049  -20.1899  -48.5075 H         1 UNK         0.0600 
    148 H148       -0.1647  -20.7948  -49.7920 H         1 UNK         0.0600 
    149 H149        1.0593  -20.2426  -47.4790 H         1 UNK         0.3000 
    150 H150        3.4302  -21.3579  -45.1169 H         1 UNK         0.0600 
    151 H151        4.8005  -21.6107  -47.1380 H         1 UNK         0.0600 
    152 H152        5.0083  -19.9829  -46.5078 H         1 UNK         0.0600 
    153 H153        3.9904  -20.2629  -47.9214 H         1 UNK         0.0600 
    154 H154        2.7541  -18.7895  -46.2420 H         1 UNK         0.3000 
    155 H155        0.2484  -18.0931  -43.7159 H         1 UNK         0.0600 
    156 H156        2.4916  -17.6349  -42.7467 H         1 UNK         0.0600 
    157 H157        1.7799  -16.1715  -43.4125 H         1 UNK         0.0600 
    158 H158        3.0523  -17.0129  -44.2932 H         1 UNK         0.0600 
    159 H159        1.0660  -16.3898  -45.7581 H         1 UNK         0.3000 
    160 H160       -1.5498  -17.2135  -48.0795 H         1 UNK         0.0600 
    161 H161       -0.8313  -14.9272  -46.1753 H         1 UNK         0.0600 
    162 H162       -2.3677  -15.7840  -46.2240 H         1 UNK         0.0600 
    163 H163       -1.8660  -14.8028  -47.5891 H         1 UNK         0.0600 
    164 H164        0.9034  -15.5570  -47.8542 H         1 UNK         0.3000 
    165 H165        2.5536  -17.3339  -50.4201 H         1 UNK         0.0600 
    166 H166        2.7289  -15.1605  -51.5919 H         1 UNK         0.0600 
    167 H167        1.1122  -15.8082  -51.8087 H         1 UNK         0.0600 
    168 H168        1.3813  -14.5087  -50.6577 H         1 UNK         0.0600 
    169 H169        3.2610  -14.9215  -49.1259 H         1 UNK         0.3000 
    170 H170        4.3768  -16.1726  -46.0174 H         1 UNK         0.0600 
    171 H171        6.2524  -16.7770  -47.5536 H         1 UNK         0.0600 
    172 H172        6.0277  -15.2712  -48.4359 H         1 UNK         0.0600 
    173 H173        6.5479  -15.2439  -46.7504 H         1 UNK         0.0600 
    174 H174        4.6840  -13.6149  -47.1047 H         1 UNK         0.3000 
    175 H175        3.5050  -11.8951  -46.2964 H         1 UNK         0.0600 
    176 H176        0.9167  -12.4304  -47.8666 H         1 UNK         0.0600 
    177 H177        1.7381  -10.8752  -47.7343 H         1 UNK         0.0600 
    178 H178        2.5099  -12.2066  -48.5790 H         1 UNK         0.0600 
    179 H179        0.7691  -11.6805  -45.5307 H         1 UNK         0.3000 
    180 H180        0.8470  -12.4786  -42.2186 H         1 UNK         0.0600 
    181 H181        1.4002   -9.5637  -42.9966 H         1 UNK         0.0600 
    182 H182        2.2863  -10.4893  -41.7911 H         1 UNK         0.0600 
    183 H183        0.5952  -10.1028  -41.5220 H         1 UNK         0.0600 
    184 H184       -0.7048  -10.5645  -43.7456 H         1 UNK         0.3000 
    185 H185       -2.9580  -11.2717  -44.0798 H         1 UNK         0.0600 
    186 H186       -1.6624  -10.8449  -46.1679 H         1 UNK         0.0600 
    187 H187       -1.8229  -12.5270  -46.6560 H         1 UNK         0.0600 
    188 H188       -3.2414  -11.4851  -46.5903 H         1 UNK         0.0600 
    189 H189       -2.9740  -14.1535  -44.5341 H         1 UNK         0.3000 
    190 H190        0.1894  -22.0297  -43.9675 H         1 UNK         0.3000 
    191 H191       -0.0072  -23.8133  -41.7891 H         1 UNK         0.0600 
    192 H192        2.3587  -23.2030  -43.6404 H         1 UNK         0.0600 
    193 H193        1.9334  -22.3240  -42.1718 H         1 UNK         0.0600 
    194 H194        2.4786  -23.9900  -42.0710 H         1 UNK         0.0600 
    195 H195       -0.0175  -24.4977  -45.2086 H         1 UNK         0.3000 
    196 H196        0.3056  -27.4314  -44.7936 H         1 UNK         0.0600 
    197 H197        1.8551  -26.3951  -46.4250 H         1 UNK         0.0600 
    198 H198        0.5038  -25.6852  -47.2968 H         1 UNK         0.0600 
    199 H199        0.7147  -27.4376  -47.2566 H         1 UNK         0.0600 
    200 H200       -2.1316  -25.4767  -44.3568 H         1 UNK         0.3000 
    201 H201       -4.3160  -25.5700  -44.3833 H         1 UNK         0.0600 
    202 H202       -5.5088  -27.6943  -44.6441 H         1 UNK         0.0600 
    203 H203       -4.0270  -27.9668  -43.7431 H         1 UNK         0.0600 
    204 H204       -4.1302  -28.4361  -45.4398 H         1 UNK         0.0600 
    205 H205       -3.1375  -24.2816  -46.4619 H         1 UNK         0.3000 
    206 H206       -3.6867  -23.0250  -48.1838 H         1 UNK         0.0600 
    207 H207       -6.0341  -22.9517  -47.3404 H         1 UNK         0.0600 
    208 H208       -6.4311  -24.3646  -48.3179 H         1 UNK         0.0600 
    209 H209       -5.9482  -22.8631  -49.0911 H         1 UNK         0.0600 
    210 H210       -2.0233  -25.0399  -48.5484 H         1 UNK         0.3000 
    211 H211       -2.6340  -26.6528  -50.8937 H         1 UNK         0.0600 
    212 H212       -1.0754  -27.3926  -49.0481 H         1 UNK         0.0600 
    213 H213       -0.3039  -27.4210  -50.6185 H         1 UNK         0.0600 
    214 H214        0.0455  -26.1063  -49.5091 H         1 UNK         0.0600 
    215 H215       -1.0014  -26.6503  -52.6810 H         1 UNK         0.3000 
    216 H216        0.0340  -25.9279  -54.4459 H         1 UNK         0.0600 
    217 H217        1.4675  -23.9232  -54.4115 H         1 UNK         0.0600 
    218 H218        0.6967  -23.3412  -52.9454 H         1 UNK         0.0600 
    219 H219        1.6487  -24.8244  -52.9147 H         1 UNK         0.0600 
    220 H220       -1.9848  -23.3220  -53.1770 H         1 UNK         0.3000 
    221 H221       -3.5594  -22.0003  -53.9452 H         1 UNK         0.0600 
    222 H222       -4.6332  -24.0665  -54.8061 H         1 UNK         0.0600 
    223 H223       -5.0003  -22.6889  -55.8324 H         1 UNK         0.0600 
    224 H224       -3.8129  -23.8733  -56.3551 H         1 UNK         0.0600 
    225 H225       -1.1278  -22.6538  -56.4086 H         1 UNK         0.3000 
    226 H226       -1.5317  -20.5117  -58.1605 H         1 UNK         0.0600 
    227 H227       -0.0844  -22.4701  -58.6363 H         1 UNK         0.0600 
    228 H228        0.8277  -20.9857  -58.8591 H         1 UNK         0.0600 
    229 H229        1.0696  -21.9521  -57.4077 H         1 UNK         0.0600 
    230 H230       -0.1748  -20.3850  -54.9706 H         1 UNK         0.3000 
    231 H231        1.2030  -17.8516  -55.1593 H         1 UNK         0.0600 
    232 H232        1.1860  -18.0206  -52.6729 H         1 UNK         0.0600 
    233 H233        1.6820  -19.5448  -53.3834 H         1 UNK         0.0600 
    234 H234        0.0490  -19.3583  -52.7436 H         1 UNK         0.0600 
    235 H235       -2.1370  -18.7156  -55.1059 H         1 UNK         0.3000 
    236 H236       -4.0640  -17.6900  -55.0050 H         1 UNK         0.0600 
    237 H237       -3.0106  -16.3355  -56.8352 H         1 UNK         0.0600 
    238 H238       -4.2256  -15.4220  -55.9578 H         1 UNK         0.0600 
    239 H239       -2.5200  -15.1233  -55.6524 H         1 UNK         0.0600 
    240 H240       -2.3057  -17.6455  -52.5057 H         1 UNK         0.3000 
    241 H241       -2.2841  -17.0124  -50.4080 H         1 UNK         0.0600 
    242 H242       -1.1926  -13.5719  -51.6023 H         1 UNK         0.3800 
    243 H243       -1.2370  -15.0950  -52.4580 H         1 UNK         0.3800 
    244 H244       -4.3054  -16.3153  -49.1921 H         1 UNK         0.0800 
    245 H245       -5.1304  -15.9605  -50.6863 H         1 UNK         0.0800 
    246 H246       -3.9897  -20.1062  -49.0828 H         1 UNK         0.0800 
    247 H247       -3.2724  -18.5893  -48.6222 H         1 UNK         0.0800 
@<TRIPOS>BOND
     1    1    2 1    
     2    1  127 1    
     3    1  128 1    
     4    1  129 1    
     5    2    3 2    
     6    2    4 am   BACKBONE|DICT|INTERRES
     7    4    5 1    
     8    4  130 1    
     9    5    6 1    
    10    5   65 1    
    11    5  131 1    
    12    6    7 1    
    13    6  132 1    
    14    6  133 1    
    15    7    8 1    
    16    8    9 1    
    17    8  134 1    
    18    8  135 1    
    19    9   10 ar   
    20    9   14 ar   
    21   10   11 ar   
    22   10  136 1    
    23   11   12 ar   
    24   11  126 1    
    25   12   13 ar   
    26   12  137 1    
    27   13   14 ar   
    28   13   15 1    
    29   14  138 1    
    30   15   16 1    
    31   15  139 1    
    32   15  140 1    
    33   16   17 1    
    34   17   18 1    
    35   17  141 1    
    36   17  142 1    
    37   18   19 1    
    38   18   67 1    
    39   18  143 1    
    40   19   20 am   BACKBONE|DICT|INTERRES
    41   19  144 1    
    42   20   21 2    
    43   20   22 1    
    44   22   23 1    
    45   22   24 1    
    46   22  145 1    
    47   23  146 1    
    48   23  147 1    
    49   23  148 1    
    50   24   25 am   BACKBONE|DICT|INTERRES
    51   24  149 1    
    52   25   26 2    
    53   25   27 1    
    54   27   28 1    
    55   27   29 1    
    56   27  150 1    
    57   28  151 1    
    58   28  152 1    
    59   28  153 1    
    60   29   30 am   BACKBONE|DICT|INTERRES
    61   29  154 1    
    62   30   31 2    
    63   30   32 1    
    64   32   33 1    
    65   32   34 1    
    66   32  155 1    
    67   33  156 1    
    68   33  157 1    
    69   33  158 1    
    70   34   35 am   BACKBONE|DICT|INTERRES
    71   34  159 1    
    72   35   36 2    
    73   35   37 1    
    74   37   38 1    
    75   37   39 1    
    76   37  160 1    
    77   38  161 1    
    78   38  162 1    
    79   38  163 1    
    80   39   40 am   BACKBONE|DICT|INTERRES
    81   39  164 1    
    82   40   41 2    
    83   40   42 1    
    84   42   43 1    
    85   42   44 1    
    86   42  165 1    
    87   43  166 1    
    88   43  167 1    
    89   43  168 1    
    90   44   45 am   BACKBONE|DICT|INTERRES
    91   44  169 1    
    92   45   46 2    
    93   45   47 1    
    94   47   48 1    
    95   47   49 1    
    96   47  170 1    
    97   48  171 1    
    98   48  172 1    
    99   48  173 1    
   100   49   50 am   BACKBONE|DICT|INTERRES
   101   49  174 1    
   102   50   51 2    
   103   50   52 1    
   104   52   53 1    
   105   52   54 1    
   106   52  175 1    
   107   53  176 1    
   108   53  177 1    
   109   53  178 1    
   110   54   55 am   BACKBONE|DICT|INTERRES
   111   54  179 1    
   112   55   56 2    
   113   55   57 1    
   114   57   58 1    
   115   57   59 1    
   116   57  180 1    
   117   58  181 1    
   118   58  182 1    
   119   58  183 1    
   120   59   60 am   BACKBONE|DICT|INTERRES
   121   59  184 1    
   122   60   61 2    
   123   60   62 1    
   124   62   63 1    
   125   62   64 1    
   126   62  185 1    
   127   63  186 1    
   128   63  187 1    
   129   63  188 1    
   130   64   65 am   BACKBONE|DICT|INTERRES
   131   64  189 1    
   132   65   66 2    
   133   67   68 2    
   134   67   69 am   BACKBONE|DICT|INTERRES
   135   69   70 1    
   136   69  190 1    
   137   70   71 1    
   138   70   72 1    
   139   70  191 1    
   140   71  192 1    
   141   71  193 1    
   142   71  194 1    
   143   72   73 2    
   144   72   74 am   BACKBONE|DICT|INTERRES
   145   74   75 1    
   146   74  195 1    
   147   75   76 1    
   148   75   77 1    
   149   75  196 1    
   150   76  197 1    
   151   76  198 1    
   152   76  199 1    
   153   77   78 2    
   154   77   79 am   BACKBONE|DICT|INTERRES
   155   79   80 1    
   156   79  200 1    
   157   80   81 1    
   158   80   82 1    
   159   80  201 1    
   160   81  202 1    
   161   81  203 1    
   162   81  204 1    
   163   82   83 2    
   164   82   84 am   BACKBONE|DICT|INTERRES
   165   84   85 1    
   166   84  205 1    
   167   85   86 1    
   168   85   87 1    
   169   85  206 1    
   170   86  207 1    
   171   86  208 1    
   172   86  209 1    
   173   87   88 2    
   174   87   89 am   BACKBONE|DICT|INTERRES
   175   89   90 1    
   176   89  210 1    
   177   90   91 1    
   178   90   92 1    
   179   90  211 1    
   180   91  212 1    
   181   91  213 1    
   182   91  214 1    
   183   92   93 2    
   184   92   94 am   BACKBONE|DICT|INTERRES
   185   94   95 1    
   186   94  215 1    
   187   95   96 1    
   188   95   97 1    
   189   95  216 1    
   190   96  217 1    
   191   96  218 1    
   192   96  219 1    
   193   97   98 2    
   194   97   99 am   BACKBONE|DICT|INTERRES
   195   99  100 1    
   196   99  220 1    
   197  100  101 1    
   198  100  102 1    
   199  100  221 1    
   200  101  222 1    
   201  101  223 1    
   202  101  224 1    
   203  102  103 2    
   204  102  104 am   BACKBONE|DICT|INTERRES
   205  104  105 1    
   206  104  225 1    
   207  105  106 1    
   208  105  107 1    
   209  105  226 1    
   210  106  227 1    
   211  106  228 1    
   212  106  229 1    
   213  107  108 2    
   214  107  109 am   BACKBONE|DICT|INTERRES
   215  109  110 1    
   216  109  230 1    
   217  110  111 1    
   218  110  112 1    
   219  110  231 1    
   220  111  232 1    
   221  111  233 1    
   222  111  234 1    
   223  112  113 2    
   224  112  114 am   BACKBONE|DICT|INTERRES
   225  114  115 1    
   226  114  235 1    
   227  115  116 1    
   228  115  117 1    
   229  115  236 1    
   230  116  237 1    
   231  116  238 1    
   232  116  239 1    
   233  117  118 2    
   234  117  119 am   BACKBONE|DICT|INTERRES
   235  119  120 1    
   236  119  240 1    
   237  120  121 1    
   238  120  124 1    
   239  120  241 1    
   240  121  122 am   BACKBONE|DICT|INTERRES
   241  121  123 2    
   242  122  242 1    
   243  122  243 1    
   244  124  125 1    
   245  124  244 1    
   246  124  245 1    
   247  125  126 1    
   248  126  246 1    
   249  126  247 1    
@<TRIPOS>SUBSTRUCTURE
     1 UNK         1 GROUP             0       ****    0 ROOT    
