@<TRIPOS>MOLECULE
3R540
247   249    1
SMALL
USER_CHARGES


@<TRIPOS>ATOM
      1 CA          1.1698  -11.8565  -52.9243 C.3       0 UNK        -0.1800 
      2 C           0.9118  -11.8878  -51.4245 C.2       0 UNK         0.5000 
      3 O           0.3514  -10.9368  -50.8800 O.2       0 UNK        -0.5000 
      4 N           1.3194  -12.9780  -50.7606 N.am      1 UNK        -0.5000 
      5 CA          1.1775  -13.2176  -49.3177 C.3       1 UNK         0.1400 
      6 C6         -0.3047  -13.2644  -48.8457 C.3       23 UNK        -0.0398 
      7 S7         -0.5835  -14.5695  -47.6009 S.3       23 UNK        -0.2404 
      8 C8         -1.4924  -15.8200  -48.5630 C.3       23 UNK        -0.0205 
      9 C9         -0.6101  -16.5088  -49.5935 C.ar      23 UNK        -0.0193 
     10 C10        -0.5692  -16.0416  -50.9078 C.ar      23 UNK        -0.1150 
     11 C11         0.2222  -16.6767  -51.8656 C.ar      23 UNK        -0.0193 
     12 C12         0.9470  -17.8186  -51.5065 C.ar      23 UNK        -0.1150 
     13 C13         0.9193  -18.3076  -50.1933 C.ar      23 UNK        -0.0193 
     14 C14         0.1521  -17.6246  -49.2377 C.ar      23 UNK        -0.1150 
     15 C15         1.7342  -19.5682  -49.8720 C.3       23 UNK        -0.0205 
     16 S16         1.6319  -20.2111  -48.1575 S.3       23 UNK        -0.2404 
     17 C17        -0.0961  -20.7855  -48.0778 C.3       23 UNK        -0.0398 
     18 CA         -0.2899  -22.1226  -47.3261 C.3       11 UNK         0.1400 
     19 N           0.0060  -22.0409  -45.8920 N.am      11 UNK        -0.5000 
     20 C          -0.0012  -23.0910  -45.0559 C.2       10 UNK         0.5000 
     21 O          -0.1923  -24.2513  -45.4192 O.2       10 UNK        -0.5000 
     22 CA          0.1690  -22.7989  -43.5542 C.3       10 UNK         0.1400 
     23 CB          1.6448  -22.5726  -43.1948 C.3       10 UNK        -0.1800 
     24 N          -0.6431  -21.6659  -43.1075 N.am      10 UNK        -0.5000 
     25 C          -1.9842  -21.6460  -43.1311 C.2       9 UNK         0.5000 
     26 O          -2.6741  -22.6005  -43.4881 O.2       9 UNK        -0.5000 
     27 CA         -2.6760  -20.3312  -42.7299 C.3       9 UNK         0.1400 
     28 CB         -2.7777  -20.2114  -41.2023 C.3       9 UNK        -0.1800 
     29 N          -2.0062  -19.1505  -43.2720 N.am      9 UNK        -0.5000 
     30 C          -1.8749  -18.8754  -44.5779 C.2       8 UNK         0.5000 
     31 O          -2.3491  -19.5673  -45.4795 O.2       8 UNK        -0.5000 
     32 CA         -1.0110  -17.6512  -44.9322 C.3       8 UNK         0.1400 
     33 CB         -1.7904  -16.3489  -44.6948 C.3       8 UNK        -0.1800 
     34 N           0.2445  -17.6221  -44.1792 N.am      8 UNK        -0.5000 
     35 C           1.1772  -18.5852  -44.2182 C.2       7 UNK         0.5000 
     36 O           1.0993  -19.5821  -44.9320 O.2       7 UNK        -0.5000 
     37 CA          2.3640  -18.4468  -43.2516 C.3       7 UNK         0.1400 
     38 CB          3.4456  -17.5269  -43.8334 C.3       7 UNK        -0.1800 
     39 N           1.9361  -17.9516  -41.9442 N.am      7 UNK        -0.5000 
     40 C           1.2317  -18.6745  -41.0619 C.2       6 UNK         0.5000 
     41 O           0.9164  -19.8511  -41.2395 O.2       6 UNK        -0.5000 
     42 CA          0.7653  -17.9446  -39.7885 C.3       6 UNK         0.1400 
     43 CB          1.8822  -17.9245  -38.7344 C.3       6 UNK        -0.1800 
     44 N           0.3273  -16.5739  -40.0583 N.am      6 UNK        -0.5000 
     45 C          -0.7529  -16.2562  -40.7858 C.2       5 UNK         0.5000 
     46 O          -1.5243  -17.0907  -41.2578 O.2       5 UNK        -0.5000 
     47 CA         -0.9858  -14.7597  -41.0735 C.3       5 UNK         0.1400 
     48 CB         -1.8638  -14.1337  -39.9801 C.3       5 UNK        -0.1800 
     49 N           0.2498  -13.9802  -41.2085 N.am      5 UNK        -0.5000 
     50 C           1.1988  -14.1999  -42.1279 C.2       4 UNK         0.5000 
     51 O           1.1502  -15.1143  -42.9554 O.2       4 UNK        -0.5000 
     52 CA          2.4224  -13.2741  -42.0829 C.3       4 UNK         0.1400 
     53 CB          3.2863  -13.5637  -40.8410 C.3       4 UNK        -0.1800 
     54 N           3.2196  -13.4786  -43.2881 N.am      4 UNK        -0.5000 
     55 C           4.0463  -12.5857  -43.8416 C.2       3 UNK         0.5000 
     56 O           4.2177  -11.4499  -43.3953 O.2       3 UNK        -0.5000 
     57 CA          4.8144  -13.0136  -45.1034 C.3       3 UNK         0.1400 
     58 CB          4.7326  -14.5187  -45.4328 C.3       3 UNK        -0.1800 
     59 N           4.3141  -12.2408  -46.2318 N.am      3 UNK        -0.5000 
     60 C           5.0331  -11.8174  -47.2744 C.2       2 UNK         0.5000 
     61 O           6.2411  -12.0281  -47.4015 O.2       2 UNK        -0.5000 
     62 CA          4.2496  -11.0641  -48.3715 C.3       2 UNK         0.1400 
     63 CB          5.1633  -10.4896  -49.4693 C.3       2 UNK        -0.1800 
     64 N           3.2440  -11.9218  -49.0030 N.am      2 UNK        -0.5000 
     65 C           2.0646  -12.2728  -48.4702 C.2       1 UNK         0.5000 
     66 O           1.6883  -11.8825  -47.3625 O.2       1 UNK        -0.5000 
     67 C          -1.7160  -22.6500  -47.5762 C.2       11 UNK         0.5000 
     68 O          -1.8842  -23.5515  -48.3947 O.2       11 UNK        -0.5000 
     69 N          -2.7111  -22.1076  -46.8600 N.am      12 UNK        -0.5000 
     70 CA         -4.1110  -22.5277  -46.9467 C.3       12 UNK         0.1400 
     71 CB         -4.9819  -21.6074  -46.0798 C.3       12 UNK        -0.1800 
     72 C          -4.3178  -24.0059  -46.5658 C.2       12 UNK         0.5000 
     73 O          -5.0017  -24.7264  -47.2928 O.2       12 UNK        -0.5000 
     74 N          -3.6814  -24.4428  -45.4695 N.am      13 UNK        -0.5000 
     75 CA         -3.6870  -25.8285  -44.9937 C.3       13 UNK         0.1400 
     76 CB         -3.0284  -25.8940  -43.6076 C.3       13 UNK        -0.1800 
     77 C          -3.0016  -26.8086  -45.9654 C.2       13 UNK         0.5000 
     78 O          -3.4739  -27.9343  -46.1267 O.2       13 UNK        -0.5000 
     79 N          -1.9196  -26.3572  -46.6133 N.am      14 UNK        -0.5000 
     80 CA         -1.1772  -27.1040  -47.6312 C.3       14 UNK         0.1400 
     81 CB          0.2281  -26.4933  -47.7595 C.3       14 UNK        -0.1800 
     82 C          -1.8701  -27.1366  -49.0097 C.2       14 UNK         0.5000 
     83 O          -1.4074  -27.8652  -49.8884 O.2       14 UNK        -0.5000 
     84 N          -2.9327  -26.3356  -49.1871 N.am      15 UNK        -0.5000 
     85 CA         -3.6399  -26.0589  -50.4432 C.3       15 UNK         0.1400 
     86 CB         -4.3374  -27.3213  -50.9905 C.3       15 UNK        -0.1800 
     87 C          -2.7367  -25.3559  -51.4807 C.2       15 UNK         0.5000 
     88 O          -2.8441  -25.6092  -52.6809 O.2       15 UNK        -0.5000 
     89 N          -1.8656  -24.4726  -50.9809 N.am      16 UNK        -0.5000 
     90 CA         -0.9700  -23.6017  -51.7385 C.3       16 UNK         0.1400 
     91 CB          0.4400  -23.7064  -51.1339 C.3       16 UNK        -0.1800 
     92 C          -1.4639  -22.1412  -51.7266 C.2       16 UNK         0.5000 
     93 O          -0.7779  -21.2709  -52.2626 O.2       16 UNK        -0.5000 
     94 N          -2.6350  -21.8915  -51.1307 N.am      17 UNK        -0.5000 
     95 CA         -3.3560  -20.6256  -51.1361 C.3       17 UNK         0.1400 
     96 CB         -2.7199  -19.6146  -50.1630 C.3       17 UNK        -0.1800 
     97 C          -4.8375  -20.9036  -50.8359 C.2       17 UNK         0.5000 
     98 O          -5.2766  -22.0509  -50.9636 O.2       17 UNK        -0.5000 
     99 N          -5.5822  -19.8570  -50.4519 N.am      18 UNK        -0.5000 
    100 CA        -7.0112  -19.8585  -50.1228 C.3       18 UNK         0.1400 
    101 CB        -7.2794  -20.6589  -48.8288 C.3       18 UNK        -0.1800 
    102 C         -7.8504  -20.3122  -51.3308 C.2       18 UNK         0.5000 
    103 O         -7.9766  -19.5479  -52.2879 O.2       18 UNK        -0.5000 
    104 N         -8.3533  -21.5536  -51.3028 N.am      19 UNK        -0.5000 
    105 CA        -9.0799  -22.1952  -52.4023 C.3       19 UNK         0.1400 
    106 CB        -9.5978  -23.5612  -51.9272 C.3       19 UNK        -0.1800 
    107 C         -8.2424  -22.3541  -53.6887 C.2       19 UNK         0.5000 
    108 O         -8.8097  -22.3623  -54.7815 O.2       19 UNK        -0.5000 
    109 N         -6.9135  -22.4490  -53.5403 N.am      20 UNK        -0.5000 
    110 CA        -5.9547  -22.5024  -54.6451 C.3       20 UNK         0.1400 
    111 CB        -4.7303  -23.3109  -54.1890 C.3       20 UNK        -0.1800 
    112 C         -5.5225  -21.1071  -55.1431 C.2       20 UNK         0.5000 
    113 O         -4.7694  -21.0353  -56.1143 O.2       20 UNK        -0.5000 
    114 N         -5.9735  -20.0344  -54.4715 N.am      21 UNK        -0.5000 
    115 CA        -5.5811  -18.6291  -54.6295 C.3       21 UNK         0.1400 
    116 CB        -5.9047  -18.0848  -56.0369 C.3       21 UNK        -0.1800 
    117 C         -4.1161  -18.4045  -54.2140 C.2       21 UNK         0.5000 
    118 O         -3.8768  -17.9341  -53.1026 O.2       21 UNK        -0.5000 
    119 N         -3.1841  -18.8029  -55.0836 N.am      22 UNK        -0.5000 
    120 CA        -1.7404  -18.9064  -54.8507 C.3       22 UNK         0.1400 
    121 C         -1.2281  -20.1259  -55.6583 C.2       22 UNK         0.5000 
    122 N         -0.6044  -21.0994  -55.0150 N.am      22 UNK        -0.7600 
    123 O         -1.3621  -20.1768  -56.8792 O.2       22 UNK        -0.5000 
    124 C124       -0.9581  -17.6343  -55.2713 C.3       23 UNK        -0.0398 
    125 S125       -1.2331  -16.1857  -54.1980 S.3       23 UNK        -0.2404 
    126 C126        0.3292  -16.0799  -53.2628 C.3       23 UNK        -0.0205 
    127 H127        0.2246  -11.8647  -53.4671 H         1 UNK         0.0600 
    128 H128        1.7592  -12.7125  -53.2534 H         1 UNK         0.0600 
    129 H129        1.7114  -10.9496  -53.1933 H         1 UNK         0.0600 
    130 H130        1.7736  -13.7205  -51.2734 H         1 UNK         0.3000 
    131 H131        1.6069  -14.2109  -49.1762 H         1 UNK         0.0600 
    132 H132       -0.6319  -12.3058  -48.4394 H         1 UNK         0.0800 
    133 H133       -0.9712  -13.4437  -49.6883 H         1 UNK         0.0800 
    134 H134       -1.9000  -16.5649  -47.8788 H         1 UNK         0.0800 
    135 H135       -2.3542  -15.3569  -49.0460 H         1 UNK         0.0800 
    136 H136       -1.1468  -15.1735  -51.1911 H         1 UNK         0.1150 
    137 H137        1.5501  -18.3221  -52.2491 H         1 UNK         0.1150 
    138 H138        0.1262  -17.9561  -48.2121 H         1 UNK         0.1150 
    139 H139        1.4405  -20.3630  -50.5598 H         1 UNK         0.0800 
    140 H140        2.7830  -19.3557  -50.0829 H         1 UNK         0.0800 
    141 H141       -0.4438  -20.8935  -49.1049 H         1 UNK         0.0800 
    142 H142       -0.7051  -20.0035  -47.6233 H         1 UNK         0.0800 
    143 H143        0.4016  -22.8521  -47.7520 H         1 UNK         0.0600 
    144 H144        0.2321  -21.1189  -45.5242 H         1 UNK         0.3000 
    145 H145       -0.1733  -23.6803  -43.0079 H         1 UNK         0.0600 
    146 H146        1.7702  -22.4108  -42.1241 H         1 UNK         0.0600 
    147 H147        2.0632  -21.7122  -43.7153 H         1 UNK         0.0600 
    148 H148        2.2468  -23.4408  -43.4654 H         1 UNK         0.0600 
    149 H149       -0.1446  -20.8542  -42.7611 H         1 UNK         0.3000 
    150 H150       -3.6891  -20.3521  -43.1361 H         1 UNK         0.0600 
    151 H151       -3.2898  -21.0748  -40.7757 H         1 UNK         0.0600 
    152 H152       -3.3407  -19.3235  -40.9140 H         1 UNK         0.0600 
    153 H153       -1.7941  -20.1482  -40.7362 H         1 UNK         0.0600 
    154 H154       -1.6229  -18.4966  -42.5952 H         1 UNK         0.3000 
    155 H155       -0.7532  -17.7114  -45.9906 H         1 UNK         0.0600 
    156 H156       -2.6236  -16.2650  -45.3931 H         1 UNK         0.0600 
    157 H157       -1.1562  -15.4736  -44.8334 H         1 UNK         0.0600 
    158 H158       -2.2062  -16.2993  -43.6895 H         1 UNK         0.0600 
    159 H159        0.4153  -16.8068  -43.5986 H         1 UNK         0.3000 
    160 H160        2.8047  -19.4364  -43.1147 H         1 UNK         0.0600 
    161 H161        3.0607  -16.5270  -44.0240 H         1 UNK         0.0600 
    162 H162        3.8188  -17.9180  -44.7808 H         1 UNK         0.0600 
    163 H163        4.2970  -17.4387  -43.1585 H         1 UNK         0.0600 
    164 H164        2.0950  -16.9730  -41.7555 H         1 UNK         0.3000 
    165 H165       -0.0821  -18.4985  -39.3789 H         1 UNK         0.0600 
    166 H166        1.5361  -17.4778  -37.8022 H         1 UNK         0.0600 
    167 H167        2.2183  -18.9363  -38.5036 H         1 UNK         0.0600 
    168 H168        2.7507  -17.3598  -39.0759 H         1 UNK         0.0600 
    169 H169        0.9047  -15.8276  -39.7008 H         1 UNK         0.3000 
    170 H170       -1.5228  -14.6885  -42.0211 H         1 UNK         0.0600 
    171 H171       -1.3660  -14.1419  -39.0096 H         1 UNK         0.0600 
    172 H172       -2.8021  -14.6797  -39.8726 H         1 UNK         0.0600 
    173 H173       -2.1169  -13.1008  -40.2200 H         1 UNK         0.0600 
    174 H174        0.3678  -13.2158  -40.5590 H         1 UNK         0.3000 
    175 H175        2.0635  -12.2432  -42.0526 H         1 UNK         0.0600 
    176 H176        3.6515  -14.5915  -40.8375 H         1 UNK         0.0600 
    177 H177        4.1525  -12.9031  -40.7997 H         1 UNK         0.0600 
    178 H178        2.7236  -13.4102  -39.9197 H         1 UNK         0.0600 
    179 H179        3.0519  -14.3636  -43.7484 H         1 UNK         0.3000 
    180 H180        5.8611  -12.7604  -44.9227 H         1 UNK         0.0600 
    181 H181        5.3667  -14.7644  -46.2848 H         1 UNK         0.0600 
    182 H182        3.7167  -14.8269  -45.6832 H         1 UNK         0.0600 
    183 H183        5.0794  -15.1244  -44.5949 H         1 UNK         0.0600 
    184 H184        3.3201  -12.0294  -46.2259 H         1 UNK         0.3000 
    185 H185        3.7433  -10.2242  -47.8908 H         1 UNK         0.0600 
    186 H186        4.5907   -9.9125  -50.1957 H         1 UNK         0.0600 
    187 H187        5.9127   -9.8209  -49.0439 H         1 UNK         0.0600 
    188 H188        5.6919  -11.2768  -50.0084 H         1 UNK         0.0600 
    189 H189        3.4847  -12.2958  -49.9092 H         1 UNK         0.3000 
    190 H190       -2.5045  -21.3413  -46.2243 H         1 UNK         0.3000 
    191 H191       -4.4249  -22.4076  -47.9858 H         1 UNK         0.0600 
    192 H192       -4.8853  -20.5671  -46.3907 H         1 UNK         0.0600 
    193 H193       -4.7086  -21.6665  -45.0267 H         1 UNK         0.0600 
    194 H194       -6.0354  -21.8775  -46.1605 H         1 UNK         0.0600 
    195 H195       -3.1683  -23.7722  -44.9020 H         1 UNK         0.3000 
    196 H196       -4.7283  -26.1403  -44.8905 H         1 UNK         0.0600 
    197 H197       -3.5609  -25.2708  -42.8889 H         1 UNK         0.0600 
    198 H198       -1.9921  -25.5557  -43.6392 H         1 UNK         0.0600 
    199 H199       -3.0311  -26.9133  -43.2197 H         1 UNK         0.0600 
    200 H200       -1.5581  -25.4383  -46.3777 H         1 UNK         0.3000 
    201 H201       -1.0697  -28.1375  -47.2959 H         1 UNK         0.0600 
    202 H202        0.7575  -26.5181  -46.8069 H         1 UNK         0.0600 
    203 H203        0.1852  -25.4555  -48.0921 H         1 UNK         0.0600 
    204 H204        0.8337  -27.0438  -48.4804 H         1 UNK         0.0600 
    205 H205       -3.2211  -25.7704  -48.3985 H         1 UNK         0.3000 
    206 H206       -4.4210  -25.3394  -50.1923 H         1 UNK         0.0600 
    207 H207       -3.6209  -28.0651  -51.3394 H         1 UNK         0.0600 
    208 H208       -4.9624  -27.7871  -50.2287 H         1 UNK         0.0600 
    209 H209       -4.9840  -27.0730  -51.8330 H         1 UNK         0.0600 
    210 H210       -1.8668  -24.3139  -49.9730 H         1 UNK         0.3000 
    211 H211       -0.9243  -23.9208  -52.7814 H         1 UNK         0.0600 
    212 H212        0.4641  -23.3502  -50.1045 H         1 UNK         0.0600 
    213 H213        1.1574  -23.1138  -51.7030 H         1 UNK         0.0600 
    214 H214        0.7942  -24.7374  -51.1388 H         1 UNK         0.0600 
    215 H215       -3.1647  -22.6669  -50.7544 H         1 UNK         0.3000 
    216 H216       -3.3054  -20.2296  -52.1486 H         1 UNK         0.0600 
    217 H217       -3.1998  -18.6377  -50.2258 H         1 UNK         0.0600 
    218 H218       -1.6731  -19.4503  -50.4094 H         1 UNK         0.0600 
    219 H219       -2.7842  -19.9529  -49.1285 H         1 UNK         0.0600 
    220 H220       -5.1376  -18.9500  -50.4226 H         1 UNK         0.3000 
    221 H221       -7.2906  -18.8216  -49.9301 H         1 UNK         0.0600 
    222 H222       -6.9441  -21.6943  -48.8946 H         1 UNK         0.0600 
    223 H223       -6.7662  -20.2000  -47.9846 H         1 UNK         0.0600 
    224 H224       -8.3428  -20.6684  -48.5861 H         1 UNK         0.0600 
    225 H225       -8.1627  -22.1266  -50.4936 H         1 UNK         0.3000 
    226 H226       -9.9390  -21.5668  -52.6457 H         1 UNK         0.0600 
    227 H227      -10.2585  -23.4557  -51.0665 H         1 UNK         0.0600 
    228 H228      -10.1676  -24.0583  -52.7135 H         1 UNK         0.0600 
    229 H229       -8.7797  -24.2250  -51.6446 H         1 UNK         0.0600 
    230 H230       -6.5235  -22.4322  -52.6036 H         1 UNK         0.3000 
    231 H231       -6.4054  -23.0248  -55.4915 H         1 UNK         0.0600 
    232 H232       -4.0172  -23.4413  -55.0040 H         1 UNK         0.0600 
    233 H233       -5.0198  -24.3062  -53.8517 H         1 UNK         0.0600 
    234 H234       -4.2027  -22.8203  -53.3718 H         1 UNK         0.0600 
    235 H235       -6.6215  -20.1964  -53.7090 H         1 UNK         0.3000 
    236 H236       -6.1946  -18.0679  -53.9228 H         1 UNK         0.0600 
    237 H237       -5.3525  -18.5949  -56.8258 H         1 UNK         0.0600 
    238 H238       -6.9671  -18.1863  -56.2580 H         1 UNK         0.0600 
    239 H239       -5.6595  -17.0243  -56.1047 H         1 UNK         0.0600 
    240 H240       -3.5020  -19.2745  -55.9236 H         1 UNK         0.3000 
    241 H241       -1.5623  -19.0927  -53.7893 H         1 UNK         0.0600 
    242 H242       -0.2494  -21.8851  -55.5358 H         1 UNK         0.3800 
    243 H243       -0.5259  -21.0886  -53.9982 H         1 UNK         0.3800 
    244 H244        0.1118  -17.8446  -55.3064 H         1 UNK         0.0800 
    245 H245       -1.2310  -17.3493  -56.2888 H         1 UNK         0.0800 
    246 H246        0.5884  -15.0253  -53.1645 H         1 UNK         0.0800 
    247 H247        1.1510  -16.5315  -53.8194 H         1 UNK         0.0800 
@<TRIPOS>BOND
     1    1    2 1    
     2    1  127 1    
     3    1  128 1    
     4    1  129 1    
     5    2    3 2    
     6    2    4 am   BACKBONE|DICT|INTERRES
     7    4    5 1    
     8    4  130 1    
     9    5    6 1    
    10    5   65 1    
    11    5  131 1    
    12    6    7 1    
    13    6  132 1    
    14    6  133 1    
    15    7    8 1    
    16    8    9 1    
    17    8  134 1    
    18    8  135 1    
    19    9   10 ar   
    20    9   14 ar   
    21   10   11 ar   
    22   10  136 1    
    23   11   12 ar   
    24   11  126 1    
    25   12   13 ar   
    26   12  137 1    
    27   13   14 ar   
    28   13   15 1    
    29   14  138 1    
    30   15   16 1    
    31   15  139 1    
    32   15  140 1    
    33   16   17 1    
    34   17   18 1    
    35   17  141 1    
    36   17  142 1    
    37   18   19 1    
    38   18   67 1    
    39   18  143 1    
    40   19   20 am   BACKBONE|DICT|INTERRES
    41   19  144 1    
    42   20   21 2    
    43   20   22 1    
    44   22   23 1    
    45   22   24 1    
    46   22  145 1    
    47   23  146 1    
    48   23  147 1    
    49   23  148 1    
    50   24   25 am   BACKBONE|DICT|INTERRES
    51   24  149 1    
    52   25   26 2    
    53   25   27 1    
    54   27   28 1    
    55   27   29 1    
    56   27  150 1    
    57   28  151 1    
    58   28  152 1    
    59   28  153 1    
    60   29   30 am   BACKBONE|DICT|INTERRES
    61   29  154 1    
    62   30   31 2    
    63   30   32 1    
    64   32   33 1    
    65   32   34 1    
    66   32  155 1    
    67   33  156 1    
    68   33  157 1    
    69   33  158 1    
    70   34   35 am   BACKBONE|DICT|INTERRES
    71   34  159 1    
    72   35   36 2    
    73   35   37 1    
    74   37   38 1    
    75   37   39 1    
    76   37  160 1    
    77   38  161 1    
    78   38  162 1    
    79   38  163 1    
    80   39   40 am   BACKBONE|DICT|INTERRES
    81   39  164 1    
    82   40   41 2    
    83   40   42 1    
    84   42   43 1    
    85   42   44 1    
    86   42  165 1    
    87   43  166 1    
    88   43  167 1    
    89   43  168 1    
    90   44   45 am   BACKBONE|DICT|INTERRES
    91   44  169 1    
    92   45   46 2    
    93   45   47 1    
    94   47   48 1    
    95   47   49 1    
    96   47  170 1    
    97   48  171 1    
    98   48  172 1    
    99   48  173 1    
   100   49   50 am   BACKBONE|DICT|INTERRES
   101   49  174 1    
   102   50   51 2    
   103   50   52 1    
   104   52   53 1    
   105   52   54 1    
   106   52  175 1    
   107   53  176 1    
   108   53  177 1    
   109   53  178 1    
   110   54   55 am   BACKBONE|DICT|INTERRES
   111   54  179 1    
   112   55   56 2    
   113   55   57 1    
   114   57   58 1    
   115   57   59 1    
   116   57  180 1    
   117   58  181 1    
   118   58  182 1    
   119   58  183 1    
   120   59   60 am   BACKBONE|DICT|INTERRES
   121   59  184 1    
   122   60   61 2    
   123   60   62 1    
   124   62   63 1    
   125   62   64 1    
   126   62  185 1    
   127   63  186 1    
   128   63  187 1    
   129   63  188 1    
   130   64   65 am   BACKBONE|DICT|INTERRES
   131   64  189 1    
   132   65   66 2    
   133   67   68 2    
   134   67   69 am   BACKBONE|DICT|INTERRES
   135   69   70 1    
   136   69  190 1    
   137   70   71 1    
   138   70   72 1    
   139   70  191 1    
   140   71  192 1    
   141   71  193 1    
   142   71  194 1    
   143   72   73 2    
   144   72   74 am   BACKBONE|DICT|INTERRES
   145   74   75 1    
   146   74  195 1    
   147   75   76 1    
   148   75   77 1    
   149   75  196 1    
   150   76  197 1    
   151   76  198 1    
   152   76  199 1    
   153   77   78 2    
   154   77   79 am   BACKBONE|DICT|INTERRES
   155   79   80 1    
   156   79  200 1    
   157   80   81 1    
   158   80   82 1    
   159   80  201 1    
   160   81  202 1    
   161   81  203 1    
   162   81  204 1    
   163   82   83 2    
   164   82   84 am   BACKBONE|DICT|INTERRES
   165   84   85 1    
   166   84  205 1    
   167   85   86 1    
   168   85   87 1    
   169   85  206 1    
   170   86  207 1    
   171   86  208 1    
   172   86  209 1    
   173   87   88 2    
   174   87   89 am   BACKBONE|DICT|INTERRES
   175   89   90 1    
   176   89  210 1    
   177   90   91 1    
   178   90   92 1    
   179   90  211 1    
   180   91  212 1    
   181   91  213 1    
   182   91  214 1    
   183   92   93 2    
   184   92   94 am   BACKBONE|DICT|INTERRES
   185   94   95 1    
   186   94  215 1    
   187   95   96 1    
   188   95   97 1    
   189   95  216 1    
   190   96  217 1    
   191   96  218 1    
   192   96  219 1    
   193   97   98 2    
   194   97   99 am   BACKBONE|DICT|INTERRES
   195   99  100 1    
   196   99  220 1    
   197  100  101 1    
   198  100  102 1    
   199  100  221 1    
   200  101  222 1    
   201  101  223 1    
   202  101  224 1    
   203  102  103 2    
   204  102  104 am   BACKBONE|DICT|INTERRES
   205  104  105 1    
   206  104  225 1    
   207  105  106 1    
   208  105  107 1    
   209  105  226 1    
   210  106  227 1    
   211  106  228 1    
   212  106  229 1    
   213  107  108 2    
   214  107  109 am   BACKBONE|DICT|INTERRES
   215  109  110 1    
   216  109  230 1    
   217  110  111 1    
   218  110  112 1    
   219  110  231 1    
   220  111  232 1    
   221  111  233 1    
   222  111  234 1    
   223  112  113 2    
   224  112  114 am   BACKBONE|DICT|INTERRES
   225  114  115 1    
   226  114  235 1    
   227  115  116 1    
   228  115  117 1    
   229  115  236 1    
   230  116  237 1    
   231  116  238 1    
   232  116  239 1    
   233  117  118 2    
   234  117  119 am   BACKBONE|DICT|INTERRES
   235  119  120 1    
   236  119  240 1    
   237  120  121 1    
   238  120  124 1    
   239  120  241 1    
   240  121  122 am   BACKBONE|DICT|INTERRES
   241  121  123 2    
   242  122  242 1    
   243  122  243 1    
   244  124  125 1    
   245  124  244 1    
   246  124  245 1    
   247  125  126 1    
   248  126  246 1    
   249  126  247 1    
@<TRIPOS>SUBSTRUCTURE
     1 UNK         1 GROUP             0       ****    0 ROOT    
