@<TRIPOS>MOLECULE
3R540
247   249    1
SMALL
USER_CHARGES


@<TRIPOS>ATOM
      1 CA         -0.0252   -9.4655  -49.9011 C.3       0 UNK        -0.1800 
      2 C          -0.7598   -9.5136  -48.5618 C.2       0 UNK         0.5000 
      3 O          -1.5173   -8.5935  -48.2590 O.2       0 UNK        -0.5000 
      4 N          -0.5906  -10.5560  -47.7365 N.am      1 UNK        -0.5000 
      5 CA          0.3282  -11.6884  -47.9033 C.3       1 UNK         0.1400 
      6 C6          0.0350  -12.8182  -46.8865 C.3       23 UNK        -0.0398 
      7 S7         -1.6284  -13.5319  -47.1129 S.3       23 UNK        -0.2404 
      8 C8         -1.2204  -15.0757  -47.9810 C.3       23 UNK        -0.0205 
      9 C9         -2.4731  -15.7539  -48.5085 C.ar      23 UNK        -0.0193 
     10 C10        -2.9372  -15.4632  -49.7937 C.ar      23 UNK        -0.1150 
     11 C11        -4.0778  -16.0945  -50.2976 C.ar      23 UNK        -0.0193 
     12 C12        -4.7549  -17.0257  -49.5034 C.ar      23 UNK        -0.1150 
     13 C13        -4.3064  -17.3172  -48.2109 C.ar      23 UNK        -0.0193 
     14 C14        -3.1680  -16.6719  -47.7171 C.ar      23 UNK        -0.1150 
     15 C15        -5.0675  -18.3083  -47.3406 C.3       23 UNK        -0.0205 
     16 S16        -4.5963  -20.0358  -47.6741 S.3       23 UNK        -0.2404 
     17 C17        -2.9245  -20.1088  -46.9520 C.3       23 UNK        -0.0398 
     18 CA         -2.1203  -21.3468  -47.4128 C.3       11 UNK         0.1400 
     19 N          -0.6881  -21.0526  -47.4833 N.am      11 UNK        -0.5000 
     20 C           0.2383  -21.8590  -48.0166 C.2       10 UNK         0.5000 
     21 O          -0.0238  -22.9334  -48.5522 O.2       10 UNK        -0.5000 
     22 CA          1.7089  -21.4182  -47.8906 C.3       10 UNK         0.1400 
     23 CB          2.1608  -20.7170  -49.1801 C.3       10 UNK        -0.1800 
     24 N           1.9831  -20.5423  -46.7455 N.am      10 UNK        -0.5000 
     25 C           1.7426  -20.8316  -45.4575 C.2       9 UNK         0.5000 
     26 O           1.2248  -21.8908  -45.0968 O.2       9 UNK        -0.5000 
     27 CA          2.1147  -19.7573  -44.4111 C.3       9 UNK         0.1400 
     28 CB          2.4691  -18.3905  -45.0357 C.3       9 UNK        -0.1800 
     29 N           1.0223  -19.5817  -43.4521 N.am      9 UNK        -0.5000 
     30 C           0.8554  -20.3125  -42.3376 C.2       8 UNK         0.5000 
     31 O           1.6666  -21.1575  -41.9563 O.2       8 UNK        -0.5000 
     32 CA         -0.4127  -20.0694  -41.4906 C.3       8 UNK         0.1400 
     33 CB         -0.0631  -19.7066  -40.0372 C.3       8 UNK        -0.1800 
     34 N          -1.2765  -19.0264  -42.0432 N.am      8 UNK        -0.5000 
     35 C          -2.2866  -19.2424  -42.8965 C.2       7 UNK         0.5000 
     36 O          -2.6287  -20.3604  -43.2780 O.2       7 UNK        -0.5000 
     37 CA         -3.0282  -18.0040  -43.4414 C.3       7 UNK         0.1400 
     38 CB         -4.3179  -17.7528  -42.6472 C.3       7 UNK        -0.1800 
     39 N          -2.2216  -16.7825  -43.4430 N.am      7 UNK        -0.5000 
     40 C          -1.1012  -16.6035  -44.1547 C.2       6 UNK         0.5000 
     41 O          -0.6464  -17.4541  -44.9197 O.2       6 UNK        -0.5000 
     42 CA         -0.3432  -15.2749  -43.9586 C.3       6 UNK         0.1400 
     43 CB         -1.2226  -14.1355  -43.4005 C.3       6 UNK        -0.1800 
     44 N           0.8643  -15.4146  -43.1396 N.am      6 UNK        -0.5000 
     45 C           0.9702  -15.9616  -41.9167 C.2       5 UNK         0.5000 
     46 O           0.0393  -16.5172  -41.3330 O.2       5 UNK        -0.5000 
     47 CA          2.3359  -15.8548  -41.2037 C.3       5 UNK         0.1400 
     48 CB          3.0944  -17.1913  -41.2310 C.3       5 UNK        -0.1800 
     49 N           3.2002  -14.8087  -41.7519 N.am      5 UNK        -0.5000 
     50 C           3.0033  -13.4920  -41.5953 C.2       4 UNK         0.5000 
     51 O           2.1101  -13.0128  -40.8961 O.2       4 UNK        -0.5000 
     52 CA          3.9507  -12.5508  -42.3661 C.3       4 UNK         0.1400 
     53 CB          5.0729  -12.0473  -41.4454 C.3       4 UNK        -0.1800 
     54 N           4.5500  -13.1479  -43.5658 N.am      4 UNK        -0.5000 
     55 C           3.8681  -13.5468  -44.6470 C.2       3 UNK         0.5000 
     56 O           2.6378  -13.5272  -44.7321 O.2       3 UNK        -0.5000 
     57 CA          4.6925  -14.0913  -45.8226 C.3       3 UNK         0.1400 
     58 CB          4.4349  -15.5938  -46.0124 C.3       3 UNK        -0.1800 
     59 N           4.3143  -13.3829  -47.0399 N.am      3 UNK        -0.5000 
     60 C           4.7998  -12.1896  -47.4069 C.2       2 UNK         0.5000 
     61 O           5.7257  -11.6174  -46.8306 O.2       2 UNK        -0.5000 
     62 CA          4.1107  -11.5117  -48.6063 C.3       2 UNK         0.1400 
     63 CB          4.7363  -11.9795  -49.9292 C.3       2 UNK        -0.1800 
     64 N           2.6674  -11.7670  -48.6346 N.am      2 UNK        -0.5000 
     65 C           1.7946  -11.2320  -47.7695 C.2       1 UNK         0.5000 
     66 O           2.1059  -10.4243  -46.8914 O.2       1 UNK        -0.5000 
     67 C          -2.4331  -22.5903  -46.5521 C.2       11 UNK         0.5000 
     68 O          -3.3315  -23.3559  -46.9040 O.2       11 UNK        -0.5000 
     69 N          -1.6624  -22.8026  -45.4746 N.am      12 UNK        -0.5000 
     70 CA         -1.7814  -23.9767  -44.6106 C.3       12 UNK         0.1400 
     71 CB         -1.0918  -23.7119  -43.2648 C.3       12 UNK        -0.1800 
     72 C          -1.2135  -25.2378  -45.2810 C.2       12 UNK         0.5000 
     73 O          -1.8151  -26.3052  -45.1654 O.2       12 UNK        -0.5000 
     74 N          -0.0965  -25.0851  -46.0077 N.am      13 UNK        -0.5000 
     75 CA          0.5305  -26.1473  -46.8001 C.3       13 UNK         0.1400 
     76 CB          1.9137  -25.6808  -47.2789 C.3       13 UNK        -0.1800 
     77 C          -0.3458  -26.5857  -47.9897 C.2       13 UNK         0.5000 
     78 O          -0.4365  -27.7790  -48.2787 O.2       13 UNK        -0.5000 
     79 N          -1.0064  -25.6103  -48.6261 N.am      14 UNK        -0.5000 
     80 CA         -1.9883  -25.7976  -49.6933 C.3       14 UNK         0.1400 
     81 CB         -2.2222  -24.4409  -50.3738 C.3       14 UNK        -0.1800 
     82 C          -3.3352  -26.3686  -49.2091 C.2       14 UNK         0.5000 
     83 O          -4.1367  -26.7852  -50.0440 O.2       14 UNK        -0.5000 
     84 N          -3.5849  -26.3371  -47.8913 N.am      15 UNK        -0.5000 
     85 CA         -4.8418  -26.6890  -47.2214 C.3       15 UNK         0.1400 
     86 CB         -5.1189  -28.2028  -47.3300 C.3       15 UNK        -0.1800 
     87 C          -6.0192  -25.8133  -47.7037 C.2       15 UNK         0.5000 
     88 O          -7.1087  -26.3212  -47.9740 O.2       15 UNK        -0.5000 
     89 N          -5.7496  -24.5051  -47.8206 N.am      16 UNK        -0.5000 
     90 CA         -6.6411  -23.4311  -48.2677 C.3       16 UNK         0.1400 
     91 CB         -7.8552  -23.2871  -47.3268 C.3       16 UNK        -0.1800 
     92 C          -7.0461  -23.4940  -49.7570 C.2       16 UNK         0.5000 
     93 O          -7.9633  -22.7754  -50.1589 O.2       16 UNK        -0.5000 
     94 N          -6.3559  -24.3105  -50.5671 N.am      17 UNK        -0.5000 
     95 CA         -6.5180  -24.3533  -52.0199 C.3       17 UNK         0.1400 
     96 CB         -5.9254  -25.6609  -52.5691 C.3       17 UNK        -0.1800 
     97 C          -5.8407  -23.1253  -52.6503 C.2       17 UNK         0.5000 
     98 O          -4.6123  -23.0945  -52.7462 O.2       17 UNK        -0.5000 
     99 N          -6.6460  -22.1297  -53.0462 N.am      18 UNK        -0.5000 
    100 CA        -6.2116  -20.8171  -53.5402 C.3       18 UNK         0.1400 
    101 CB        -7.4409  -19.9959  -53.9546 C.3       18 UNK        -0.1800 
    102 C         -5.1888  -20.8710  -54.6899 C.2       18 UNK         0.5000 
    103 O         -4.2375  -20.0903  -54.6952 O.2       18 UNK        -0.5000 
    104 N         -5.3701  -21.8279  -55.6099 N.am      19 UNK        -0.5000 
    105 CA        -4.4910  -22.0715  -56.7560 C.3       19 UNK         0.1400 
    106 CB        -5.1330  -23.1379  -57.6564 C.3       19 UNK        -0.1800 
    107 C         -3.0538  -22.4840  -56.3757 C.2       19 UNK         0.5000 
    108 O         -2.1320  -22.2192  -57.1481 O.2       19 UNK        -0.5000 
    109 N         -2.8877  -23.1129  -55.2050 N.am      20 UNK        -0.5000 
    110 CA        -1.5916  -23.4959  -54.6477 C.3       20 UNK         0.1400 
    111 CB        -1.7034  -24.9025  -54.0391 C.3       20 UNK        -0.1800 
    112 C         -1.1016  -22.4776  -53.6029 C.2       20 UNK         0.5000 
    113 O          0.1033  -22.2400  -53.5148 O.2       20 UNK        -0.5000 
    114 N         -2.0330  -21.8971  -52.8330 N.am      21 UNK        -0.5000 
    115 CA        -1.7602  -20.9264  -51.7736 C.3       21 UNK         0.1400 
    116 CB        -3.0467  -20.6772  -50.9738 C.3       21 UNK        -0.1800 
    117 C         -1.2194  -19.5837  -52.2919 C.2       21 UNK         0.5000 
    118 O         -0.3205  -19.0151  -51.6706 O.2       21 UNK        -0.5000 
    119 N         -1.7941  -19.0903  -53.3945 N.am      22 UNK        -0.5000 
    120 CA        -1.5517  -17.7358  -53.9125 C.3       22 UNK         0.1400 
    121 C         -1.7720  -17.5738  -55.4417 C.2       22 UNK         0.5000 
    122 N         -2.5265  -18.4356  -56.1100 N.am      22 UNK        -0.7600 
    123 O         -1.2216  -16.6552  -56.0431 O.2       22 UNK        -0.5000 
    124 C124       -2.3081  -16.6546  -53.0924 C.3       23 UNK        -0.0398 
    125 S125       -4.1058  -16.9689  -52.9417 S.3       23 UNK        -0.2404 
    126 C126       -4.5945  -15.7458  -51.6865 C.3       23 UNK        -0.0205 
    127 H127        1.0242   -9.2098  -49.7562 H         1 UNK         0.0600 
    128 H128       -0.4653   -8.7052  -50.5467 H         1 UNK         0.0600 
    129 H129       -0.0887  -10.4159  -50.4297 H         1 UNK         0.0600 
    130 H130       -1.0969  -10.5545  -46.8633 H         1 UNK         0.3000 
    131 H131        0.1831  -12.0993  -48.9039 H         1 UNK         0.0600 
    132 H132        0.1110  -12.4425  -45.8641 H         1 UNK         0.0800 
    133 H133        0.7767  -13.6155  -46.9648 H         1 UNK         0.0800 
    134 H134       -0.6856  -15.7469  -47.3072 H         1 UNK         0.0800 
    135 H135       -0.5414  -14.8622  -48.8080 H         1 UNK         0.0800 
    136 H136       -2.4104  -14.7412  -50.4016 H         1 UNK         0.1150 
    137 H137       -5.6365  -17.5181  -49.8894 H         1 UNK         0.1150 
    138 H138       -2.8183  -16.8855  -46.7170 H         1 UNK         0.1150 
    139 H139       -4.9193  -18.0850  -46.2835 H         1 UNK         0.0800 
    140 H140       -6.1377  -18.1996  -47.5222 H         1 UNK         0.0800 
    141 H141       -2.9976  -20.0604  -45.8665 H         1 UNK         0.0800 
    142 H142       -2.3980  -19.2058  -47.2570 H         1 UNK         0.0800 
    143 H143       -2.4211  -21.5962  -48.4296 H         1 UNK         0.0600 
    144 H144       -0.3780  -20.1927  -47.0557 H         1 UNK         0.3000 
    145 H145        2.3079  -22.3217  -47.7624 H         1 UNK         0.0600 
    146 H146        3.2250  -20.4827  -49.1518 H         1 UNK         0.0600 
    147 H147        1.9924  -21.3527  -50.0508 H         1 UNK         0.0600 
    148 H148        1.6145  -19.7872  -49.3456 H         1 UNK         0.0600 
    149 H149        2.4029  -19.6498  -46.9610 H         1 UNK         0.3000 
    150 H150        3.0008  -20.1160  -43.8838 H         1 UNK         0.0600 
    151 H151        3.4144  -18.4432  -45.5769 H         1 UNK         0.0600 
    152 H152        2.5804  -17.6194  -44.2766 H         1 UNK         0.0600 
    153 H153        1.7077  -18.0416  -45.7331 H         1 UNK         0.0600 
    154 H154        0.2971  -18.9283  -43.7224 H         1 UNK         0.3000 
    155 H155       -0.9570  -21.0143  -41.4620 H         1 UNK         0.0600 
    156 H156        0.4750  -18.7624  -39.9695 H         1 UNK         0.0600 
    157 H157        0.5606  -20.4740  -39.5772 H         1 UNK         0.0600 
    158 H158       -0.9639  -19.6180  -39.4297 H         1 UNK         0.0600 
    159 H159       -1.0310  -18.0705  -41.7972 H         1 UNK         0.3000 
    160 H160       -3.3034  -18.2153  -44.4749 H         1 UNK         0.0600 
    161 H161       -4.1069  -17.5059  -41.6060 H         1 UNK         0.0600 
    162 H162       -4.9581  -18.6362  -42.6525 H         1 UNK         0.0600 
    163 H163       -4.8939  -16.9336  -43.0782 H         1 UNK         0.0600 
    164 H164       -2.5079  -16.0505  -42.8094 H         1 UNK         0.3000 
    165 H165       -0.0011  -14.9764  -44.9488 H         1 UNK         0.0600 
    166 H166       -1.5288  -14.3158  -42.3695 H         1 UNK         0.0600 
    167 H167       -0.6820  -13.1889  -43.4191 H         1 UNK         0.0600 
    168 H168       -2.1235  -14.0007  -44.0005 H         1 UNK         0.0600 
    169 H169        1.6840  -14.9625  -43.5275 H         1 UNK         0.3000 
    170 H170        2.1261  -15.6128  -40.1596 H         1 UNK         0.0600 
    171 H171        2.4646  -18.0155  -40.8984 H         1 UNK         0.0600 
    172 H172        3.4566  -17.4372  -42.2275 H         1 UNK         0.0600 
    173 H173        3.9581  -17.1607  -40.5665 H         1 UNK         0.0600 
    174 H174        3.9712  -15.1095  -42.3292 H         1 UNK         0.3000 
    175 H175        3.3595  -11.6901  -42.6858 H         1 UNK         0.0600 
    176 H176        5.7176  -12.8624  -41.1141 H         1 UNK         0.0600 
    177 H177        5.6962  -11.3085  -41.9497 H         1 UNK         0.0600 
    178 H178        4.6634  -11.5697  -40.5542 H         1 UNK         0.0600 
    179 H179        5.5585  -13.2033  -43.5777 H         1 UNK         0.3000 
    180 H180        5.7572  -13.9453  -45.6271 H         1 UNK         0.0600 
    181 H181        5.0228  -15.9928  -46.8392 H         1 UNK         0.0600 
    182 H182        3.3840  -15.8008  -46.2193 H         1 UNK         0.0600 
    183 H183        4.7118  -16.1528  -45.1178 H         1 UNK         0.0600 
    184 H184        3.5293  -13.7580  -47.5495 H         1 UNK         0.3000 
    185 H185        4.2698  -10.4347  -48.5177 H         1 UNK         0.0600 
    186 H186        4.2996  -11.4547  -50.7791 H         1 UNK         0.0600 
    187 H187        5.8091  -11.7825  -49.9437 H         1 UNK         0.0600 
    188 H188        4.5972  -13.0497  -50.0868 H         1 UNK         0.0600 
    189 H189        2.3397  -12.4076  -49.3434 H         1 UNK         0.3000 
    190 H190       -0.8961  -22.1709  -45.2747 H         1 UNK         0.3000 
    191 H191       -2.8411  -24.1532  -44.4126 H         1 UNK         0.0600 
    192 H192       -1.1743  -24.5780  -42.6071 H         1 UNK         0.0600 
    193 H193       -1.5561  -22.8716  -42.7511 H         1 UNK         0.0600 
    194 H194       -0.0309  -23.4911  -43.3843 H         1 UNK         0.0600 
    195 H195        0.3278  -24.1690  -46.0504 H         1 UNK         0.3000 
    196 H196        0.6697  -27.0142  -46.1508 H         1 UNK         0.0600 
    197 H197        1.8433  -24.8224  -47.9469 H         1 UNK         0.0600 
    198 H198        2.5495  -25.4014  -46.4386 H         1 UNK         0.0600 
    199 H199        2.4245  -26.4763  -47.8229 H         1 UNK         0.0600 
    200 H200       -0.7947  -24.6462  -48.3820 H         1 UNK         0.3000 
    201 H201       -1.5790  -26.4921  -50.4295 H         1 UNK         0.0600 
    202 H202       -2.5628  -23.6915  -49.6601 H         1 UNK         0.0600 
    203 H203       -2.9832  -24.5116  -51.1493 H         1 UNK         0.0600 
    204 H204       -1.3098  -24.0701  -50.8406 H         1 UNK         0.0600 
    205 H205       -2.8638  -25.9634  -47.2894 H         1 UNK         0.3000 
    206 H206       -4.6997  -26.4552  -46.1653 H         1 UNK         0.0600 
    207 H207       -4.2696  -28.7840  -46.9708 H         1 UNK         0.0600 
    208 H208       -5.9830  -28.4846  -46.7275 H         1 UNK         0.0600 
    209 H209       -5.3238  -28.5072  -48.3567 H         1 UNK         0.0600 
    210 H210       -4.8165  -24.1920  -47.5541 H         1 UNK         0.3000 
    211 H211       -6.0535  -22.5189  -48.1718 H         1 UNK         0.0600 
    212 H212       -8.4197  -22.3815  -47.5516 H         1 UNK         0.0600 
    213 H213       -7.5405  -23.2189  -46.2854 H         1 UNK         0.0600 
    214 H214       -8.5418  -24.1289  -47.4175 H         1 UNK         0.0600 
    215 H215       -5.6197  -24.8830  -50.1770 H         1 UNK         0.3000 
    216 H216       -7.5829  -24.3423  -52.2616 H         1 UNK         0.0600 
    217 H217       -4.8522  -25.7301  -52.3902 H         1 UNK         0.0600 
    218 H218       -6.0807  -25.7355  -53.6460 H         1 UNK         0.0600 
    219 H219       -6.3957  -26.5305  -52.1098 H         1 UNK         0.0600 
    220 H220       -7.6389  -22.2356  -52.8938 H         1 UNK         0.3000 
    221 H221       -5.7389  -20.2996  -52.7058 H         1 UNK         0.0600 
    222 H222       -8.1216  -19.8536  -53.1150 H         1 UNK         0.0600 
    223 H223       -7.9958  -20.4783  -54.7601 H         1 UNK         0.0600 
    224 H224       -7.1478  -19.0046  -54.3037 H         1 UNK         0.0600 
    225 H225       -6.1684  -22.4379  -55.5126 H         1 UNK         0.3000 
    226 H226       -4.4223  -21.1411  -57.3234 H         1 UNK         0.0600 
    227 H227       -5.2545  -24.0864  -57.1317 H         1 UNK         0.0600 
    228 H228       -6.1144  -22.8193  -58.0084 H         1 UNK         0.0600 
    229 H229       -4.5190  -23.3267  -58.5381 H         1 UNK         0.0600 
    230 H230       -3.6928  -23.2501  -54.6053 H         1 UNK         0.3000 
    231 H231       -0.8372  -23.5388  -55.4362 H         1 UNK         0.0600 
    232 H232       -2.5279  -24.9717  -53.3311 H         1 UNK         0.0600 
    233 H233       -0.7889  -25.1814  -53.5140 H         1 UNK         0.0600 
    234 H234       -1.8739  -25.6489  -54.8149 H         1 UNK         0.0600 
    235 H235       -2.9983  -22.2013  -52.9247 H         1 UNK         0.3000 
    236 H236       -1.0151  -21.3591  -51.1023 H         1 UNK         0.0600 
    237 H237       -3.4611  -21.6012  -50.5720 H         1 UNK         0.0600 
    238 H238       -2.8557  -20.0022  -50.1391 H         1 UNK         0.0600 
    239 H239       -3.8125  -20.2078  -51.5883 H         1 UNK         0.0600 
    240 H240       -2.5499  -19.6056  -53.8327 H         1 UNK         0.3000 
    241 H241       -0.4853  -17.5385  -53.7851 H         1 UNK         0.0600 
    242 H242       -2.6395  -18.3169  -57.1036 H         1 UNK         0.3800 
    243 H243       -3.0941  -19.1232  -55.6194 H         1 UNK         0.3800 
    244 H244       -2.1531  -15.6610  -53.5161 H         1 UNK         0.0800 
    245 H245       -1.8807  -16.6184  -52.0907 H         1 UNK         0.0800 
    246 H246       -4.2477  -14.7567  -51.9899 H         1 UNK         0.0800 
    247 H247       -5.6836  -15.6889  -51.6608 H         1 UNK         0.0800 
@<TRIPOS>BOND
     1    1    2 1    
     2    1  127 1    
     3    1  128 1    
     4    1  129 1    
     5    2    3 2    
     6    2    4 am   BACKBONE|DICT|INTERRES
     7    4    5 1    
     8    4  130 1    
     9    5    6 1    
    10    5   65 1    
    11    5  131 1    
    12    6    7 1    
    13    6  132 1    
    14    6  133 1    
    15    7    8 1    
    16    8    9 1    
    17    8  134 1    
    18    8  135 1    
    19    9   10 ar   
    20    9   14 ar   
    21   10   11 ar   
    22   10  136 1    
    23   11   12 ar   
    24   11  126 1    
    25   12   13 ar   
    26   12  137 1    
    27   13   14 ar   
    28   13   15 1    
    29   14  138 1    
    30   15   16 1    
    31   15  139 1    
    32   15  140 1    
    33   16   17 1    
    34   17   18 1    
    35   17  141 1    
    36   17  142 1    
    37   18   19 1    
    38   18   67 1    
    39   18  143 1    
    40   19   20 am   BACKBONE|DICT|INTERRES
    41   19  144 1    
    42   20   21 2    
    43   20   22 1    
    44   22   23 1    
    45   22   24 1    
    46   22  145 1    
    47   23  146 1    
    48   23  147 1    
    49   23  148 1    
    50   24   25 am   BACKBONE|DICT|INTERRES
    51   24  149 1    
    52   25   26 2    
    53   25   27 1    
    54   27   28 1    
    55   27   29 1    
    56   27  150 1    
    57   28  151 1    
    58   28  152 1    
    59   28  153 1    
    60   29   30 am   BACKBONE|DICT|INTERRES
    61   29  154 1    
    62   30   31 2    
    63   30   32 1    
    64   32   33 1    
    65   32   34 1    
    66   32  155 1    
    67   33  156 1    
    68   33  157 1    
    69   33  158 1    
    70   34   35 am   BACKBONE|DICT|INTERRES
    71   34  159 1    
    72   35   36 2    
    73   35   37 1    
    74   37   38 1    
    75   37   39 1    
    76   37  160 1    
    77   38  161 1    
    78   38  162 1    
    79   38  163 1    
    80   39   40 am   BACKBONE|DICT|INTERRES
    81   39  164 1    
    82   40   41 2    
    83   40   42 1    
    84   42   43 1    
    85   42   44 1    
    86   42  165 1    
    87   43  166 1    
    88   43  167 1    
    89   43  168 1    
    90   44   45 am   BACKBONE|DICT|INTERRES
    91   44  169 1    
    92   45   46 2    
    93   45   47 1    
    94   47   48 1    
    95   47   49 1    
    96   47  170 1    
    97   48  171 1    
    98   48  172 1    
    99   48  173 1    
   100   49   50 am   BACKBONE|DICT|INTERRES
   101   49  174 1    
   102   50   51 2    
   103   50   52 1    
   104   52   53 1    
   105   52   54 1    
   106   52  175 1    
   107   53  176 1    
   108   53  177 1    
   109   53  178 1    
   110   54   55 am   BACKBONE|DICT|INTERRES
   111   54  179 1    
   112   55   56 2    
   113   55   57 1    
   114   57   58 1    
   115   57   59 1    
   116   57  180 1    
   117   58  181 1    
   118   58  182 1    
   119   58  183 1    
   120   59   60 am   BACKBONE|DICT|INTERRES
   121   59  184 1    
   122   60   61 2    
   123   60   62 1    
   124   62   63 1    
   125   62   64 1    
   126   62  185 1    
   127   63  186 1    
   128   63  187 1    
   129   63  188 1    
   130   64   65 am   BACKBONE|DICT|INTERRES
   131   64  189 1    
   132   65   66 2    
   133   67   68 2    
   134   67   69 am   BACKBONE|DICT|INTERRES
   135   69   70 1    
   136   69  190 1    
   137   70   71 1    
   138   70   72 1    
   139   70  191 1    
   140   71  192 1    
   141   71  193 1    
   142   71  194 1    
   143   72   73 2    
   144   72   74 am   BACKBONE|DICT|INTERRES
   145   74   75 1    
   146   74  195 1    
   147   75   76 1    
   148   75   77 1    
   149   75  196 1    
   150   76  197 1    
   151   76  198 1    
   152   76  199 1    
   153   77   78 2    
   154   77   79 am   BACKBONE|DICT|INTERRES
   155   79   80 1    
   156   79  200 1    
   157   80   81 1    
   158   80   82 1    
   159   80  201 1    
   160   81  202 1    
   161   81  203 1    
   162   81  204 1    
   163   82   83 2    
   164   82   84 am   BACKBONE|DICT|INTERRES
   165   84   85 1    
   166   84  205 1    
   167   85   86 1    
   168   85   87 1    
   169   85  206 1    
   170   86  207 1    
   171   86  208 1    
   172   86  209 1    
   173   87   88 2    
   174   87   89 am   BACKBONE|DICT|INTERRES
   175   89   90 1    
   176   89  210 1    
   177   90   91 1    
   178   90   92 1    
   179   90  211 1    
   180   91  212 1    
   181   91  213 1    
   182   91  214 1    
   183   92   93 2    
   184   92   94 am   BACKBONE|DICT|INTERRES
   185   94   95 1    
   186   94  215 1    
   187   95   96 1    
   188   95   97 1    
   189   95  216 1    
   190   96  217 1    
   191   96  218 1    
   192   96  219 1    
   193   97   98 2    
   194   97   99 am   BACKBONE|DICT|INTERRES
   195   99  100 1    
   196   99  220 1    
   197  100  101 1    
   198  100  102 1    
   199  100  221 1    
   200  101  222 1    
   201  101  223 1    
   202  101  224 1    
   203  102  103 2    
   204  102  104 am   BACKBONE|DICT|INTERRES
   205  104  105 1    
   206  104  225 1    
   207  105  106 1    
   208  105  107 1    
   209  105  226 1    
   210  106  227 1    
   211  106  228 1    
   212  106  229 1    
   213  107  108 2    
   214  107  109 am   BACKBONE|DICT|INTERRES
   215  109  110 1    
   216  109  230 1    
   217  110  111 1    
   218  110  112 1    
   219  110  231 1    
   220  111  232 1    
   221  111  233 1    
   222  111  234 1    
   223  112  113 2    
   224  112  114 am   BACKBONE|DICT|INTERRES
   225  114  115 1    
   226  114  235 1    
   227  115  116 1    
   228  115  117 1    
   229  115  236 1    
   230  116  237 1    
   231  116  238 1    
   232  116  239 1    
   233  117  118 2    
   234  117  119 am   BACKBONE|DICT|INTERRES
   235  119  120 1    
   236  119  240 1    
   237  120  121 1    
   238  120  124 1    
   239  120  241 1    
   240  121  122 am   BACKBONE|DICT|INTERRES
   241  121  123 2    
   242  122  242 1    
   243  122  243 1    
   244  124  125 1    
   245  124  244 1    
   246  124  245 1    
   247  125  126 1    
   248  126  246 1    
   249  126  247 1    
@<TRIPOS>SUBSTRUCTURE
     1 UNK         1 GROUP             0       ****    0 ROOT    
