@<TRIPOS>MOLECULE
3R540
247   249    1
SMALL
USER_CHARGES


@<TRIPOS>ATOM
      1 CA         -1.4119  -11.9171  -52.0870 C.3       0 UNK        -0.1800 
      2 C          -0.3898  -12.2883  -51.0230 C.2       0 UNK         0.5000 
      3 O          -0.5180  -11.8677  -49.8752 O.2       0 UNK        -0.5000 
      4 N           0.6074  -13.0992  -51.3902 N.am      1 UNK        -0.5000 
      5 CA          1.6307  -13.6544  -50.5005 C.3       1 UNK         0.1400 
      6 C6          2.7438  -14.3549  -51.3170 C.3       23 UNK        -0.0398 
      7 S7          4.2248  -14.7500  -50.3263 S.3       23 UNK        -0.2404 
      8 C8          4.6749  -16.3979  -50.9643 C.3       23 UNK        -0.0205 
      9 C9          3.6226  -17.4620  -50.6770 C.ar      23 UNK        -0.0193 
     10 C10         3.0045  -18.1454  -51.7296 C.ar      23 UNK        -0.1150 
     11 C11         2.0578  -19.1423  -51.4735 C.ar      23 UNK        -0.0193 
     12 C12         1.7373  -19.4577  -50.1501 C.ar      23 UNK        -0.1150 
     13 C13         2.3481  -18.7841  -49.0895 C.ar      23 UNK        -0.0193 
     14 C14         3.2900  -17.7879  -49.3591 C.ar      23 UNK        -0.1150 
     15 C15         1.9912  -19.1263  -47.6525 C.3       23 UNK        -0.0205 
     16 S16         3.1148  -20.3791  -46.9606 S.3       23 UNK        -0.2404 
     17 C17         2.4548  -21.9023  -47.7200 C.3       23 UNK        -0.0398 
     18 CA          2.9148  -23.1909  -46.9924 C.3       11 UNK         0.1400 
     19 N           2.6517  -23.1630  -45.5483 N.am      11 UNK        -0.5000 
     20 C           3.2554  -23.9559  -44.6495 C.2       10 UNK         0.5000 
     21 O           4.1275  -24.7741  -44.9443 O.2       10 UNK        -0.5000 
     22 CA          2.8283  -23.8217  -43.1741 C.3       10 UNK         0.1400 
     23 CB          3.8373  -22.9581  -42.4017 C.3       10 UNK        -0.1800 
     24 N           1.4887  -23.2527  -43.0239 N.am      10 UNK        -0.5000 
     25 C           0.3534  -23.9420  -43.2163 C.2       9 UNK         0.5000 
     26 O           0.3306  -25.1544  -43.4279 O.2       9 UNK        -0.5000 
     27 CA         -0.9792  -23.1598  -43.1781 C.3       9 UNK         0.1400 
     28 CB         -1.7011  -23.3920  -41.8429 C.3       9 UNK        -0.1800 
     29 N          -0.8364  -21.7183  -43.3935 N.am      9 UNK        -0.5000 
     30 C          -0.3403  -21.1380  -44.4955 C.2       8 UNK         0.5000 
     31 O          -0.0125  -21.7617  -45.5044 O.2       8 UNK        -0.5000 
     32 CA         -0.1187  -19.6133  -44.4407 C.3       8 UNK         0.1400 
     33 CB         -1.2950  -18.8876  -45.1063 C.3       8 UNK        -0.1800 
     34 N           0.0866  -19.0715  -43.0898 N.am      8 UNK        -0.5000 
     35 C           1.0476  -19.4580  -42.2358 C.2       7 UNK         0.5000 
     36 O           1.8610  -20.3447  -42.4958 O.2       7 UNK        -0.5000 
     37 CA          1.0938  -18.7435  -40.8736 C.3       7 UNK         0.1400 
     38 CB          2.4004  -19.0142  -40.1050 C.3       7 UNK        -0.1800 
     39 N           0.9419  -17.3030  -41.0605 N.am      7 UNK        -0.5000 
     40 C          -0.0433  -16.5451  -40.5639 C.2       6 UNK         0.5000 
     41 O          -0.9581  -16.9791  -39.8633 O.2       6 UNK        -0.5000 
     42 CA         -0.0037  -15.0451  -40.9181 C.3       6 UNK         0.1400 
     43 CB          0.6063  -14.2369  -39.7625 C.3       6 UNK        -0.1800 
     44 N           0.7485  -14.7633  -42.1446 N.am      6 UNK        -0.5000 
     45 C           0.3192  -15.0579  -43.3783 C.2       5 UNK         0.5000 
     46 O          -0.7678  -15.5869  -43.6143 O.2       5 UNK        -0.5000 
     47 CA          1.2790  -14.7256  -44.5358 C.3       5 UNK         0.1400 
     48 CB          1.6303  -15.9925  -45.3322 C.3       5 UNK        -0.1800 
     49 N           0.7200  -13.7248  -45.4421 N.am      5 UNK        -0.5000 
     50 C           0.4095  -12.4648  -45.1064 C.2       4 UNK         0.5000 
     51 O           0.6131  -11.9823  -43.9914 O.2       4 UNK        -0.5000 
     52 CA         -0.2279  -11.5878  -46.1992 C.3       4 UNK         0.1400 
     53 CB          0.8606  -10.8948  -47.0331 C.3       4 UNK        -0.1800 
     54 N          -1.1164  -12.3342  -47.0898 N.am      4 UNK        -0.5000 
     55 C          -2.3105  -12.8344  -46.7404 C.2       3 UNK         0.5000 
     56 O          -2.8145  -12.6879  -45.6265 O.2       3 UNK        -0.5000 
     57 CA         -3.0665  -13.6375  -47.8152 C.3       3 UNK         0.1400 
     58 CB         -3.8278  -12.7062  -48.7710 C.3       3 UNK        -0.1800 
     59 N          -2.1617  -14.4927  -48.5819 N.am      3 UNK        -0.5000 
     60 C          -1.6962  -15.6708  -48.1443 C.2       2 UNK         0.5000 
     61 O          -2.0585  -16.1972  -47.0943 O.2       2 UNK        -0.5000 
     62 CA         -0.6487  -16.3841  -49.0192 C.3       2 UNK         0.1400 
     63 CB         -1.3146  -17.4638  -49.8802 C.3       2 UNK        -0.1800 
     64 N           0.0990  -15.4712  -49.8843 N.am      2 UNK        -0.5000 
     65 C           1.0034  -14.5869  -49.4421 C.2       1 UNK         0.5000 
     66 O           1.2913  -14.4458  -48.2534 O.2       1 UNK        -0.5000 
     67 C           2.2612  -24.4336  -47.6283 C.2       11 UNK         0.5000 
     68 O           2.8924  -25.1240  -48.4293 O.2       11 UNK        -0.5000 
     69 N           1.0192  -24.7067  -47.2170 N.am      12 UNK        -0.5000 
     70 CA          0.2280  -25.8896  -47.5254 C.3       12 UNK         0.1400 
     71 CB         -0.3196  -25.8209  -48.9613 C.3       12 UNK        -0.1800 
     72 C          -0.9103  -25.9226  -46.5007 C.2       12 UNK         0.5000 
     73 O          -1.4046  -24.8557  -46.1313 O.2       12 UNK        -0.5000 
     74 N          -1.3185  -27.1227  -46.0691 N.am      13 UNK        -0.5000 
     75 CA         -2.2480  -27.3518  -44.9525 C.3       13 UNK         0.1400 
     76 CB         -2.4033  -28.8650  -44.7367 C.3       13 UNK        -0.1800 
     77 C          -3.6333  -26.6865  -45.0913 C.2       13 UNK         0.5000 
     78 O          -4.2517  -26.3571  -44.0791 O.2       13 UNK        -0.5000 
     79 N          -4.0802  -26.4760  -46.3358 N.am      14 UNK        -0.5000 
     80 CA         -5.3234  -25.7833  -46.6836 C.3       14 UNK         0.1400 
     81 CB         -5.8501  -26.3732  -48.0035 C.3       14 UNK        -0.1800 
     82 C          -5.1602  -24.2489  -46.7818 C.2       14 UNK         0.5000 
     83 O          -6.0608  -23.5835  -47.2953 O.2       14 UNK        -0.5000 
     84 N          -4.0066  -23.7141  -46.3508 N.am      15 UNK        -0.5000 
     85 CA         -3.5792  -22.3137  -46.4477 C.3       15 UNK         0.1400 
     86 CB         -4.4589  -21.3971  -45.5733 C.3       15 UNK        -0.1800 
     87 C          -3.4826  -21.8562  -47.9146 C.2       15 UNK         0.5000 
     88 O          -4.0140  -20.8065  -48.2788 O.2       15 UNK        -0.5000 
     89 N          -2.8577  -22.7109  -48.7398 N.am      16 UNK        -0.5000 
     90 CA         -2.7650  -22.6144  -50.2019 C.3       16 UNK         0.1400 
     91 CB         -1.8621  -21.4353  -50.6142 C.3       16 UNK        -0.1800 
     92 C          -4.1554  -22.5840  -50.8720 C.2       16 UNK         0.5000 
     93 O          -4.3971  -21.7704  -51.7623 O.2       16 UNK        -0.5000 
     94 N          -5.0536  -23.4561  -50.3865 N.am      17 UNK        -0.5000 
     95 CA         -6.4715  -23.5685  -50.7506 C.3       17 UNK         0.1400 
     96 CB         -6.6248  -24.1251  -52.1806 C.3       17 UNK        -0.1800 
     97 C          -7.2362  -22.2486  -50.5175 C.2       17 UNK         0.5000 
     98 O          -7.9430  -21.7726  -51.4071 O.2       17 UNK        -0.5000 
     99 N          -7.0435  -21.6786  -49.3186 N.am      18 UNK        -0.5000 
    100 CA        -7.5172  -20.3653  -48.8725 C.3       18 UNK         0.1400 
    101 CB        -9.0522  -20.3608  -48.7155 C.3       18 UNK        -0.1800 
    102 C         -6.9874  -19.2197  -49.7630 C.2       18 UNK         0.5000 
    103 O         -7.7665  -18.3978  -50.2499 O.2       18 UNK        -0.5000 
    104 N         -5.6598  -19.2029  -49.9505 N.am      19 UNK        -0.5000 
    105 CA        -4.8782  -18.2439  -50.7358 C.3       19 UNK         0.1400 
    106 CB        -4.8810  -16.8594  -50.0508 C.3       19 UNK        -0.1800 
    107 C         -5.2832  -18.1868  -52.2244 C.2       19 UNK         0.5000 
    108 O         -5.4365  -17.0996  -52.7859 O.2       19 UNK        -0.5000 
    109 N         -5.4449  -19.3599  -52.8487 N.am      20 UNK        -0.5000 
    110 CA        -5.7221  -19.4964  -54.2759 C.3       20 UNK         0.1400 
    111 CB        -6.2356  -20.9140  -54.5664 C.3       20 UNK        -0.1800 
    112 C         -4.4567  -19.2001  -55.0980 C.2       20 UNK         0.5000 
    113 O         -3.3964  -19.7554  -54.8028 O.2       20 UNK        -0.5000 
    114 N         -4.5975  -18.3366  -56.1126 N.am      21 UNK        -0.5000 
    115 CA        -3.5802  -17.8547  -57.0582 C.3       21 UNK         0.1400 
    116 CB        -2.9781  -19.0081  -57.8847 C.3       21 UNK        -0.1800 
    117 C         -2.4799  -16.9838  -56.4187 C.2       21 UNK         0.5000 
    118 O         -2.2757  -15.8530  -56.8618 O.2       21 UNK        -0.5000 
    119 N         -1.8030  -17.5105  -55.3934 N.am      22 UNK        -0.5000 
    120 CA        -0.7547  -16.8291  -54.6192 C.3       22 UNK         0.1400 
    121 C         -1.2794  -15.9612  -53.4397 C.2       22 UNK         0.5000 
    122 N         -2.5815  -15.8195  -53.2293 N.am      22 UNK        -0.7600 
    123 O         -0.4837  -15.3897  -52.7024 O.2       22 UNK        -0.5000 
    124 C124        0.3720  -17.8021  -54.1856 C.3       23 UNK        -0.0398 
    125 S125       -0.1862  -19.1790  -53.1251 S.3       23 UNK        -0.2404 
    126 C126        1.4048  -19.9061  -52.6182 C.3       23 UNK        -0.0205 
    127 H127       -1.1846  -12.3836  -53.0460 H         1 UNK         0.0600 
    128 H128       -1.4310  -10.8366  -52.2280 H         1 UNK         0.0600 
    129 H129       -2.4065  -12.2407  -51.7809 H         1 UNK         0.0600 
    130 H130        0.5780  -13.5018  -52.3184 H         1 UNK         0.3000 
    131 H131        2.0800  -12.8127  -49.9688 H         1 UNK         0.0600 
    132 H132        2.3550  -15.2533  -51.7992 H         1 UNK         0.0800 
    133 H133        3.0707  -13.7022  -52.1275 H         1 UNK         0.0800 
    134 H134        5.6158  -16.7050  -50.5060 H         1 UNK         0.0800 
    135 H135        4.8687  -16.3207  -52.0353 H         1 UNK         0.0800 
    136 H136        3.2685  -17.9093  -52.7506 H         1 UNK         0.1150 
    137 H137        1.0103  -20.2289  -49.9451 H         1 UNK         0.1150 
    138 H138        3.7682  -17.2660  -48.5420 H         1 UNK         0.1150 
    139 H139        2.0559  -18.2273  -47.0402 H         1 UNK         0.0800 
    140 H140        0.9568  -19.4668  -47.5829 H         1 UNK         0.0800 
    141 H141        2.7762  -21.9262  -48.7627 H         1 UNK         0.0800 
    142 H142        1.3656  -21.8390  -47.7383 H         1 UNK         0.0800 
    143 H143        3.9943  -23.2786  -47.1343 H         1 UNK         0.0600 
    144 H144        1.9201  -22.5324  -45.2440 H         1 UNK         0.3000 
    145 H145        2.8355  -24.8208  -42.7333 H         1 UNK         0.0600 
    146 H146        4.8266  -23.4172  -42.4080 H         1 UNK         0.0600 
    147 H147        3.9371  -21.9650  -42.8411 H         1 UNK         0.0600 
    148 H148        3.5407  -22.8366  -41.3598 H         1 UNK         0.0600 
    149 H149        1.4452  -22.2544  -42.8421 H         1 UNK         0.3000 
    150 H150       -1.6152  -23.5491  -43.9728 H         1 UNK         0.0600 
    151 H151       -2.6806  -22.9132  -41.8353 H         1 UNK         0.0600 
    152 H152       -1.1269  -23.0013  -41.0019 H         1 UNK         0.0600 
    153 H153       -1.8615  -24.4565  -41.6662 H         1 UNK         0.0600 
    154 H154       -1.0739  -21.1233  -42.6141 H         1 UNK         0.3000 
    155 H155        0.7854  -19.3993  -45.0124 H         1 UNK         0.0600 
    156 H156       -1.4552  -19.2437  -46.1252 H         1 UNK         0.0600 
    157 H157       -1.1117  -17.8157  -45.1654 H         1 UNK         0.0600 
    158 H158       -2.2236  -19.0358  -44.5544 H         1 UNK         0.0600 
    159 H159       -0.5315  -18.3231  -42.8086 H         1 UNK         0.3000 
    160 H160        0.2675  -19.1457  -40.2843 H         1 UNK         0.0600 
    161 H161        2.5276  -20.0796  -39.9081 H         1 UNK         0.0600 
    162 H162        2.4015  -18.5054  -39.1409 H         1 UNK         0.0600 
    163 H163        3.2737  -18.6754  -40.6638 H         1 UNK         0.0600 
    164 H164        1.6336  -16.8559  -41.6446 H         1 UNK         0.3000 
    165 H165       -1.0340  -14.7122  -41.0611 H         1 UNK         0.0600 
    166 H166        0.5799  -13.1673  -39.9722 H         1 UNK         0.0600 
    167 H167        0.0519  -14.3988  -38.8371 H         1 UNK         0.0600 
    168 H168        1.6437  -14.5183  -39.5771 H         1 UNK         0.0600 
    169 H169        1.6391  -14.3005  -42.0305 H         1 UNK         0.3000 
    170 H170        2.2053  -14.3209  -44.1231 H         1 UNK         0.0600 
    171 H171        2.4004  -15.7887  -46.0766 H         1 UNK         0.0600 
    172 H172        2.0094  -16.7789  -44.6782 H         1 UNK         0.0600 
    173 H173        0.7594  -16.3895  -45.8548 H         1 UNK         0.0600 
    174 H174        0.5799  -14.0167  -46.4036 H         1 UNK         0.3000 
    175 H175       -0.8176  -10.8149  -45.7019 H         1 UNK         0.0600 
    176 H176        1.4628  -11.6167  -47.5864 H         1 UNK         0.0600 
    177 H177        0.4239  -10.2026  -47.7532 H         1 UNK         0.0600 
    178 H178        1.5355  -10.3202  -46.3975 H         1 UNK         0.0600 
    179 H179       -0.8074  -12.4284  -48.0528 H         1 UNK         0.3000 
    180 H180       -3.8019  -14.2669  -47.3091 H         1 UNK         0.0600 
    181 H181       -4.3821  -13.2752  -49.5176 H         1 UNK         0.0600 
    182 H182       -3.1583  -12.0249  -49.2960 H         1 UNK         0.0600 
    183 H183       -4.5491  -12.0971  -48.2249 H         1 UNK         0.0600 
    184 H184       -1.7894  -14.1167  -49.4407 H         1 UNK         0.3000 
    185 H185        0.0595  -16.8735  -48.3479 H         1 UNK         0.0600 
    186 H186       -1.8782  -18.1661  -49.2645 H         1 UNK         0.0600 
    187 H187       -1.9981  -17.0292  -50.6078 H         1 UNK         0.0600 
    188 H188       -0.5738  -18.0372  -50.4319 H         1 UNK         0.0600 
    189 H189       -0.1059  -15.5040  -50.8812 H         1 UNK         0.3000 
    190 H190        0.5724  -24.0883  -46.5482 H         1 UNK         0.3000 
    191 H191        0.8491  -26.7791  -47.4032 H         1 UNK         0.0600 
    192 H192       -0.8969  -24.9121  -49.1251 H         1 UNK         0.0600 
    193 H193       -0.9693  -26.6704  -49.1750 H         1 UNK         0.0600 
    194 H194        0.4866  -25.8387  -49.6946 H         1 UNK         0.0600 
    195 H195       -0.8764  -27.9478  -46.4482 H         1 UNK         0.3000 
    196 H196       -1.7841  -26.9291  -44.0589 H         1 UNK         0.0600 
    197 H197       -3.0664  -29.0755  -43.8964 H         1 UNK         0.0600 
    198 H198       -1.4441  -29.3332  -44.5150 H         1 UNK         0.0600 
    199 H199       -2.8225  -29.3550  -45.6165 H         1 UNK         0.0600 
    200 H200       -3.4989  -26.7782  -47.1037 H         1 UNK         0.3000 
    201 H201       -6.0701  -25.9742  -45.9103 H         1 UNK         0.0600 
    202 H202       -5.9822  -27.4525  -47.9254 H         1 UNK         0.0600 
    203 H203       -5.1710  -26.1795  -48.8342 H         1 UNK         0.0600 
    204 H204       -6.8224  -25.9529  -48.2629 H         1 UNK         0.0600 
    205 H205       -3.2877  -24.3467  -46.0131 H         1 UNK         0.3000 
    206 H206       -2.5662  -22.2747  -46.0507 H         1 UNK         0.0600 
    207 H207       -4.0829  -20.3738  -45.5821 H         1 UNK         0.0600 
    208 H208       -5.4912  -21.3660  -45.9225 H         1 UNK         0.0600 
    209 H209       -4.4639  -21.7324  -44.5362 H         1 UNK         0.0600 
    210 H210       -2.4567  -23.5393  -48.3241 H         1 UNK         0.3000 
    211 H211       -2.2850  -23.5298  -50.5494 H         1 UNK         0.0600 
    212 H212       -2.2863  -20.4735  -50.3277 H         1 UNK         0.0600 
    213 H213       -1.7141  -21.4174  -51.6944 H         1 UNK         0.0600 
    214 H214       -0.8794  -21.5202  -50.1533 H         1 UNK         0.0600 
    215 H215       -4.7588  -24.0447  -49.6230 H         1 UNK         0.3000 
    216 H216       -6.9127  -24.2963  -50.0689 H         1 UNK         0.0600 
    217 H217       -7.6747  -24.2878  -52.4266 H         1 UNK         0.0600 
    218 H218       -6.1149  -25.0826  -52.2861 H         1 UNK         0.0600 
    219 H219       -6.2158  -23.4453  -52.9268 H         1 UNK         0.0600 
    220 H220       -6.4767  -22.1865  -48.6456 H         1 UNK         0.3000 
    221 H221       -7.0862  -20.2075  -47.8826 H         1 UNK         0.0600 
    222 H222       -9.5605  -20.4809  -49.6725 H         1 UNK         0.0600 
    223 H223       -9.3824  -21.1643  -48.0571 H         1 UNK         0.0600 
    224 H224       -9.3956  -19.4221  -48.2793 H         1 UNK         0.0600 
    225 H225       -5.1087  -19.9137  -49.4724 H         1 UNK         0.3000 
    226 H226       -3.8547  -18.6173  -50.7255 H         1 UNK         0.0600 
    227 H227       -4.5197  -16.9279  -49.0246 H         1 UNK         0.0600 
    228 H228       -4.2330  -16.1566  -50.5747 H         1 UNK         0.0600 
    229 H229       -5.8790  -16.4213  -50.0264 H         1 UNK         0.0600 
    230 H230       -5.2139  -20.2198  -52.3543 H         1 UNK         0.3000 
    231 H231       -6.5082  -18.7881  -54.5460 H         1 UNK         0.0600 
    232 H232       -5.4799  -21.6665  -54.3389 H         1 UNK         0.0600 
    233 H233       -7.1248  -21.1412  -53.9785 H         1 UNK         0.0600 
    234 H234       -6.5017  -21.0245  -55.6182 H         1 UNK         0.0600 
    235 H235       -5.5103  -17.9222  -56.2420 H         1 UNK         0.3000 
    236 H236       -4.1173  -17.2102  -57.7561 H         1 UNK         0.0600 
    237 H237       -2.4060  -19.7023  -57.2687 H         1 UNK         0.0600 
    238 H238       -3.7569  -19.5760  -58.3935 H         1 UNK         0.0600 
    239 H239       -2.3032  -18.6240  -58.6505 H         1 UNK         0.0600 
    240 H240       -2.0808  -18.4318  -55.0622 H         1 UNK         0.3000 
    241 H241       -0.2779  -16.1071  -55.2844 H         1 UNK         0.0600 
    242 H242       -3.2560  -16.2895  -53.8115 H         1 UNK         0.3800 
    243 H243       -2.9009  -15.2330  -52.4784 H         1 UNK         0.3800 
    244 H244        0.8395  -18.2308  -55.0727 H         1 UNK         0.0800 
    245 H245        1.1615  -17.2523  -53.6729 H         1 UNK         0.0800 
    246 H246        1.2295  -20.9381  -52.3106 H         1 UNK         0.0800 
    247 H247        2.0767  -19.9587  -53.4761 H         1 UNK         0.0800 
@<TRIPOS>BOND
     1    1    2 1    
     2    1  127 1    
     3    1  128 1    
     4    1  129 1    
     5    2    3 2    
     6    2    4 am   BACKBONE|DICT|INTERRES
     7    4    5 1    
     8    4  130 1    
     9    5    6 1    
    10    5   65 1    
    11    5  131 1    
    12    6    7 1    
    13    6  132 1    
    14    6  133 1    
    15    7    8 1    
    16    8    9 1    
    17    8  134 1    
    18    8  135 1    
    19    9   10 ar   
    20    9   14 ar   
    21   10   11 ar   
    22   10  136 1    
    23   11   12 ar   
    24   11  126 1    
    25   12   13 ar   
    26   12  137 1    
    27   13   14 ar   
    28   13   15 1    
    29   14  138 1    
    30   15   16 1    
    31   15  139 1    
    32   15  140 1    
    33   16   17 1    
    34   17   18 1    
    35   17  141 1    
    36   17  142 1    
    37   18   19 1    
    38   18   67 1    
    39   18  143 1    
    40   19   20 am   BACKBONE|DICT|INTERRES
    41   19  144 1    
    42   20   21 2    
    43   20   22 1    
    44   22   23 1    
    45   22   24 1    
    46   22  145 1    
    47   23  146 1    
    48   23  147 1    
    49   23  148 1    
    50   24   25 am   BACKBONE|DICT|INTERRES
    51   24  149 1    
    52   25   26 2    
    53   25   27 1    
    54   27   28 1    
    55   27   29 1    
    56   27  150 1    
    57   28  151 1    
    58   28  152 1    
    59   28  153 1    
    60   29   30 am   BACKBONE|DICT|INTERRES
    61   29  154 1    
    62   30   31 2    
    63   30   32 1    
    64   32   33 1    
    65   32   34 1    
    66   32  155 1    
    67   33  156 1    
    68   33  157 1    
    69   33  158 1    
    70   34   35 am   BACKBONE|DICT|INTERRES
    71   34  159 1    
    72   35   36 2    
    73   35   37 1    
    74   37   38 1    
    75   37   39 1    
    76   37  160 1    
    77   38  161 1    
    78   38  162 1    
    79   38  163 1    
    80   39   40 am   BACKBONE|DICT|INTERRES
    81   39  164 1    
    82   40   41 2    
    83   40   42 1    
    84   42   43 1    
    85   42   44 1    
    86   42  165 1    
    87   43  166 1    
    88   43  167 1    
    89   43  168 1    
    90   44   45 am   BACKBONE|DICT|INTERRES
    91   44  169 1    
    92   45   46 2    
    93   45   47 1    
    94   47   48 1    
    95   47   49 1    
    96   47  170 1    
    97   48  171 1    
    98   48  172 1    
    99   48  173 1    
   100   49   50 am   BACKBONE|DICT|INTERRES
   101   49  174 1    
   102   50   51 2    
   103   50   52 1    
   104   52   53 1    
   105   52   54 1    
   106   52  175 1    
   107   53  176 1    
   108   53  177 1    
   109   53  178 1    
   110   54   55 am   BACKBONE|DICT|INTERRES
   111   54  179 1    
   112   55   56 2    
   113   55   57 1    
   114   57   58 1    
   115   57   59 1    
   116   57  180 1    
   117   58  181 1    
   118   58  182 1    
   119   58  183 1    
   120   59   60 am   BACKBONE|DICT|INTERRES
   121   59  184 1    
   122   60   61 2    
   123   60   62 1    
   124   62   63 1    
   125   62   64 1    
   126   62  185 1    
   127   63  186 1    
   128   63  187 1    
   129   63  188 1    
   130   64   65 am   BACKBONE|DICT|INTERRES
   131   64  189 1    
   132   65   66 2    
   133   67   68 2    
   134   67   69 am   BACKBONE|DICT|INTERRES
   135   69   70 1    
   136   69  190 1    
   137   70   71 1    
   138   70   72 1    
   139   70  191 1    
   140   71  192 1    
   141   71  193 1    
   142   71  194 1    
   143   72   73 2    
   144   72   74 am   BACKBONE|DICT|INTERRES
   145   74   75 1    
   146   74  195 1    
   147   75   76 1    
   148   75   77 1    
   149   75  196 1    
   150   76  197 1    
   151   76  198 1    
   152   76  199 1    
   153   77   78 2    
   154   77   79 am   BACKBONE|DICT|INTERRES
   155   79   80 1    
   156   79  200 1    
   157   80   81 1    
   158   80   82 1    
   159   80  201 1    
   160   81  202 1    
   161   81  203 1    
   162   81  204 1    
   163   82   83 2    
   164   82   84 am   BACKBONE|DICT|INTERRES
   165   84   85 1    
   166   84  205 1    
   167   85   86 1    
   168   85   87 1    
   169   85  206 1    
   170   86  207 1    
   171   86  208 1    
   172   86  209 1    
   173   87   88 2    
   174   87   89 am   BACKBONE|DICT|INTERRES
   175   89   90 1    
   176   89  210 1    
   177   90   91 1    
   178   90   92 1    
   179   90  211 1    
   180   91  212 1    
   181   91  213 1    
   182   91  214 1    
   183   92   93 2    
   184   92   94 am   BACKBONE|DICT|INTERRES
   185   94   95 1    
   186   94  215 1    
   187   95   96 1    
   188   95   97 1    
   189   95  216 1    
   190   96  217 1    
   191   96  218 1    
   192   96  219 1    
   193   97   98 2    
   194   97   99 am   BACKBONE|DICT|INTERRES
   195   99  100 1    
   196   99  220 1    
   197  100  101 1    
   198  100  102 1    
   199  100  221 1    
   200  101  222 1    
   201  101  223 1    
   202  101  224 1    
   203  102  103 2    
   204  102  104 am   BACKBONE|DICT|INTERRES
   205  104  105 1    
   206  104  225 1    
   207  105  106 1    
   208  105  107 1    
   209  105  226 1    
   210  106  227 1    
   211  106  228 1    
   212  106  229 1    
   213  107  108 2    
   214  107  109 am   BACKBONE|DICT|INTERRES
   215  109  110 1    
   216  109  230 1    
   217  110  111 1    
   218  110  112 1    
   219  110  231 1    
   220  111  232 1    
   221  111  233 1    
   222  111  234 1    
   223  112  113 2    
   224  112  114 am   BACKBONE|DICT|INTERRES
   225  114  115 1    
   226  114  235 1    
   227  115  116 1    
   228  115  117 1    
   229  115  236 1    
   230  116  237 1    
   231  116  238 1    
   232  116  239 1    
   233  117  118 2    
   234  117  119 am   BACKBONE|DICT|INTERRES
   235  119  120 1    
   236  119  240 1    
   237  120  121 1    
   238  120  124 1    
   239  120  241 1    
   240  121  122 am   BACKBONE|DICT|INTERRES
   241  121  123 2    
   242  122  242 1    
   243  122  243 1    
   244  124  125 1    
   245  124  244 1    
   246  124  245 1    
   247  125  126 1    
   248  126  246 1    
   249  126  247 1    
@<TRIPOS>SUBSTRUCTURE
     1 UNK         1 GROUP             0       ****    0 ROOT    
