@<TRIPOS>MOLECULE
3R540
247   249    1
SMALL
USER_CHARGES


@<TRIPOS>ATOM
      1 CA         -0.5410  -12.1746  -40.2273 C.3       0 UNK        -0.1800 
      2 C          -1.0954  -12.4392  -41.6199 C.2       0 UNK         0.5000 
      3 O          -1.5144  -13.5614  -41.8978 O.2       0 UNK        -0.5000 
      4 N          -1.0710  -11.4121  -42.4819 N.am      1 UNK        -0.5000 
      5 CA         -1.5355  -11.3196  -43.8778 C.3       1 UNK         0.1400 
      6 C6         -3.0822  -11.2966  -44.0519 C.3       23 UNK        -0.0398 
      7 S7         -3.9569  -12.8997  -43.9213 S.3       23 UNK        -0.2404 
      8 C8         -4.3878  -13.2640  -45.6571 C.3       23 UNK        -0.0205 
      9 C9         -4.0516  -14.6989  -46.0433 C.ar      23 UNK        -0.0193 
     10 C10        -3.1570  -14.9583  -47.0863 C.ar      23 UNK        -0.1150 
     11 C11        -2.8536  -16.2730  -47.4552 C.ar      23 UNK        -0.0193 
     12 C12        -3.4572  -17.3347  -46.7766 C.ar      23 UNK        -0.1150 
     13 C13        -4.3564  -17.0891  -45.7343 C.ar      23 UNK        -0.0193 
     14 C14        -4.6525  -15.7708  -45.3766 C.ar      23 UNK        -0.1150 
     15 C15        -5.0280  -18.2423  -45.0056 C.3       23 UNK        -0.0205 
     16 S16        -4.1780  -18.6752  -43.4512 S.3       23 UNK        -0.2404 
     17 C17        -2.5411  -19.2704  -44.0077 C.3       23 UNK        -0.0398 
     18 CA         -2.5734  -20.5313  -44.9044 C.3       11 UNK         0.1400 
     19 N          -1.2665  -20.8006  -45.5113 N.am      11 UNK        -0.5000 
     20 C          -1.0606  -21.6780  -46.5032 C.2       10 UNK         0.5000 
     21 O          -1.9583  -22.3324  -47.0292 O.2       10 UNK        -0.5000 
     22 CA          0.3897  -21.8980  -46.9535 C.3       10 UNK         0.1400 
     23 CB          0.8077  -20.8293  -47.9707 C.3       10 UNK        -0.1800 
     24 N           1.3072  -21.9005  -45.8153 N.am      10 UNK        -0.5000 
     25 C           1.3980  -22.9148  -44.9412 C.2       9 UNK         0.5000 
     26 O           0.7686  -23.9669  -45.0526 O.2       9 UNK        -0.5000 
     27 CA          2.3076  -22.7072  -43.7147 C.3       9 UNK         0.1400 
     28 CB          3.7526  -23.1127  -44.0403 C.3       9 UNK        -0.1800 
     29 N           2.2952  -21.3315  -43.2162 N.am      9 UNK        -0.5000 
     30 C           1.2154  -20.6967  -42.7387 C.2       8 UNK         0.5000 
     31 O           0.1137  -21.2281  -42.6095 O.2       8 UNK        -0.5000 
     32 CA          1.3734  -19.2029  -42.3982 C.3       8 UNK         0.1400 
     33 CB          1.6309  -19.0181  -40.8960 C.3       8 UNK        -0.1800 
     34 N           2.4309  -18.5268  -43.1558 N.am      8 UNK        -0.5000 
     35 C           2.4607  -18.3939  -44.4890 C.2       7 UNK         0.5000 
     36 O           1.5986  -18.8651  -45.2345 O.2       7 UNK        -0.5000 
     37 CA          3.6550  -17.5960  -45.0457 C.3       7 UNK         0.1400 
     38 CB          4.9978  -18.3103  -44.7835 C.3       7 UNK        -0.1800 
     39 N           3.5040  -17.2158  -46.4550 N.am      7 UNK        -0.5000 
     40 C           3.5788  -17.9991  -47.5404 C.2       6 UNK         0.5000 
     41 O           3.8593  -19.1978  -47.5031 O.2       6 UNK        -0.5000 
     42 CA          3.3209  -17.3428  -48.9114 C.3       6 UNK         0.1400 
     43 CB          2.1893  -18.0545  -49.6758 C.3       6 UNK        -0.1800 
     44 N           3.0164  -15.9072  -48.8486 N.am      6 UNK        -0.5000 
     45 C           3.3839  -15.0274  -49.7905 C.2       5 UNK         0.5000 
     46 O           4.1783  -15.2878  -50.6954 O.2       5 UNK        -0.5000 
     47 CA          2.7373  -13.6339  -49.7473 C.3       5 UNK         0.1400 
     48 CB          1.2136  -13.7202  -49.9365 C.3       5 UNK        -0.1800 
     49 N           3.0213  -12.9177  -48.5049 N.am      5 UNK        -0.5000 
     50 C           3.5703  -11.6947  -48.4484 C.2       4 UNK         0.5000 
     51 O           4.0244  -11.1074  -49.4318 O.2       4 UNK        -0.5000 
     52 CA          3.5914  -10.9684  -47.0872 C.3       4 UNK         0.1400 
     53 CB          2.6288   -9.7695  -47.1056 C.3       4 UNK        -0.1800 
     54 N           3.2263  -11.8285  -45.9646 N.am      4 UNK        -0.5000 
     55 C           4.0695  -12.6515  -45.3301 C.2       3 UNK         0.5000 
     56 O           5.2665  -12.7466  -45.6013 O.2       3 UNK        -0.5000 
     57 CA          3.4725  -13.5342  -44.2169 C.3       3 UNK         0.1400 
     58 CB          3.6978  -12.8876  -42.8418 C.3       3 UNK        -0.1800 
     59 N           2.0426  -13.8243  -44.3686 N.am      3 UNK        -0.5000 
     60 C           1.4540  -14.4156  -45.4182 C.2       2 UNK         0.5000 
     61 O           2.0596  -14.7912  -46.4222 O.2       2 UNK        -0.5000 
     62 CA         -0.0710  -14.5806  -45.3552 C.3       2 UNK         0.1400 
     63 CB         -0.4410  -15.9601  -44.7937 C.3       2 UNK        -0.1800 
     64 N          -0.7170  -13.5459  -44.5508 N.am      2 UNK        -0.5000 
     65 C          -0.8089  -12.2516  -44.8745 C.2       1 UNK         0.5000 
     66 O          -0.3157  -11.7764  -45.8984 O.2       1 UNK        -0.5000 
     67 C          -3.1393  -21.7727  -44.1813 C.2       11 UNK         0.5000 
     68 O          -4.3144  -22.0934  -44.3604 O.2       11 UNK        -0.5000 
     69 N          -2.2787  -22.4999  -43.4548 N.am      12 UNK        -0.5000 
     70 CA         -2.5921  -23.7789  -42.8100 C.3       12 UNK         0.1400 
     71 CB         -1.3909  -24.2194  -41.9602 C.3       12 UNK        -0.1800 
     72 C          -2.9884  -24.8902  -43.8049 C.2       12 UNK         0.5000 
     73 O          -3.7825  -25.7634  -43.4549 O.2       12 UNK        -0.5000 
     74 N          -2.4574  -24.8161  -45.0322 N.am      13 UNK        -0.5000 
     75 CA         -2.7908  -25.6912  -46.1564 C.3       13 UNK         0.1400 
     76 CB         -1.5376  -25.8535  -47.0338 C.3       13 UNK        -0.1800 
     77 C          -3.9807  -25.1716  -46.9925 C.2       13 UNK         0.5000 
     78 O          -4.2899  -25.7726  -48.0222 O.2       13 UNK        -0.5000 
     79 N          -4.6038  -24.0563  -46.5785 N.am      14 UNK        -0.5000 
     80 CA         -5.6993  -23.3483  -47.2518 C.3       14 UNK         0.1400 
     81 CB         -6.9895  -24.1942  -47.2293 C.3       14 UNK        -0.1800 
     82 C          -5.3136  -22.8737  -48.6683 C.2       14 UNK         0.5000 
     83 O          -6.0891  -23.0386  -49.6106 O.2       14 UNK        -0.5000 
     84 N          -4.0904  -22.3388  -48.7973 N.am      15 UNK        -0.5000 
     85 CA         -3.4250  -21.9319  -50.0389 C.3       15 UNK         0.1400 
     86 CB         -4.1398  -20.7258  -50.6775 C.3       15 UNK        -0.1800 
     87 C          -3.2290  -23.1207  -51.0025 C.2       15 UNK         0.5000 
     88 O          -3.4451  -22.9882  -52.2100 O.2       15 UNK        -0.5000 
     89 N          -2.8518  -24.2690  -50.4178 N.am      16 UNK        -0.5000 
     90 CA         -2.7353  -25.5978  -51.0267 C.3       16 UNK         0.1400 
     91 CB         -1.5836  -25.6342  -52.0512 C.3       16 UNK        -0.1800 
     92 C          -4.0817  -26.0659  -51.6112 C.2       16 UNK         0.5000 
     93 O          -4.1551  -26.4215  -52.7863 O.2       16 UNK        -0.5000 
     94 N          -5.1399  -25.9861  -50.7905 N.am      17 UNK        -0.5000 
     95 CA         -6.5493  -26.1948  -51.1526 C.3       17 UNK         0.1400 
     96 CB         -6.8259  -27.6914  -51.4024 C.3       17 UNK        -0.1800 
     97 C          -6.9912  -25.2914  -52.3278 C.2       17 UNK         0.5000 
     98 O          -7.6482  -25.7522  -53.2628 O.2       17 UNK        -0.5000 
     99 N          -6.5632  -24.0235  -52.2620 N.am      18 UNK        -0.5000 
    100 CA        -6.7035  -22.9510  -53.2499 C.3       18 UNK         0.1400 
    101 CB        -8.1890  -22.5988  -53.4681 C.3       18 UNK        -0.1800 
    102 C         -5.9545  -23.1743  -54.5839 C.2       18 UNK         0.5000 
    103 O         -6.1343  -22.3698  -55.4995 O.2       18 UNK        -0.5000 
    104 N         -5.1204  -24.2202  -54.6944 N.am      19 UNK        -0.5000 
    105 CA        -4.3639  -24.5267  -55.9113 C.3       19 UNK         0.1400 
    106 CB        -3.9402  -26.0028  -55.9138 C.3       19 UNK        -0.1800 
    107 C         -3.1365  -23.6178  -56.0969 C.2       19 UNK         0.5000 
    108 O         -2.7955  -23.3012  -57.2375 O.2       19 UNK        -0.5000 
    109 N         -2.4963  -23.2113  -54.9906 N.am      20 UNK        -0.5000 
    110 CA        -1.3661  -22.2795  -55.0070 C.3       20 UNK         0.1400 
    111 CB        -0.4390  -22.5502  -53.8115 C.3       20 UNK        -0.1800 
    112 C         -1.8428  -20.8190  -54.9995 C.2       20 UNK         0.5000 
    113 O         -1.1544  -19.9580  -55.5487 O.2       20 UNK        -0.5000 
    114 N         -3.0020  -20.5675  -54.3686 N.am      21 UNK        -0.5000 
    115 CA        -3.7112  -19.2816  -54.2915 C.3       21 UNK         0.1400 
    116 CB        -4.3233  -18.9374  -55.6645 C.3       21 UNK        -0.1800 
    117 C         -2.8557  -18.1292  -53.7140 C.2       21 UNK         0.5000 
    118 O         -3.0185  -16.9769  -54.1188 O.2       21 UNK        -0.5000 
    119 N         -1.9443  -18.4777  -52.7944 N.am      22 UNK        -0.5000 
    120 CA        -0.9252  -17.6027  -52.1873 C.3       22 UNK         0.1400 
    121 C          0.2069  -17.1586  -53.1675 C.2       22 UNK         0.5000 
    122 N          0.3600  -17.7650  -54.3393 N.am      22 UNK        -0.7600 
    123 O          0.9851  -16.2633  -52.8523 O.2       22 UNK        -0.5000 
    124 C124       -1.5177  -16.4008  -51.3969 C.3       23 UNK        -0.0398 
    125 S125       -2.7601  -16.8726  -50.1430 S.3       23 UNK        -0.2404 
    126 C126       -1.8753  -16.5426  -48.5870 C.3       23 UNK        -0.0205 
    127 H127        0.3028  -12.8353  -40.0283 H         1 UNK         0.0600 
    128 H128       -1.3084  -12.3649  -39.4769 H         1 UNK         0.0600 
    129 H129       -0.2013  -11.1451  -40.1123 H         1 UNK         0.0600 
    130 H130       -0.6750  -10.5471  -42.1405 H         1 UNK         0.3000 
    131 H131       -1.2081  -10.3186  -44.1645 H         1 UNK         0.0600 
    132 H132       -3.5127  -10.6328  -43.3013 H         1 UNK         0.0800 
    133 H133       -3.3312  -10.8304  -45.0059 H         1 UNK         0.0800 
    134 H134       -5.4563  -13.0968  -45.7988 H         1 UNK         0.0800 
    135 H135       -3.8793  -12.5710  -46.3282 H         1 UNK         0.0800 
    136 H136       -2.6947  -14.1357  -47.6136 H         1 UNK         0.1150 
    137 H137       -3.2292  -18.3498  -47.0684 H         1 UNK         0.1150 
    138 H138       -5.3490  -15.5770  -44.5728 H         1 UNK         0.1150 
    139 H139       -6.0548  -17.9625  -44.7652 H         1 UNK         0.0800 
    140 H140       -5.1114  -19.1153  -45.6528 H         1 UNK         0.0800 
    141 H141       -1.9339  -19.4537  -43.1204 H         1 UNK         0.0800 
    142 H142       -2.0499  -18.4534  -44.5357 H         1 UNK         0.0800 
    143 H143       -3.2443  -20.3318  -45.7399 H         1 UNK         0.0600 
    144 H144       -0.4690  -20.3092  -45.1315 H         1 UNK         0.3000 
    145 H145        0.4443  -22.8705  -47.4475 H         1 UNK         0.0600 
    146 H146        1.8261  -21.0012  -48.3187 H         1 UNK         0.0600 
    147 H147        0.1569  -20.8451  -48.8459 H         1 UNK         0.0600 
    148 H148        0.7625  -19.8260  -47.5471 H         1 UNK         0.0600 
    149 H149        1.8159  -21.0422  -45.6412 H         1 UNK         0.3000 
    150 H150        1.9398  -23.3555  -42.9166 H         1 UNK         0.0600 
    151 H151        3.7978  -24.1424  -44.3977 H         1 UNK         0.0600 
    152 H152        4.3892  -23.0483  -43.1577 H         1 UNK         0.0600 
    153 H153        4.1848  -22.4769  -44.8143 H         1 UNK         0.0600 
    154 H154        3.1584  -20.8144  -43.2886 H         1 UNK         0.3000 
    155 H155        0.4293  -18.7129  -42.6443 H         1 UNK         0.0600 
    156 H156        0.8450  -19.4894  -40.3039 H         1 UNK         0.0600 
    157 H157        1.6493  -17.9622  -40.6254 H         1 UNK         0.0600 
    158 H158        2.5806  -19.4607  -40.5928 H         1 UNK         0.0600 
    159 H159        3.1728  -18.1159  -42.6076 H         1 UNK         0.3000 
    160 H160        3.6717  -16.6582  -44.4943 H         1 UNK         0.0600 
    161 H161        5.0086  -19.3245  -45.1834 H         1 UNK         0.0600 
    162 H162        5.2031  -18.3848  -43.7153 H         1 UNK         0.0600 
    163 H163        5.8284  -17.7644  -45.2311 H         1 UNK         0.0600 
    164 H164        3.2106  -16.2549  -46.5938 H         1 UNK         0.3000 
    165 H165        4.2474  -17.4899  -49.4701 H         1 UNK         0.0600 
    166 H166        2.0809  -17.6487  -50.6810 H         1 UNK         0.0600 
    167 H167        2.3938  -19.1196  -49.7845 H         1 UNK         0.0600 
    168 H168        1.2320  -17.9468  -49.1654 H         1 UNK         0.0600 
    169 H169        2.4080  -15.5986  -48.0970 H         1 UNK         0.3000 
    170 H170        3.1340  -13.0848  -50.6038 H         1 UNK         0.0600 
    171 H171        0.9703  -14.2400  -50.8631 H         1 UNK         0.0600 
    172 H172        0.7295  -14.2498  -49.1157 H         1 UNK         0.0600 
    173 H173        0.7696  -12.7266  -49.9978 H         1 UNK         0.0600 
    174 H174        2.7195  -13.3647  -47.6467 H         1 UNK         0.3000 
    175 H175        4.6036  -10.5878  -46.9344 H         1 UNK         0.0600 
    176 H176        1.5971  -10.0855  -47.2661 H         1 UNK         0.0600 
    177 H177        2.6683   -9.2171  -46.1666 H         1 UNK         0.0600 
    178 H178        2.8860   -9.0706  -47.9026 H         1 UNK         0.0600 
    179 H179        2.2527  -11.8250  -45.6931 H         1 UNK         0.3000 
    180 H180        4.0144  -14.4788  -44.2382 H         1 UNK         0.0600 
    181 H181        3.1543  -11.9467  -42.7464 H         1 UNK         0.0600 
    182 H182        4.7549  -12.6744  -42.6771 H         1 UNK         0.0600 
    183 H183        3.3724  -13.5469  -42.0369 H         1 UNK         0.0600 
    184 H184        1.4474  -13.5421  -43.6037 H         1 UNK         0.3000 
    185 H185       -0.4517  -14.5055  -46.3747 H         1 UNK         0.0600 
    186 H186       -0.0061  -16.1286  -43.8077 H         1 UNK         0.0600 
    187 H187       -1.5217  -16.0683  -44.7021 H         1 UNK         0.0600 
    188 H188       -0.0909  -16.7540  -45.4540 H         1 UNK         0.0600 
    189 H189       -1.1346  -13.8310  -43.6664 H         1 UNK         0.3000 
    190 H190       -1.3386  -22.1386  -43.3076 H         1 UNK         0.3000 
    191 H191       -3.4417  -23.6151  -42.1442 H         1 UNK         0.0600 
    192 H192       -0.5029  -24.3782  -42.5728 H         1 UNK         0.0600 
    193 H193       -1.1465  -23.4721  -41.2050 H         1 UNK         0.0600 
    194 H194       -1.6019  -25.1534  -41.4379 H         1 UNK         0.0600 
    195 H195       -1.8038  -24.0700  -45.2285 H         1 UNK         0.3000 
    196 H196       -3.0679  -26.6774  -45.7788 H         1 UNK         0.0600 
    197 H197       -0.6931  -26.2187  -46.4488 H         1 UNK         0.0600 
    198 H198       -1.2397  -24.9112  -47.4936 H         1 UNK         0.0600 
    199 H199       -1.7080  -26.5728  -47.8353 H         1 UNK         0.0600 
    200 H200       -4.2726  -23.6118  -45.7296 H         1 UNK         0.3000 
    201 H201       -5.8868  -22.4448  -46.6701 H         1 UNK         0.0600 
    202 H202       -7.8337  -23.6297  -47.6268 H         1 UNK         0.0600 
    203 H203       -7.2477  -24.4892  -46.2123 H         1 UNK         0.0600 
    204 H204       -6.8933  -25.1011  -47.8266 H         1 UNK         0.0600 
    205 H205       -3.4917  -22.3083  -47.9734 H         1 UNK         0.3000 
    206 H206       -2.4229  -21.6049  -49.7580 H         1 UNK         0.0600 
    207 H207       -4.2128  -19.8959  -49.9744 H         1 UNK         0.0600 
    208 H208       -5.1475  -20.9722  -51.0093 H         1 UNK         0.0600 
    209 H209       -3.5874  -20.3659  -51.5418 H         1 UNK         0.0600 
    210 H210       -2.7517  -24.2537  -49.4133 H         1 UNK         0.3000 
    211 H211       -2.4864  -26.2915  -50.2229 H         1 UNK         0.0600 
    212 H212       -0.6540  -25.2678  -51.6160 H         1 UNK         0.0600 
    213 H213       -1.4040  -26.6530  -52.3959 H         1 UNK         0.0600 
    214 H214       -1.8047  -25.0311  -52.9303 H         1 UNK         0.0600 
    215 H215       -4.9659  -25.7156  -49.8257 H         1 UNK         0.3000 
    216 H216       -7.1396  -25.8859  -50.2888 H         1 UNK         0.0600 
    217 H217       -7.8894  -27.8703  -51.5642 H         1 UNK         0.0600 
    218 H218       -6.2943  -28.0607  -52.2799 H         1 UNK         0.0600 
    219 H219       -6.5220  -28.2952  -50.5474 H         1 UNK         0.0600 
    220 H220       -6.0855  -23.7477  -51.4079 H         1 UNK         0.3000 
    221 H221       -6.2293  -22.0801  -52.7976 H         1 UNK         0.0600 
    222 H222       -8.7236  -23.3971  -53.9833 H         1 UNK         0.0600 
    223 H223       -8.6931  -22.4136  -52.5195 H         1 UNK         0.0600 
    224 H224       -8.2945  -21.6957  -54.0701 H         1 UNK         0.0600 
    225 H225       -4.9914  -24.8453  -53.9064 H         1 UNK         0.3000 
    226 H226       -5.0231  -24.3749  -56.7688 H         1 UNK         0.0600 
    227 H227       -4.7866  -26.6608  -55.7159 H         1 UNK         0.0600 
    228 H228       -3.5272  -26.2840  -56.8832 H         1 UNK         0.0600 
    229 H229       -3.1725  -26.2044  -55.1664 H         1 UNK         0.0600 
    230 H230       -2.8645  -23.4691  -54.0803 H         1 UNK         0.3000 
    231 H231       -0.7816  -22.4323  -55.9169 H         1 UNK         0.0600 
    232 H232        0.4218  -21.8805  -53.8294 H         1 UNK         0.0600 
    233 H233       -0.0536  -23.5693  -53.8358 H         1 UNK         0.0600 
    234 H234       -0.9441  -22.4027  -52.8578 H         1 UNK         0.0600 
    235 H235       -3.4583  -21.3501  -53.9185 H         1 UNK         0.3000 
    236 H236       -4.5369  -19.4256  -53.5936 H         1 UNK         0.0600 
    237 H237       -4.9365  -19.7577  -56.0381 H         1 UNK         0.0600 
    238 H238       -4.9652  -18.0581  -55.6007 H         1 UNK         0.0600 
    239 H239       -3.5533  -18.7293  -56.4081 H         1 UNK         0.0600 
    240 H240       -1.8768  -19.4536  -52.5507 H         1 UNK         0.3000 
    241 H241       -0.4149  -18.2329  -51.4585 H         1 UNK         0.0600 
    242 H242        1.1038  -17.4651  -54.9487 H         1 UNK         0.3800 
    243 H243       -0.2657  -18.5035  -54.6473 H         1 UNK         0.3800 
    244 H244       -0.7171  -15.8510  -50.9043 H         1 UNK         0.0800 
    245 H245       -1.9823  -15.6879  -52.0789 H         1 UNK         0.0800 
    246 H246       -1.2127  -15.6847  -48.7026 H         1 UNK         0.0800 
    247 H247       -1.2389  -17.3943  -48.3415 H         1 UNK         0.0800 
@<TRIPOS>BOND
     1    1    2 1    
     2    1  127 1    
     3    1  128 1    
     4    1  129 1    
     5    2    3 2    
     6    2    4 am   BACKBONE|DICT|INTERRES
     7    4    5 1    
     8    4  130 1    
     9    5    6 1    
    10    5   65 1    
    11    5  131 1    
    12    6    7 1    
    13    6  132 1    
    14    6  133 1    
    15    7    8 1    
    16    8    9 1    
    17    8  134 1    
    18    8  135 1    
    19    9   10 ar   
    20    9   14 ar   
    21   10   11 ar   
    22   10  136 1    
    23   11   12 ar   
    24   11  126 1    
    25   12   13 ar   
    26   12  137 1    
    27   13   14 ar   
    28   13   15 1    
    29   14  138 1    
    30   15   16 1    
    31   15  139 1    
    32   15  140 1    
    33   16   17 1    
    34   17   18 1    
    35   17  141 1    
    36   17  142 1    
    37   18   19 1    
    38   18   67 1    
    39   18  143 1    
    40   19   20 am   BACKBONE|DICT|INTERRES
    41   19  144 1    
    42   20   21 2    
    43   20   22 1    
    44   22   23 1    
    45   22   24 1    
    46   22  145 1    
    47   23  146 1    
    48   23  147 1    
    49   23  148 1    
    50   24   25 am   BACKBONE|DICT|INTERRES
    51   24  149 1    
    52   25   26 2    
    53   25   27 1    
    54   27   28 1    
    55   27   29 1    
    56   27  150 1    
    57   28  151 1    
    58   28  152 1    
    59   28  153 1    
    60   29   30 am   BACKBONE|DICT|INTERRES
    61   29  154 1    
    62   30   31 2    
    63   30   32 1    
    64   32   33 1    
    65   32   34 1    
    66   32  155 1    
    67   33  156 1    
    68   33  157 1    
    69   33  158 1    
    70   34   35 am   BACKBONE|DICT|INTERRES
    71   34  159 1    
    72   35   36 2    
    73   35   37 1    
    74   37   38 1    
    75   37   39 1    
    76   37  160 1    
    77   38  161 1    
    78   38  162 1    
    79   38  163 1    
    80   39   40 am   BACKBONE|DICT|INTERRES
    81   39  164 1    
    82   40   41 2    
    83   40   42 1    
    84   42   43 1    
    85   42   44 1    
    86   42  165 1    
    87   43  166 1    
    88   43  167 1    
    89   43  168 1    
    90   44   45 am   BACKBONE|DICT|INTERRES
    91   44  169 1    
    92   45   46 2    
    93   45   47 1    
    94   47   48 1    
    95   47   49 1    
    96   47  170 1    
    97   48  171 1    
    98   48  172 1    
    99   48  173 1    
   100   49   50 am   BACKBONE|DICT|INTERRES
   101   49  174 1    
   102   50   51 2    
   103   50   52 1    
   104   52   53 1    
   105   52   54 1    
   106   52  175 1    
   107   53  176 1    
   108   53  177 1    
   109   53  178 1    
   110   54   55 am   BACKBONE|DICT|INTERRES
   111   54  179 1    
   112   55   56 2    
   113   55   57 1    
   114   57   58 1    
   115   57   59 1    
   116   57  180 1    
   117   58  181 1    
   118   58  182 1    
   119   58  183 1    
   120   59   60 am   BACKBONE|DICT|INTERRES
   121   59  184 1    
   122   60   61 2    
   123   60   62 1    
   124   62   63 1    
   125   62   64 1    
   126   62  185 1    
   127   63  186 1    
   128   63  187 1    
   129   63  188 1    
   130   64   65 am   BACKBONE|DICT|INTERRES
   131   64  189 1    
   132   65   66 2    
   133   67   68 2    
   134   67   69 am   BACKBONE|DICT|INTERRES
   135   69   70 1    
   136   69  190 1    
   137   70   71 1    
   138   70   72 1    
   139   70  191 1    
   140   71  192 1    
   141   71  193 1    
   142   71  194 1    
   143   72   73 2    
   144   72   74 am   BACKBONE|DICT|INTERRES
   145   74   75 1    
   146   74  195 1    
   147   75   76 1    
   148   75   77 1    
   149   75  196 1    
   150   76  197 1    
   151   76  198 1    
   152   76  199 1    
   153   77   78 2    
   154   77   79 am   BACKBONE|DICT|INTERRES
   155   79   80 1    
   156   79  200 1    
   157   80   81 1    
   158   80   82 1    
   159   80  201 1    
   160   81  202 1    
   161   81  203 1    
   162   81  204 1    
   163   82   83 2    
   164   82   84 am   BACKBONE|DICT|INTERRES
   165   84   85 1    
   166   84  205 1    
   167   85   86 1    
   168   85   87 1    
   169   85  206 1    
   170   86  207 1    
   171   86  208 1    
   172   86  209 1    
   173   87   88 2    
   174   87   89 am   BACKBONE|DICT|INTERRES
   175   89   90 1    
   176   89  210 1    
   177   90   91 1    
   178   90   92 1    
   179   90  211 1    
   180   91  212 1    
   181   91  213 1    
   182   91  214 1    
   183   92   93 2    
   184   92   94 am   BACKBONE|DICT|INTERRES
   185   94   95 1    
   186   94  215 1    
   187   95   96 1    
   188   95   97 1    
   189   95  216 1    
   190   96  217 1    
   191   96  218 1    
   192   96  219 1    
   193   97   98 2    
   194   97   99 am   BACKBONE|DICT|INTERRES
   195   99  100 1    
   196   99  220 1    
   197  100  101 1    
   198  100  102 1    
   199  100  221 1    
   200  101  222 1    
   201  101  223 1    
   202  101  224 1    
   203  102  103 2    
   204  102  104 am   BACKBONE|DICT|INTERRES
   205  104  105 1    
   206  104  225 1    
   207  105  106 1    
   208  105  107 1    
   209  105  226 1    
   210  106  227 1    
   211  106  228 1    
   212  106  229 1    
   213  107  108 2    
   214  107  109 am   BACKBONE|DICT|INTERRES
   215  109  110 1    
   216  109  230 1    
   217  110  111 1    
   218  110  112 1    
   219  110  231 1    
   220  111  232 1    
   221  111  233 1    
   222  111  234 1    
   223  112  113 2    
   224  112  114 am   BACKBONE|DICT|INTERRES
   225  114  115 1    
   226  114  235 1    
   227  115  116 1    
   228  115  117 1    
   229  115  236 1    
   230  116  237 1    
   231  116  238 1    
   232  116  239 1    
   233  117  118 2    
   234  117  119 am   BACKBONE|DICT|INTERRES
   235  119  120 1    
   236  119  240 1    
   237  120  121 1    
   238  120  124 1    
   239  120  241 1    
   240  121  122 am   BACKBONE|DICT|INTERRES
   241  121  123 2    
   242  122  242 1    
   243  122  243 1    
   244  124  125 1    
   245  124  244 1    
   246  124  245 1    
   247  125  126 1    
   248  126  246 1    
   249  126  247 1    
@<TRIPOS>SUBSTRUCTURE
     1 UNK         1 GROUP             0       ****    0 ROOT    
