@<TRIPOS>MOLECULE
3R540
247   249    1
SMALL
USER_CHARGES


@<TRIPOS>ATOM
      1 CA          0.5082   -9.9157  -46.6376 C.3       0 UNK        -0.1800 
      2 C           0.8620  -10.6070  -47.9455 C.2       0 UNK         0.5000 
      3 O           1.6664  -10.0798  -48.7128 O.2       0 UNK        -0.5000 
      4 N           0.2456  -11.7659  -48.2114 N.am      1 UNK        -0.5000 
      5 CA          0.3796  -12.5240  -49.4588 C.3       1 UNK         0.1400 
      6 C6         -0.7548  -13.5622  -49.6463 C.3       23 UNK        -0.0398 
      7 S7         -1.0280  -14.6755  -48.2195 S.3       23 UNK        -0.2404 
      8 C8         -1.6439  -16.1629  -49.0648 C.3       23 UNK        -0.0205 
      9 C9         -0.5165  -17.0262  -49.6005 C.ar      23 UNK        -0.0193 
     10 C10        -0.1549  -16.9655  -50.9482 C.ar      23 UNK        -0.1150 
     11 C11         0.8593  -17.7863  -51.4481 C.ar      23 UNK        -0.0193 
     12 C12         1.5279  -18.6569  -50.5809 C.ar      23 UNK        -0.1150 
     13 C13         1.1698  -18.7297  -49.2304 C.ar      23 UNK        -0.0193 
     14 C14         0.1466  -17.9112  -48.7479 C.ar      23 UNK        -0.1150 
     15 C15         1.8994  -19.6765  -48.2890 C.3       23 UNK        -0.0205 
     16 S16         1.4695  -21.4156  -48.6017 S.3       23 UNK        -0.2404 
     17 C17        -0.2469  -21.5139  -47.9888 C.3       23 UNK        -0.0398 
     18 CA         -0.4438  -22.7390  -47.0640 C.3       11 UNK         0.1400 
     19 N          -0.4031  -22.3739  -45.6478 N.am      11 UNK        -0.5000 
     20 C          -0.3029  -23.2492  -44.6394 C.2       10 UNK         0.5000 
     21 O          -0.2551  -24.4697  -44.7978 O.2       10 UNK        -0.5000 
     22 CA         -0.3144  -22.6587  -43.2210 C.3       10 UNK         0.1400 
     23 CB          1.0336  -22.0038  -42.8824 C.3       10 UNK        -0.1800 
     24 N          -1.3911  -21.6811  -43.0689 N.am      10 UNK        -0.5000 
     25 C          -2.6888  -22.0024  -42.9750 C.2       9 UNK         0.5000 
     26 O          -3.1049  -23.1602  -42.9320 O.2       9 UNK        -0.5000 
     27 CA         -3.6919  -20.8351  -42.9526 C.3       9 UNK         0.1400 
     28 CB         -3.9089  -20.3332  -41.5174 C.3       9 UNK        -0.1800 
     29 N          -3.2769  -19.7158  -43.7995 N.am      9 UNK        -0.5000 
     30 C          -3.2549  -19.7508  -45.1399 C.2       8 UNK         0.5000 
     31 O          -3.5783  -20.7328  -45.8032 O.2       8 UNK        -0.5000 
     32 CA         -2.7521  -18.4904  -45.8646 C.3       8 UNK         0.1400 
     33 CB         -3.9124  -17.4999  -46.0492 C.3       8 UNK        -0.1800 
     34 N          -1.6491  -17.8268  -45.1671 N.am      8 UNK        -0.5000 
     35 C          -0.4740  -18.4011  -44.8611 C.2       7 UNK         0.5000 
     36 O          -0.1810  -19.5566  -45.1660 O.2       7 UNK        -0.5000 
     37 CA          0.5349  -17.5686  -44.0500 C.3       7 UNK         0.1400 
     38 CB          1.5632  -16.9304  -44.9922 C.3       7 UNK        -0.1800 
     39 N          -0.0903  -16.5238  -43.2387 N.am      7 UNK        -0.5000 
     40 C          -0.9606  -16.7428  -42.2400 C.2       6 UNK         0.5000 
     41 O          -1.2915  -17.8676  -41.8625 O.2       6 UNK        -0.5000 
     42 CA         -1.6037  -15.5071  -41.5780 C.3       6 UNK         0.1400 
     43 CB         -0.9251  -15.2079  -40.2329 C.3       6 UNK        -0.1800 
     44 N          -1.5630  -14.2990  -42.4058 N.am      6 UNK        -0.5000 
     45 C          -2.1468  -14.1482  -43.6042 C.2       5 UNK         0.5000 
     46 O          -2.8291  -15.0181  -44.1448 O.2       5 UNK        -0.5000 
     47 CA         -1.8741  -12.8226  -44.3419 C.3       5 UNK         0.1400 
     48 CB         -3.0253  -11.8313  -44.1188 C.3       5 UNK        -0.1800 
     49 N          -0.6093  -12.1896  -43.9481 N.am      5 UNK        -0.5000 
     50 C           0.6001  -12.6993  -44.2117 C.2       4 UNK         0.5000 
     51 O           0.7773  -13.7616  -44.8139 O.2       4 UNK        -0.5000 
     52 CA          1.8112  -11.9086  -43.7008 C.3       4 UNK         0.1400 
     53 CB          2.1205  -12.2720  -42.2397 C.3       4 UNK        -0.1800 
     54 N           2.9488  -12.2642  -44.5382 N.am      4 UNK        -0.5000 
     55 C           3.8618  -11.4248  -45.0404 C.2       3 UNK         0.5000 
     56 O           3.9261  -10.2272  -44.7638 O.2       3 UNK        -0.5000 
     57 CA          4.8367  -12.0303  -46.0606 C.3       3 UNK         0.1400 
     58 CB          5.9977  -12.7329  -45.3274 C.3       3 UNK        -0.1800 
     59 N           4.1012  -12.9544  -46.9258 N.am      3 UNK        -0.5000 
     60 C           4.5704  -13.6442  -47.9714 C.2       2 UNK         0.5000 
     61 O           5.7289  -13.5817  -48.3833 O.2       2 UNK        -0.5000 
     62 CA          3.5557  -14.5608  -48.6767 C.3       2 UNK         0.1400 
     63 CB          3.4997  -15.9250  -47.9763 C.3       2 UNK        -0.1800 
     64 N           2.2144  -13.9702  -48.6931 N.am      2 UNK        -0.5000 
     65 C           1.7889  -13.1249  -49.6407 C.2       1 UNK         0.5000 
     66 O           2.4668  -12.7938  -50.6150 O.2       1 UNK        -0.5000 
     67 C          -1.6937  -23.5638  -47.4401 C.2       11 UNK         0.5000 
     68 O          -1.5971  -24.4265  -48.3138 O.2       11 UNK        -0.5000 
     69 N          -2.8211  -23.3499  -46.7474 N.am      12 UNK        -0.5000 
     70 CA         -4.0353  -24.1587  -46.8747 C.3       12 UNK         0.1400 
     71 CB         -5.1709  -23.5285  -46.0545 C.3       12 UNK        -0.1800 
     72 C          -3.8441  -25.6342  -46.4742 C.2       12 UNK         0.5000 
     73 O          -4.5220  -26.4977  -47.0305 O.2       12 UNK        -0.5000 
     74 N          -2.9209  -25.9020  -45.5423 N.am      13 UNK        -0.5000 
     75 CA         -2.5269  -27.2538  -45.1558 C.3       13 UNK         0.1400 
     76 CB         -2.0853  -27.2569  -43.6836 C.3       13 UNK        -0.1800 
     77 C          -1.4088  -27.7905  -46.0660 C.2       13 UNK         0.5000 
     78 O          -1.4699  -28.9478  -46.4823 O.2       13 UNK        -0.5000 
     79 N          -0.4002  -26.9511  -46.3400 N.am      14 UNK        -0.5000 
     80 CA          0.8207  -27.3395  -47.0463 C.3       14 UNK         0.1400 
     81 CB          1.9171  -26.2989  -46.7714 C.3       14 UNK        -0.1800 
     82 C           0.6442  -27.5443  -48.5625 C.2       14 UNK         0.5000 
     83 O           1.2443  -28.4707  -49.1099 O.2       14 UNK        -0.5000 
     84 N          -0.1344  -26.6723  -49.2163 N.am      15 UNK        -0.5000 
     85 CA         -0.2605  -26.6102  -50.6764 C.3       15 UNK         0.1400 
     86 CB          0.4523  -25.3438  -51.1762 C.3       15 UNK        -0.1800 
     87 C          -1.7183  -26.6327  -51.1656 C.2       15 UNK         0.5000 
     88 O          -1.9539  -27.0218  -52.3101 O.2       15 UNK        -0.5000 
     89 N          -2.6659  -26.2062  -50.3186 N.am      16 UNK        -0.5000 
     90 CA         -4.1222  -26.1521  -50.5195 C.3       16 UNK         0.1400 
     91 CB         -4.7128  -27.5392  -50.8342 C.3       16 UNK        -0.1800 
     92 C          -4.5919  -25.0928  -51.5348 C.2       16 UNK         0.5000 
     93 O          -5.5052  -24.3296  -51.2255 O.2       16 UNK        -0.5000 
     94 N          -3.9476  -25.0198  -52.7061 N.am      17 UNK        -0.5000 
     95 CA         -4.2090  -24.0181  -53.7480 C.3       17 UNK         0.1400 
     96 CB         -3.4647  -24.4241  -55.0282 C.3       17 UNK        -0.1800 
     97 C          -3.8085  -22.5897  -53.3263 C.2       17 UNK         0.5000 
     98 O          -4.3599  -21.6132  -53.8352 O.2       17 UNK        -0.5000 
     99 N          -2.8652  -22.4991  -52.3831 N.am      18 UNK        -0.5000 
    100 CA        -2.3535  -21.2630  -51.8009 C.3       18 UNK         0.1400 
    101 CB        -0.8518  -21.4409  -51.5460 C.3       18 UNK        -0.1800 
    102 C         -3.1385  -20.8046  -50.5532 C.2       18 UNK         0.5000 
    103 O         -2.6693  -19.9232  -49.8324 O.2       18 UNK        -0.5000 
    104 N         -4.3311  -21.3748  -50.3198 N.am      19 UNK        -0.5000 
    105 CA        -5.2962  -20.9471  -49.3034 C.3       19 UNK         0.1400 
    106 CB        -6.3884  -22.0223  -49.1629 C.3       19 UNK        -0.1800 
    107 C         -5.9024  -19.5753  -49.6647 C.2       19 UNK         0.5000 
    108 O         -7.0251  -19.5061  -50.1665 O.2       19 UNK        -0.5000 
    109 N         -5.1056  -18.5156  -49.4826 N.am      20 UNK        -0.5000 
    110 CA        -5.3487  -17.1038  -49.8075 C.3       20 UNK         0.1400 
    111 CB        -6.6172  -16.5672  -49.1169 C.3       20 UNK        -0.1800 
    112 C         -5.3495  -16.7840  -51.3179 C.2       20 UNK         0.5000 
    113 O         -4.9484  -15.6808  -51.6873 O.2       20 UNK        -0.5000 
    114 N         -5.7860  -17.7345  -52.1555 N.am      21 UNK        -0.5000 
    115 CA        -5.8404  -17.6429  -53.6137 C.3       21 UNK         0.1400 
    116 CB        -6.6892  -18.8032  -54.1631 C.3       21 UNK        -0.1800 
    117 C         -4.4364  -17.5861  -54.2461 C.2       21 UNK         0.5000 
    118 O         -3.9964  -16.5054  -54.6397 O.2       21 UNK        -0.5000 
    119 N         -3.7559  -18.7397  -54.3250 N.am      22 UNK        -0.5000 
    120 CA        -2.3902  -18.8842  -54.8668 C.3       22 UNK         0.1400 
    121 C         -2.2701  -18.6401  -56.4049 C.2       22 UNK         0.5000 
    122 N         -3.3486  -18.7568  -57.1709 N.am      22 UNK        -0.7600 
    123 O         -1.1918  -18.3646  -56.9233 O.2       22 UNK        -0.5000 
    124 C124       -1.3452  -18.0992  -54.0184 C.3       23 UNK        -0.0398 
    125 S125        0.2823  -18.9204  -53.9217 S.3       23 UNK        -0.2404 
    126 C126        1.2340  -17.7292  -52.9224 C.3       23 UNK        -0.0205 
    127 H127        0.1705   -8.8982  -46.8344 H         1 UNK         0.0600 
    128 H128        1.3825   -9.8612  -45.9911 H         1 UNK         0.0600 
    129 H129       -0.2895  -10.4346  -46.1076 H         1 UNK         0.0600 
    130 H130       -0.3926  -12.1624  -47.5366 H         1 UNK         0.3000 
    131 H131        0.2599  -11.8019  -50.2700 H         1 UNK         0.0600 
    132 H132       -1.6930  -13.0348  -49.8237 H         1 UNK         0.0800 
    133 H133       -0.5791  -14.1467  -50.5498 H         1 UNK         0.0800 
    134 H134       -2.3214  -15.8744  -49.8695 H         1 UNK         0.0800 
    135 H135       -2.2333  -16.7522  -48.3650 H         1 UNK         0.0800 
    136 H136       -0.6729  -16.2901  -51.6137 H         1 UNK         0.1150 
    137 H137        2.3153  -19.2933  -50.9595 H         1 UNK         0.1150 
    138 H138       -0.1352  -17.9595  -47.7072 H         1 UNK         0.1150 
    139 H139        2.9746  -19.5497  -48.4214 H         1 UNK         0.0800 
    140 H140        1.6900  -19.4345  -47.2464 H         1 UNK         0.0800 
    141 H141       -0.8944  -21.5658  -48.8574 H         1 UNK         0.0800 
    142 H142       -0.5317  -20.5865  -47.4933 H         1 UNK         0.0800 
    143 H143        0.3889  -23.4256  -47.2218 H         1 UNK         0.0600 
    144 H144       -0.4106  -21.3787  -45.4354 H         1 UNK         0.3000 
    145 H145       -0.4806  -23.4765  -42.5164 H         1 UNK         0.0600 
    146 H146        1.0409  -21.6253  -41.8601 H         1 UNK         0.0600 
    147 H147        1.8475  -22.7248  -42.9678 H         1 UNK         0.0600 
    148 H148        1.2631  -21.1715  -43.5483 H         1 UNK         0.0600 
    149 H149       -1.1373  -20.7057  -43.1328 H         1 UNK         0.3000 
    150 H150       -4.6457  -21.2106  -43.3297 H         1 UNK         0.0600 
    151 H151       -4.2542  -21.1405  -40.8703 H         1 UNK         0.0600 
    152 H152       -4.6618  -19.5456  -41.4842 H         1 UNK         0.0600 
    153 H153       -2.9892  -19.9369  -41.0853 H         1 UNK         0.0600 
    154 H154       -2.9496  -18.8839  -43.3272 H         1 UNK         0.3000 
    155 H155       -2.3908  -18.7926  -46.8497 H         1 UNK         0.0600 
    156 H156       -4.3457  -17.2089  -45.0914 H         1 UNK         0.0600 
    157 H157       -3.5920  -16.5872  -46.5500 H         1 UNK         0.0600 
    158 H158       -4.7104  -17.9409  -46.6472 H         1 UNK         0.0600 
    159 H159       -1.8200  -16.8761  -44.8613 H         1 UNK         0.3000 
    160 H160        1.0587  -18.2480  -43.3746 H         1 UNK         0.0600 
    161 H161        2.1177  -17.6941  -45.5384 H         1 UNK         0.0600 
    162 H162        1.0831  -16.2845  -45.7289 H         1 UNK         0.0600 
    163 H163        2.2900  -16.3322  -44.4424 H         1 UNK         0.0600 
    164 H164        0.1093  -15.5697  -43.5100 H         1 UNK         0.3000 
    165 H165       -2.6520  -15.7479  -41.3906 H         1 UNK         0.0600 
    166 H166       -1.4241  -14.3907  -39.7116 H         1 UNK         0.0600 
    167 H167       -0.9582  -16.0780  -39.5757 H         1 UNK         0.0600 
    168 H168        0.1228  -14.9343  -40.3633 H         1 UNK         0.0600 
    169 H169       -1.0223  -13.5273  -42.0455 H         1 UNK         0.3000 
    170 H170       -1.8220  -13.0505  -45.4088 H         1 UNK         0.0600 
    171 H171       -3.9781  -12.2643  -44.4266 H         1 UNK         0.0600 
    172 H172       -3.1165  -11.5490  -43.0692 H         1 UNK         0.0600 
    173 H173       -2.8805  -10.9213  -44.7013 H         1 UNK         0.0600 
    174 H174       -0.6806  -11.3186  -43.4413 H         1 UNK         0.3000 
    175 H175        1.5954  -10.8411  -43.7769 H         1 UNK         0.0600 
    176 H176        2.3091  -13.3400  -42.1208 H         1 UNK         0.0600 
    177 H177        2.9994  -11.7364  -41.8806 H         1 UNK         0.0600 
    178 H178        1.2898  -12.0085  -41.5840 H         1 UNK         0.0600 
    179 H179        2.9566  -13.2354  -44.8199 H         1 UNK         0.3000 
    180 H180        5.2340  -11.2209  -46.6761 H         1 UNK         0.0600 
    181 H181        5.6543  -13.6101  -44.7779 H         1 UNK         0.0600 
    182 H182        6.4696  -12.0601  -44.6101 H         1 UNK         0.0600 
    183 H183        6.7764  -13.0545  -46.0181 H         1 UNK         0.0600 
    184 H184        3.1133  -13.0258  -46.7310 H         1 UNK         0.3000 
    185 H185        3.8971  -14.7248  -49.7012 H         1 UNK         0.0600 
    186 H186        3.2292  -15.8252  -46.9260 H         1 UNK         0.0600 
    187 H187        2.7730  -16.5804  -48.4529 H         1 UNK         0.0600 
    188 H188        4.4676  -16.4257  -48.0191 H         1 UNK         0.0600 
    189 H189        1.5792  -14.2284  -47.9505 H         1 UNK         0.3000 
    190 H190       -2.8682  -22.5623  -46.1089 H         1 UNK         0.3000 
    191 H191       -4.3204  -24.1470  -47.9263 H         1 UNK         0.0600 
    192 H192       -4.9144  -23.4637  -44.9970 H         1 UNK         0.0600 
    193 H193       -6.0859  -24.1165  -46.1358 H         1 UNK         0.0600 
    194 H194       -5.4044  -22.5238  -46.4043 H         1 UNK         0.0600 
    195 H195       -2.3886  -25.1399  -45.1429 H         1 UNK         0.3000 
    196 H196       -3.3840  -27.9251  -45.2436 H         1 UNK         0.0600 
    197 H197       -1.8135  -28.2628  -43.3614 H         1 UNK         0.0600 
    198 H198       -2.8886  -26.9124  -43.0322 H         1 UNK         0.0600 
    199 H199       -1.2209  -26.6145  -43.5143 H         1 UNK         0.0600 
    200 H200       -0.4052  -26.0294  -45.9127 H         1 UNK         0.3000 
    201 H201        1.1588  -28.2896  -46.6266 H         1 UNK         0.0600 
    202 H202        2.0852  -26.1734  -45.7015 H         1 UNK         0.0600 
    203 H203        1.6625  -25.3249  -47.1873 H         1 UNK         0.0600 
    204 H204        2.8648  -26.6051  -47.2160 H         1 UNK         0.0600 
    205 H205       -0.5974  -25.9342  -48.6933 H         1 UNK         0.3000 
    206 H206        0.2242  -27.4717  -51.1398 H         1 UNK         0.0600 
    207 H207        1.5219  -25.3906  -50.9716 H         1 UNK         0.0600 
    208 H208        0.3322  -25.2163  -52.2529 H         1 UNK         0.0600 
    209 H209        0.0615  -24.4515  -50.6889 H         1 UNK         0.0600 
    210 H210       -2.3476  -25.8036  -49.4432 H         1 UNK         0.3000 
    211 H211       -4.5354  -25.8468  -49.5597 H         1 UNK         0.0600 
    212 H212       -4.3812  -27.9200  -51.8002 H         1 UNK         0.0600 
    213 H213       -5.8023  -27.4984  -50.8594 H         1 UNK         0.0600 
    214 H214       -4.4333  -28.2660  -50.0713 H         1 UNK         0.0600 
    215 H215       -3.2089  -25.6970  -52.8776 H         1 UNK         0.3000 
    216 H216       -5.2806  -24.0120  -53.9574 H         1 UNK         0.0600 
    217 H217       -3.6514  -23.7109  -55.8324 H         1 UNK         0.0600 
    218 H218       -3.7914  -25.4028  -55.3802 H         1 UNK         0.0600 
    219 H219       -2.3863  -24.4673  -54.8699 H         1 UNK         0.0600 
    220 H220       -2.4858  -23.3590  -52.0159 H         1 UNK         0.3000 
    221 H221       -2.4591  -20.4522  -52.5184 H         1 UNK         0.0600 
    222 H222       -0.6485  -22.3055  -50.9182 H         1 UNK         0.0600 
    223 H223       -0.3124  -21.5846  -52.4819 H         1 UNK         0.0600 
    224 H224       -0.4250  -20.5627  -51.0633 H         1 UNK         0.0600 
    225 H225       -4.6506  -22.0955  -50.9528 H         1 UNK         0.3000 
    226 H226       -4.7809  -20.8551  -48.3449 H         1 UNK         0.0600 
    227 H227       -5.9701  -22.9874  -48.8884 H         1 UNK         0.0600 
    228 H228       -7.1075  -21.7491  -48.3898 H         1 UNK         0.0600 
    229 H229       -6.9415  -22.1617  -50.0927 H         1 UNK         0.0600 
    230 H230       -4.1494  -18.7329  -49.2177 H         1 UNK         0.3000 
    231 H231       -4.5071  -16.5615  -49.3786 H         1 UNK         0.0600 
    232 H232       -6.7015  -15.4880  -49.2501 H         1 UNK         0.0600 
    233 H233       -6.5956  -16.7607  -48.0445 H         1 UNK         0.0600 
    234 H234       -7.5256  -17.0132  -49.5220 H         1 UNK         0.0600 
    235 H235       -6.1540  -18.5807  -51.7366 H         1 UNK         0.3000 
    236 H236       -6.3490  -16.7118  -53.8724 H         1 UNK         0.0600 
    237 H237       -7.7257  -18.7136  -53.8375 H         1 UNK         0.0600 
    238 H238       -6.6929  -18.8066  -55.2538 H         1 UNK         0.0600 
    239 H239       -6.3244  -19.7743  -53.8286 H         1 UNK         0.0600 
    240 H240       -4.1998  -19.6052  -54.0338 H         1 UNK         0.3000 
    241 H241       -2.1704  -19.9462  -54.7576 H         1 UNK         0.0600 
    242 H242       -3.2695  -18.6057  -58.1644 H         1 UNK         0.3800 
    243 H243       -4.2406  -18.9965  -56.7694 H         1 UNK         0.3800 
    244 H244       -1.2243  -17.0795  -54.3878 H         1 UNK         0.0800 
    245 H245       -1.7076  -18.0064  -52.9945 H         1 UNK         0.0800 
    246 H246        2.2965  -17.9483  -53.0373 H         1 UNK         0.0800 
    247 H247        1.0902  -16.7210  -53.3139 H         1 UNK         0.0800 
@<TRIPOS>BOND
     1    1    2 1    
     2    1  127 1    
     3    1  128 1    
     4    1  129 1    
     5    2    3 2    
     6    2    4 am   BACKBONE|DICT|INTERRES
     7    4    5 1    
     8    4  130 1    
     9    5    6 1    
    10    5   65 1    
    11    5  131 1    
    12    6    7 1    
    13    6  132 1    
    14    6  133 1    
    15    7    8 1    
    16    8    9 1    
    17    8  134 1    
    18    8  135 1    
    19    9   10 ar   
    20    9   14 ar   
    21   10   11 ar   
    22   10  136 1    
    23   11   12 ar   
    24   11  126 1    
    25   12   13 ar   
    26   12  137 1    
    27   13   14 ar   
    28   13   15 1    
    29   14  138 1    
    30   15   16 1    
    31   15  139 1    
    32   15  140 1    
    33   16   17 1    
    34   17   18 1    
    35   17  141 1    
    36   17  142 1    
    37   18   19 1    
    38   18   67 1    
    39   18  143 1    
    40   19   20 am   BACKBONE|DICT|INTERRES
    41   19  144 1    
    42   20   21 2    
    43   20   22 1    
    44   22   23 1    
    45   22   24 1    
    46   22  145 1    
    47   23  146 1    
    48   23  147 1    
    49   23  148 1    
    50   24   25 am   BACKBONE|DICT|INTERRES
    51   24  149 1    
    52   25   26 2    
    53   25   27 1    
    54   27   28 1    
    55   27   29 1    
    56   27  150 1    
    57   28  151 1    
    58   28  152 1    
    59   28  153 1    
    60   29   30 am   BACKBONE|DICT|INTERRES
    61   29  154 1    
    62   30   31 2    
    63   30   32 1    
    64   32   33 1    
    65   32   34 1    
    66   32  155 1    
    67   33  156 1    
    68   33  157 1    
    69   33  158 1    
    70   34   35 am   BACKBONE|DICT|INTERRES
    71   34  159 1    
    72   35   36 2    
    73   35   37 1    
    74   37   38 1    
    75   37   39 1    
    76   37  160 1    
    77   38  161 1    
    78   38  162 1    
    79   38  163 1    
    80   39   40 am   BACKBONE|DICT|INTERRES
    81   39  164 1    
    82   40   41 2    
    83   40   42 1    
    84   42   43 1    
    85   42   44 1    
    86   42  165 1    
    87   43  166 1    
    88   43  167 1    
    89   43  168 1    
    90   44   45 am   BACKBONE|DICT|INTERRES
    91   44  169 1    
    92   45   46 2    
    93   45   47 1    
    94   47   48 1    
    95   47   49 1    
    96   47  170 1    
    97   48  171 1    
    98   48  172 1    
    99   48  173 1    
   100   49   50 am   BACKBONE|DICT|INTERRES
   101   49  174 1    
   102   50   51 2    
   103   50   52 1    
   104   52   53 1    
   105   52   54 1    
   106   52  175 1    
   107   53  176 1    
   108   53  177 1    
   109   53  178 1    
   110   54   55 am   BACKBONE|DICT|INTERRES
   111   54  179 1    
   112   55   56 2    
   113   55   57 1    
   114   57   58 1    
   115   57   59 1    
   116   57  180 1    
   117   58  181 1    
   118   58  182 1    
   119   58  183 1    
   120   59   60 am   BACKBONE|DICT|INTERRES
   121   59  184 1    
   122   60   61 2    
   123   60   62 1    
   124   62   63 1    
   125   62   64 1    
   126   62  185 1    
   127   63  186 1    
   128   63  187 1    
   129   63  188 1    
   130   64   65 am   BACKBONE|DICT|INTERRES
   131   64  189 1    
   132   65   66 2    
   133   67   68 2    
   134   67   69 am   BACKBONE|DICT|INTERRES
   135   69   70 1    
   136   69  190 1    
   137   70   71 1    
   138   70   72 1    
   139   70  191 1    
   140   71  192 1    
   141   71  193 1    
   142   71  194 1    
   143   72   73 2    
   144   72   74 am   BACKBONE|DICT|INTERRES
   145   74   75 1    
   146   74  195 1    
   147   75   76 1    
   148   75   77 1    
   149   75  196 1    
   150   76  197 1    
   151   76  198 1    
   152   76  199 1    
   153   77   78 2    
   154   77   79 am   BACKBONE|DICT|INTERRES
   155   79   80 1    
   156   79  200 1    
   157   80   81 1    
   158   80   82 1    
   159   80  201 1    
   160   81  202 1    
   161   81  203 1    
   162   81  204 1    
   163   82   83 2    
   164   82   84 am   BACKBONE|DICT|INTERRES
   165   84   85 1    
   166   84  205 1    
   167   85   86 1    
   168   85   87 1    
   169   85  206 1    
   170   86  207 1    
   171   86  208 1    
   172   86  209 1    
   173   87   88 2    
   174   87   89 am   BACKBONE|DICT|INTERRES
   175   89   90 1    
   176   89  210 1    
   177   90   91 1    
   178   90   92 1    
   179   90  211 1    
   180   91  212 1    
   181   91  213 1    
   182   91  214 1    
   183   92   93 2    
   184   92   94 am   BACKBONE|DICT|INTERRES
   185   94   95 1    
   186   94  215 1    
   187   95   96 1    
   188   95   97 1    
   189   95  216 1    
   190   96  217 1    
   191   96  218 1    
   192   96  219 1    
   193   97   98 2    
   194   97   99 am   BACKBONE|DICT|INTERRES
   195   99  100 1    
   196   99  220 1    
   197  100  101 1    
   198  100  102 1    
   199  100  221 1    
   200  101  222 1    
   201  101  223 1    
   202  101  224 1    
   203  102  103 2    
   204  102  104 am   BACKBONE|DICT|INTERRES
   205  104  105 1    
   206  104  225 1    
   207  105  106 1    
   208  105  107 1    
   209  105  226 1    
   210  106  227 1    
   211  106  228 1    
   212  106  229 1    
   213  107  108 2    
   214  107  109 am   BACKBONE|DICT|INTERRES
   215  109  110 1    
   216  109  230 1    
   217  110  111 1    
   218  110  112 1    
   219  110  231 1    
   220  111  232 1    
   221  111  233 1    
   222  111  234 1    
   223  112  113 2    
   224  112  114 am   BACKBONE|DICT|INTERRES
   225  114  115 1    
   226  114  235 1    
   227  115  116 1    
   228  115  117 1    
   229  115  236 1    
   230  116  237 1    
   231  116  238 1    
   232  116  239 1    
   233  117  118 2    
   234  117  119 am   BACKBONE|DICT|INTERRES
   235  119  120 1    
   236  119  240 1    
   237  120  121 1    
   238  120  124 1    
   239  120  241 1    
   240  121  122 am   BACKBONE|DICT|INTERRES
   241  121  123 2    
   242  122  242 1    
   243  122  243 1    
   244  124  125 1    
   245  124  244 1    
   246  124  245 1    
   247  125  126 1    
   248  126  246 1    
   249  126  247 1    
@<TRIPOS>SUBSTRUCTURE
     1 UNK         1 GROUP             0       ****    0 ROOT    
