@<TRIPOS>MOLECULE
3R540
247   249    1
SMALL
USER_CHARGES


@<TRIPOS>ATOM
      1 CA         -4.0359  -16.7648  -45.6363 C.3       0 UNK        -0.1800 
      2 C          -2.9374  -15.8467  -46.1559 C.2       0 UNK         0.5000 
      3 O          -1.9442  -15.6407  -45.4615 O.2       0 UNK        -0.5000 
      4 N          -3.1307  -15.2969  -47.3631 N.am      1 UNK        -0.5000 
      5 CA         -2.2648  -14.3572  -48.0897 C.3       1 UNK         0.1400 
      6 C6         -1.1628  -15.0413  -48.9542 C.3       23 UNK        -0.0398 
      7 S7          0.1702  -15.9324  -48.0732 S.3       23 UNK        -0.2404 
      8 C8          1.4045  -16.1392  -49.3961 C.3       23 UNK        -0.0205 
      9 C9          1.3870  -17.5420  -49.9864 C.ar      23 UNK        -0.0193 
     10 C10         0.3750  -17.9264  -50.8711 C.ar      23 UNK        -0.1150 
     11 C11         0.3786  -19.2020  -51.4433 C.ar      23 UNK        -0.0193 
     12 C12         1.4082  -20.0932  -51.1298 C.ar      23 UNK        -0.1150 
     13 C13         2.4352  -19.7171  -50.2607 C.ar      23 UNK        -0.0193 
     14 C14         2.4111  -18.4445  -49.6813 C.ar      23 UNK        -0.1150 
     15 C15         3.5968  -20.6655  -49.9899 C.3       23 UNK        -0.0205 
     16 S16         3.0800  -22.2341  -49.2223 S.3       23 UNK        -0.2404 
     17 C17         2.4985  -21.6541  -47.5960 C.3       23 UNK        -0.0398 
     18 CA          1.2096  -22.3606  -47.1172 C.3       11 UNK         0.1400 
     19 N           0.9710  -22.1039  -45.6953 N.am      11 UNK        -0.5000 
     20 C           0.0556  -22.7275  -44.9423 C.2       10 UNK         0.5000 
     21 O          -0.6633  -23.6378  -45.3539 O.2       10 UNK        -0.5000 
     22 CA         -0.1121  -22.2194  -43.4980 C.3       10 UNK         0.1400 
     23 CB          0.9580  -22.8271  -42.5793 C.3       10 UNK        -0.1800 
     24 N          -0.0668  -20.7588  -43.4074 N.am      10 UNK        -0.5000 
     25 C          -0.9691  -19.9383  -43.9642 C.2       9 UNK         0.5000 
     26 O          -1.9742  -20.3322  -44.5535 O.2       9 UNK        -0.5000 
     27 CA         -0.6770  -18.4291  -43.9087 C.3       9 UNK         0.1400 
     28 CB         -1.1070  -17.8231  -42.5658 C.3       9 UNK        -0.1800 
     29 N           0.7235  -18.1069  -44.1737 N.am      9 UNK        -0.5000 
     30 C           1.3571  -18.3724  -45.3246 C.2       8 UNK         0.5000 
     31 O           0.8249  -18.9141  -46.2905 O.2       8 UNK        -0.5000 
     32 CA          2.8582  -18.0474  -45.3762 C.3       8 UNK         0.1400 
     33 CB          3.0951  -16.5513  -45.6263 C.3       8 UNK        -0.1800 
     34 N           3.5307  -18.4554  -44.1439 N.am      8 UNK        -0.5000 
     35 C           3.7191  -19.7304  -43.7757 C.2       7 UNK         0.5000 
     36 O           3.3868  -20.6974  -44.4616 O.2       7 UNK        -0.5000 
     37 CA          4.3448  -19.9587  -42.3879 C.3       7 UNK         0.1400 
     38 CB          5.8746  -19.8399  -42.4550 C.3       7 UNK        -0.1800 
     39 N           3.8272  -19.0300  -41.3809 N.am      7 UNK        -0.5000 
     40 C           2.5626  -19.0306  -40.9364 C.2       6 UNK         0.5000 
     41 O           1.7091  -19.8345  -41.3089 O.2       6 UNK        -0.5000 
     42 CA          2.1749  -17.9244  -39.9380 C.3       6 UNK         0.1400 
     43 CB          2.5000  -18.3576  -38.5009 C.3       6 UNK        -0.1800 
     44 N           2.8037  -16.6280  -40.2081 N.am      6 UNK        -0.5000 
     45 C           2.6521  -15.9235  -41.3367 C.2       5 UNK         0.5000 
     46 O           2.0173  -16.3214  -42.3147 O.2       5 UNK        -0.5000 
     47 CA          3.2911  -14.5274  -41.3681 C.3       5 UNK         0.1400 
     48 CB          4.0422  -14.2714  -42.6847 C.3       5 UNK        -0.1800 
     49 N           2.2399  -13.5288  -41.2149 N.am      5 UNK        -0.5000 
     50 C           1.7185  -13.1455  -40.0430 C.2       4 UNK         0.5000 
     51 O           2.1491  -13.5121  -38.9487 O.2       4 UNK        -0.5000 
     52 CA          0.5029  -12.2034  -40.1069 C.3       4 UNK         0.1400 
     53 CB          0.9570  -10.7361  -40.1254 C.3       4 UNK        -0.1800 
     54 N          -0.3505  -12.4537  -41.2696 N.am      4 UNK        -0.5000 
     55 C          -1.1404  -13.5210  -41.4353 C.2       3 UNK         0.5000 
     56 O          -1.2348  -14.4293  -40.6095 O.2       3 UNK        -0.5000 
     57 CA         -1.9754  -13.5894  -42.7299 C.3       3 UNK         0.1400 
     58 CB         -3.2276  -12.6988  -42.6323 C.3       3 UNK        -0.1800 
     59 N          -1.2367  -13.3270  -43.9717 N.am      3 UNK        -0.5000 
     60 C          -0.6331  -12.2055  -44.3933 C.2       2 UNK         0.5000 
     61 O          -0.5671  -11.1683  -43.7322 O.2       2 UNK        -0.5000 
     62 CA          0.0260  -12.2464  -45.7863 C.3       2 UNK         0.1400 
     63 CB          1.5246  -12.5586  -45.6518 C.3       2 UNK        -0.1800 
     64 N          -0.5741  -13.2266  -46.6913 N.am      2 UNK        -0.5000 
     65 C          -1.7990  -13.1581  -47.2262 C.2       1 UNK         0.5000 
     66 O          -2.5639  -12.2072  -47.0537 O.2       1 UNK        -0.5000 
     67 C          -0.0262  -22.0099  -47.9772 C.2       11 UNK         0.5000 
     68 O          -0.4371  -22.8179  -48.8107 O.2       11 UNK        -0.5000 
     69 N          -0.6389  -20.8475  -47.7154 N.am      12 UNK        -0.5000 
     70 CA         -1.8898  -20.4154  -48.3339 C.3       12 UNK         0.1400 
     71 CB         -2.1881  -18.9627  -47.9496 C.3       12 UNK        -0.1800 
     72 C          -3.0751  -21.3301  -47.9836 C.2       12 UNK         0.5000 
     73 O          -3.8533  -21.6650  -48.8753 O.2       12 UNK        -0.5000 
     74 N          -3.1827  -21.7523  -46.7161 N.am      13 UNK        -0.5000 
     75 CA         -4.1931  -22.7007  -46.2404 C.3       13 UNK         0.1400 
     76 CB         -4.1201  -22.8282  -44.7122 C.3       13 UNK        -0.1800 
     77 C          -4.0797  -24.0802  -46.9150 C.2       13 UNK         0.5000 
     78 O          -5.1001  -24.6385  -47.3193 O.2       13 UNK        -0.5000 
     79 N          -2.8440  -24.5728  -47.0876 N.am      14 UNK        -0.5000 
     80 CA         -2.5274  -25.7930  -47.8375 C.3       14 UNK         0.1400 
     81 CB         -1.0458  -26.1463  -47.6389 C.3       14 UNK        -0.1800 
     82 C          -2.8722  -25.6899  -49.3383 C.2       14 UNK         0.5000 
     83 O          -3.2242  -26.6971  -49.9518 O.2       14 UNK        -0.5000 
     84 N          -2.8254  -24.4679  -49.8838 N.am      15 UNK        -0.5000 
     85 CA         -3.2677  -24.1005  -51.2301 C.3       15 UNK         0.1400 
     86 CB         -2.3985  -22.9325  -51.7271 C.3       15 UNK        -0.1800 
     87 C          -4.7768  -23.7660  -51.2962 C.2       15 UNK         0.5000 
     88 O          -5.1964  -23.0486  -52.2058 O.2       15 UNK        -0.5000 
     89 N          -5.5630  -24.2748  -50.3344 N.am      16 UNK        -0.5000 
     90 CA         -7.0183  -24.1499  -50.2000 C.3       16 UNK         0.1400 
     91 CB         -7.7375  -24.8857  -51.3494 C.3       16 UNK        -0.1800 
     92 C          -7.4837  -22.6910  -50.0192 C.2       16 UNK         0.5000 
     93 O          -8.4486  -22.2634  -50.6538 O.2       16 UNK        -0.5000 
     94 N          -6.7707  -21.9613  -49.1498 N.am      17 UNK        -0.5000 
     95 CA         -6.9071  -20.5280  -48.8675 C.3       17 UNK         0.1400 
     96 CB         -8.2985  -20.1847  -48.2948 C.3       17 UNK        -0.1800 
     97 C          -6.5057  -19.6747  -50.0873 C.2       17 UNK         0.5000 
     98 O          -7.2213  -18.7457  -50.4657 O.2       17 UNK        -0.5000 
     99 N          -5.3489  -20.0282  -50.6663 N.am      18 UNK        -0.5000 
    100 CA        -4.7007  -19.4223  -51.8302 C.3       18 UNK         0.1400 
    101 CB        -4.1727  -18.0142  -51.4811 C.3       18 UNK        -0.1800 
    102 C         -5.5875  -19.4424  -53.0914 C.2       18 UNK         0.5000 
    103 O         -5.7491  -18.4173  -53.7567 O.2       18 UNK        -0.5000 
    104 N         -6.1331  -20.6205  -53.4212 N.am      19 UNK        -0.5000 
    105 CA        -7.0218  -20.8612  -54.5632 C.3       19 UNK         0.1400 
    106 CB        -7.8708  -22.1107  -54.2727 C.3       19 UNK        -0.1800 
    107 C         -6.2602  -20.9676  -55.9043 C.2       19 UNK         0.5000 
    108 O         -6.4895  -21.9012  -56.6743 O.2       19 UNK        -0.5000 
    109 N         -5.3419  -20.0210  -56.1443 N.am      20 UNK        -0.5000 
    110 CA        -4.4772  -19.8453  -57.3202 C.3       20 UNK         0.1400 
    111 CB        -5.3223  -19.5938  -58.5851 C.3       20 UNK        -0.1800 
    112 C         -3.4294  -20.9572  -57.5527 C.2       20 UNK         0.5000 
    113 O         -2.6417  -20.8459  -58.4936 O.2       20 UNK        -0.5000 
    114 N         -3.3960  -21.9869  -56.6945 N.am      21 UNK        -0.5000 
    115 CA        -2.5175  -23.1568  -56.8007 C.3       21 UNK         0.1400 
    116 CB        -2.9305  -24.1900  -55.7412 C.3       21 UNK        -0.1800 
    117 C         -1.0151  -22.8284  -56.6902 C.2       21 UNK         0.5000 
    118 O         -0.1933  -23.5550  -57.2500 O.2       21 UNK        -0.5000 
    119 N         -0.6908  -21.7309  -55.9969 N.am      22 UNK        -0.5000 
    120 CA         0.6542  -21.1416  -55.9211 C.3       22 UNK         0.1400 
    121 C          1.0372  -20.2369  -57.1320 C.2       22 UNK         0.5000 
    122 N          0.1693  -20.0121  -58.1125 N.am      22 UNK        -0.7600 
    123 O          2.1595  -19.7426  -57.1967 O.2       22 UNK        -0.5000 
    124 C124        0.8954  -20.4429  -54.5577 C.3       23 UNK        -0.0398 
    125 S125       -0.3549  -19.1785  -54.1237 S.3       23 UNK        -0.2404 
    126 C126       -0.7310  -19.6149  -52.3969 C.3       23 UNK        -0.0205 
    127 H127       -4.7747  -16.9898  -46.4058 H         1 UNK         0.0600 
    128 H128       -4.5474  -16.2940  -44.7970 H         1 UNK         0.0600 
    129 H129       -3.6135  -17.7074  -45.2890 H         1 UNK         0.0600 
    130 H130       -3.9957  -15.5077  -47.8393 H         1 UNK         0.3000 
    131 H131       -2.9420  -13.9045  -48.8161 H         1 UNK         0.0600 
    132 H132       -1.6378  -15.7536  -49.6294 H         1 UNK         0.0800 
    133 H133       -0.7061  -14.2894  -49.5995 H         1 UNK         0.0800 
    134 H134        1.2470  -15.4080  -50.1896 H         1 UNK         0.0800 
    135 H135        2.3901  -15.9182  -48.9850 H         1 UNK         0.0800 
    136 H136       -0.4131  -17.2303  -51.1193 H         1 UNK         0.1150 
    137 H137        1.4205  -21.0815  -51.5658 H         1 UNK         0.1150 
    138 H138        3.2032  -18.1461  -49.0092 H         1 UNK         0.1150 
    139 H139        4.0928  -20.8871  -50.9358 H         1 UNK         0.0800 
    140 H140        4.3480  -20.1916  -49.3561 H         1 UNK         0.0800 
    141 H141        2.3613  -20.5731  -47.6065 H         1 UNK         0.0800 
    142 H142        3.3070  -21.8441  -46.8893 H         1 UNK         0.0800 
    143 H143        1.3690  -23.4368  -47.2134 H         1 UNK         0.0600 
    144 H144        1.5404  -21.3829  -45.2671 H         1 UNK         0.3000 
    145 H145       -1.0905  -22.5467  -43.1411 H         1 UNK         0.0600 
    146 H146        0.7938  -22.5396  -41.5407 H         1 UNK         0.0600 
    147 H147        0.9378  -23.9168  -42.6227 H         1 UNK         0.0600 
    148 H148        1.9611  -22.5045  -42.8599 H         1 UNK         0.0600 
    149 H149        0.7021  -20.3571  -42.8784 H         1 UNK         0.3000 
    150 H150       -1.2660  -17.9638  -44.6971 H         1 UNK         0.0600 
    151 H151       -2.1709  -17.9846  -42.3890 H         1 UNK         0.0600 
    152 H152       -0.9327  -16.7471  -42.5471 H         1 UNK         0.0600 
    153 H153       -0.5627  -18.2651  -41.7317 H         1 UNK         0.0600 
    154 H154        1.2282  -17.6154  -43.4407 H         1 UNK         0.3000 
    155 H155        3.3000  -18.6041  -46.2054 H         1 UNK         0.0600 
    156 H156        2.5598  -15.9331  -44.9070 H         1 UNK         0.0600 
    157 H157        4.1539  -16.2983  -45.5715 H         1 UNK         0.0600 
    158 H158        2.7459  -16.2673  -46.6177 H         1 UNK         0.0600 
    159 H159        3.7710  -17.7217  -43.4943 H         1 UNK         0.3000 
    160 H160        4.0950  -20.9746  -42.0741 H         1 UNK         0.0600 
    161 H161        6.1905  -18.8353  -42.7391 H         1 UNK         0.0600 
    162 H162        6.2873  -20.5337  -43.1886 H         1 UNK         0.0600 
    163 H163        6.3307  -20.0763  -41.4935 H         1 UNK         0.0600 
    164 H164        4.4655  -18.3352  -41.0223 H         1 UNK         0.3000 
    165 H165        1.0949  -17.7829  -40.0113 H         1 UNK         0.0600 
    166 H166        2.1366  -17.6278  -37.7771 H         1 UNK         0.0600 
    167 H167        2.0264  -19.3113  -38.2638 H         1 UNK         0.0600 
    168 H168        3.5734  -18.4770  -38.3486 H         1 UNK         0.0600 
    169 H169        3.3142  -16.2107  -39.4428 H         1 UNK         0.3000 
    170 H170        4.0092  -14.4414  -40.5497 H         1 UNK         0.0600 
    171 H171        3.3660  -14.2379  -43.5381 H         1 UNK         0.0600 
    172 H172        4.5761  -13.3216  -42.6506 H         1 UNK         0.0600 
    173 H173        4.7791  -15.0524  -42.8759 H         1 UNK         0.0600 
    174 H174        1.7884  -13.2158  -42.0610 H         1 UNK         0.3000 
    175 H175       -0.0913  -12.3663  -39.2053 H         1 UNK         0.0600 
    176 H176        0.1030  -10.0592  -40.0939 H         1 UNK         0.0600 
    177 H177        1.5349  -10.5049  -41.0213 H         1 UNK         0.0600 
    178 H178        1.5833  -10.5094  -39.2615 H         1 UNK         0.0600 
    179 H179       -0.3416  -11.7621  -42.0162 H         1 UNK         0.3000 
    180 H180       -2.3218  -14.6204  -42.8174 H         1 UNK         0.0600 
    181 H181       -2.9722  -11.6425  -42.5453 H         1 UNK         0.0600 
    182 H182       -3.8255  -12.9626  -41.7591 H         1 UNK         0.0600 
    183 H183       -3.8630  -12.8187  -43.5101 H         1 UNK         0.0600 
    184 H184       -1.2376  -14.1182  -44.6132 H         1 UNK         0.3000 
    185 H185       -0.0836  -11.2566  -46.2338 H         1 UNK         0.0600 
    186 H186        2.0184  -11.8433  -44.9926 H         1 UNK         0.0600 
    187 H187        1.6894  -13.5549  -45.2402 H         1 UNK         0.0600 
    188 H188        2.0263  -12.5091  -46.6184 H         1 UNK         0.0600 
    189 H189       -0.0448  -14.0734  -46.8602 H         1 UNK         0.3000 
    190 H190       -0.2056  -20.2001  -47.0587 H         1 UNK         0.3000 
    191 H191       -1.7552  -20.4524  -49.4165 H         1 UNK         0.0600 
    192 H192       -1.4503  -18.2923  -48.3865 H         1 UNK         0.0600 
    193 H193       -3.1689  -18.6467  -48.3063 H         1 UNK         0.0600 
    194 H194       -2.1661  -18.8231  -46.8698 H         1 UNK         0.0600 
    195 H195       -2.5453  -21.3783  -46.0172 H         1 UNK         0.3000 
    196 H196       -5.1726  -22.2903  -46.4931 H         1 UNK         0.0600 
    197 H197       -4.8850  -23.5111  -44.3405 H         1 UNK         0.0600 
    198 H198       -4.2825  -21.8649  -44.2285 H         1 UNK         0.0600 
    199 H199       -3.1535  -23.2089  -44.3840 H         1 UNK         0.0600 
    200 H200       -2.0583  -24.0733  -46.6801 H         1 UNK         0.3000 
    201 H201       -3.1275  -26.6035  -47.4191 H         1 UNK         0.0600 
    202 H202       -0.8125  -26.2872  -46.5834 H         1 UNK         0.0600 
    203 H203       -0.3894  -25.3662  -48.0242 H         1 UNK         0.0600 
    204 H204       -0.7926  -27.0730  -48.1552 H         1 UNK         0.0600 
    205 H205       -2.4982  -23.7040  -49.3050 H         1 UNK         0.3000 
    206 H206       -3.1044  -24.9450  -51.9022 H         1 UNK         0.0600 
    207 H207       -1.3422  -23.2027  -51.7290 H         1 UNK         0.0600 
    208 H208       -2.6596  -22.6382  -52.7431 H         1 UNK         0.0600 
    209 H209       -2.5144  -22.0533  -51.0959 H         1 UNK         0.0600 
    210 H210       -5.1124  -24.7936  -49.5919 H         1 UNK         0.3000 
    211 H211       -7.2806  -24.6628  -49.2736 H         1 UNK         0.0600 
    212 H212       -7.5443  -24.4188  -52.3142 H         1 UNK         0.0600 
    213 H213       -8.8175  -24.8880  -51.1978 H         1 UNK         0.0600 
    214 H214       -7.4174  -25.9257  -51.4114 H         1 UNK         0.0600 
    215 H215       -5.9473  -22.3966  -48.7537 H         1 UNK         0.3000 
    216 H216       -6.1776  -20.3020  -48.0885 H         1 UNK         0.0600 
    217 H217       -8.3309  -19.1495  -47.9533 H         1 UNK         0.0600 
    218 H218       -8.5395  -20.8161  -47.4398 H         1 UNK         0.0600 
    219 H219       -9.0891  -20.3049  -49.0355 H         1 UNK         0.0600 
    220 H220       -4.8471  -20.8025  -50.2399 H         1 UNK         0.3000 
    221 H221       -3.8418  -20.0531  -52.0596 H         1 UNK         0.0600 
    222 H222       -4.9825  -17.3266  -51.2360 H         1 UNK         0.0600 
    223 H223       -3.4919  -18.0466  -50.6312 H         1 UNK         0.0600 
    224 H224       -3.6221  -17.5829  -52.3180 H         1 UNK         0.0600 
    225 H225       -5.9005  -21.4395  -52.8623 H         1 UNK         0.3000 
    226 H226       -7.7051  -20.0145  -54.6537 H         1 UNK         0.0600 
    227 H227       -8.4207  -22.0059  -53.3379 H         1 UNK         0.0600 
    228 H228       -8.6053  -22.2808  -55.0608 H         1 UNK         0.0600 
    229 H229       -7.2506  -23.0046  -54.2008 H         1 UNK         0.0600 
    230 H230       -5.2547  -19.3011  -55.4326 H         1 UNK         0.3000 
    231 H231       -3.9031  -18.9381  -57.1266 H         1 UNK         0.0600 
    232 H232       -5.8887  -20.4781  -58.8781 H         1 UNK         0.0600 
    233 H233       -4.6905  -19.3189  -59.4306 H         1 UNK         0.0600 
    234 H234       -6.0284  -18.7777  -58.4321 H         1 UNK         0.0600 
    235 H235       -4.0928  -22.0101  -55.9649 H         1 UNK         0.3000 
    236 H236       -2.6789  -23.5989  -57.7860 H         1 UNK         0.0600 
    237 H237       -3.9710  -24.4903  -55.8668 H         1 UNK         0.0600 
    238 H238       -2.3214  -25.0919  -55.8160 H         1 UNK         0.0600 
    239 H239       -2.8146  -23.7996  -54.7311 H         1 UNK         0.0600 
    240 H240       -1.4316  -21.1845  -55.5837 H         1 UNK         0.3000 
    241 H241        1.3707  -21.9640  -55.9653 H         1 UNK         0.0600 
    242 H242       -0.7603  -20.4184  -58.1088 H         1 UNK         0.3800 
    243 H243        0.4476  -19.4307  -58.8868 H         1 UNK         0.3800 
    244 H244        0.9030  -21.2131  -53.7875 H         1 UNK         0.0800 
    245 H245        1.8850  -19.9847  -54.5176 H         1 UNK         0.0800 
    246 H246       -1.6552  -19.1194  -52.1062 H         1 UNK         0.0800 
    247 H247       -0.9189  -20.6846  -52.3202 H         1 UNK         0.0800 
@<TRIPOS>BOND
     1    1    2 1    
     2    1  127 1    
     3    1  128 1    
     4    1  129 1    
     5    2    3 2    
     6    2    4 am   BACKBONE|DICT|INTERRES
     7    4    5 1    
     8    4  130 1    
     9    5    6 1    
    10    5   65 1    
    11    5  131 1    
    12    6    7 1    
    13    6  132 1    
    14    6  133 1    
    15    7    8 1    
    16    8    9 1    
    17    8  134 1    
    18    8  135 1    
    19    9   10 ar   
    20    9   14 ar   
    21   10   11 ar   
    22   10  136 1    
    23   11   12 ar   
    24   11  126 1    
    25   12   13 ar   
    26   12  137 1    
    27   13   14 ar   
    28   13   15 1    
    29   14  138 1    
    30   15   16 1    
    31   15  139 1    
    32   15  140 1    
    33   16   17 1    
    34   17   18 1    
    35   17  141 1    
    36   17  142 1    
    37   18   19 1    
    38   18   67 1    
    39   18  143 1    
    40   19   20 am   BACKBONE|DICT|INTERRES
    41   19  144 1    
    42   20   21 2    
    43   20   22 1    
    44   22   23 1    
    45   22   24 1    
    46   22  145 1    
    47   23  146 1    
    48   23  147 1    
    49   23  148 1    
    50   24   25 am   BACKBONE|DICT|INTERRES
    51   24  149 1    
    52   25   26 2    
    53   25   27 1    
    54   27   28 1    
    55   27   29 1    
    56   27  150 1    
    57   28  151 1    
    58   28  152 1    
    59   28  153 1    
    60   29   30 am   BACKBONE|DICT|INTERRES
    61   29  154 1    
    62   30   31 2    
    63   30   32 1    
    64   32   33 1    
    65   32   34 1    
    66   32  155 1    
    67   33  156 1    
    68   33  157 1    
    69   33  158 1    
    70   34   35 am   BACKBONE|DICT|INTERRES
    71   34  159 1    
    72   35   36 2    
    73   35   37 1    
    74   37   38 1    
    75   37   39 1    
    76   37  160 1    
    77   38  161 1    
    78   38  162 1    
    79   38  163 1    
    80   39   40 am   BACKBONE|DICT|INTERRES
    81   39  164 1    
    82   40   41 2    
    83   40   42 1    
    84   42   43 1    
    85   42   44 1    
    86   42  165 1    
    87   43  166 1    
    88   43  167 1    
    89   43  168 1    
    90   44   45 am   BACKBONE|DICT|INTERRES
    91   44  169 1    
    92   45   46 2    
    93   45   47 1    
    94   47   48 1    
    95   47   49 1    
    96   47  170 1    
    97   48  171 1    
    98   48  172 1    
    99   48  173 1    
   100   49   50 am   BACKBONE|DICT|INTERRES
   101   49  174 1    
   102   50   51 2    
   103   50   52 1    
   104   52   53 1    
   105   52   54 1    
   106   52  175 1    
   107   53  176 1    
   108   53  177 1    
   109   53  178 1    
   110   54   55 am   BACKBONE|DICT|INTERRES
   111   54  179 1    
   112   55   56 2    
   113   55   57 1    
   114   57   58 1    
   115   57   59 1    
   116   57  180 1    
   117   58  181 1    
   118   58  182 1    
   119   58  183 1    
   120   59   60 am   BACKBONE|DICT|INTERRES
   121   59  184 1    
   122   60   61 2    
   123   60   62 1    
   124   62   63 1    
   125   62   64 1    
   126   62  185 1    
   127   63  186 1    
   128   63  187 1    
   129   63  188 1    
   130   64   65 am   BACKBONE|DICT|INTERRES
   131   64  189 1    
   132   65   66 2    
   133   67   68 2    
   134   67   69 am   BACKBONE|DICT|INTERRES
   135   69   70 1    
   136   69  190 1    
   137   70   71 1    
   138   70   72 1    
   139   70  191 1    
   140   71  192 1    
   141   71  193 1    
   142   71  194 1    
   143   72   73 2    
   144   72   74 am   BACKBONE|DICT|INTERRES
   145   74   75 1    
   146   74  195 1    
   147   75   76 1    
   148   75   77 1    
   149   75  196 1    
   150   76  197 1    
   151   76  198 1    
   152   76  199 1    
   153   77   78 2    
   154   77   79 am   BACKBONE|DICT|INTERRES
   155   79   80 1    
   156   79  200 1    
   157   80   81 1    
   158   80   82 1    
   159   80  201 1    
   160   81  202 1    
   161   81  203 1    
   162   81  204 1    
   163   82   83 2    
   164   82   84 am   BACKBONE|DICT|INTERRES
   165   84   85 1    
   166   84  205 1    
   167   85   86 1    
   168   85   87 1    
   169   85  206 1    
   170   86  207 1    
   171   86  208 1    
   172   86  209 1    
   173   87   88 2    
   174   87   89 am   BACKBONE|DICT|INTERRES
   175   89   90 1    
   176   89  210 1    
   177   90   91 1    
   178   90   92 1    
   179   90  211 1    
   180   91  212 1    
   181   91  213 1    
   182   91  214 1    
   183   92   93 2    
   184   92   94 am   BACKBONE|DICT|INTERRES
   185   94   95 1    
   186   94  215 1    
   187   95   96 1    
   188   95   97 1    
   189   95  216 1    
   190   96  217 1    
   191   96  218 1    
   192   96  219 1    
   193   97   98 2    
   194   97   99 am   BACKBONE|DICT|INTERRES
   195   99  100 1    
   196   99  220 1    
   197  100  101 1    
   198  100  102 1    
   199  100  221 1    
   200  101  222 1    
   201  101  223 1    
   202  101  224 1    
   203  102  103 2    
   204  102  104 am   BACKBONE|DICT|INTERRES
   205  104  105 1    
   206  104  225 1    
   207  105  106 1    
   208  105  107 1    
   209  105  226 1    
   210  106  227 1    
   211  106  228 1    
   212  106  229 1    
   213  107  108 2    
   214  107  109 am   BACKBONE|DICT|INTERRES
   215  109  110 1    
   216  109  230 1    
   217  110  111 1    
   218  110  112 1    
   219  110  231 1    
   220  111  232 1    
   221  111  233 1    
   222  111  234 1    
   223  112  113 2    
   224  112  114 am   BACKBONE|DICT|INTERRES
   225  114  115 1    
   226  114  235 1    
   227  115  116 1    
   228  115  117 1    
   229  115  236 1    
   230  116  237 1    
   231  116  238 1    
   232  116  239 1    
   233  117  118 2    
   234  117  119 am   BACKBONE|DICT|INTERRES
   235  119  120 1    
   236  119  240 1    
   237  120  121 1    
   238  120  124 1    
   239  120  241 1    
   240  121  122 am   BACKBONE|DICT|INTERRES
   241  121  123 2    
   242  122  242 1    
   243  122  243 1    
   244  124  125 1    
   245  124  244 1    
   246  124  245 1    
   247  125  126 1    
   248  126  246 1    
   249  126  247 1    
@<TRIPOS>SUBSTRUCTURE
     1 UNK         1 GROUP             0       ****    0 ROOT    
