@<TRIPOS>MOLECULE
3R540
247   249    1
SMALL
USER_CHARGES


@<TRIPOS>ATOM
      1 CA          5.6389  -13.0184  -46.0786 C.3       0 UNK        -0.1800 
      2 C           5.4294  -14.1509  -47.0737 C.2       0 UNK         0.5000 
      3 O           5.7017  -15.3048  -46.7501 O.2       0 UNK        -0.5000 
      4 N           4.9485  -13.8197  -48.2749 N.am      1 UNK        -0.5000 
      5 CA          4.6081  -14.7303  -49.3654 C.3       1 UNK         0.1400 
      6 C6          5.8705  -15.3689  -50.0186 C.3       23 UNK        -0.0398 
      7 S7          5.5333  -16.6552  -51.2787 S.3       23 UNK        -0.2404 
      8 C8          5.5866  -18.2041  -50.3139 C.3       23 UNK        -0.0205 
      9 C9          4.5243  -18.2335  -49.2255 C.ar      23 UNK        -0.0193 
     10 C10         3.1709  -18.1489  -49.5603 C.ar      23 UNK        -0.1150 
     11 C11         2.1962  -18.0372  -48.5633 C.ar      23 UNK        -0.0193 
     12 C12         2.5858  -18.0831  -47.2213 C.ar      23 UNK        -0.1150 
     13 C13         3.9310  -18.2436  -46.8713 C.ar      23 UNK        -0.0193 
     14 C14         4.8949  -18.3024  -47.8811 C.ar      23 UNK        -0.1150 
     15 C15         4.3729  -18.3200  -45.4121 C.3       23 UNK        -0.0205 
     16 S16         3.2862  -19.3276  -44.3461 S.3       23 UNK        -0.2404 
     17 C17         3.1083  -20.8704  -45.3063 C.3       23 UNK        -0.0398 
     18 CA          2.9868  -22.1319  -44.4178 C.3       11 UNK         0.1400 
     19 N           1.8656  -22.0388  -43.4748 N.am      11 UNK        -0.5000 
     20 C           1.6579  -22.8568  -42.4334 C.2       10 UNK         0.5000 
     21 O           2.4460  -23.7352  -42.0822 O.2       10 UNK        -0.5000 
     22 CA          0.3179  -22.6959  -41.6950 C.3       10 UNK         0.1400 
     23 CB          0.4130  -21.6108  -40.6107 C.3       10 UNK        -0.1800 
     24 N          -0.7656  -22.3723  -42.6264 N.am      10 UNK        -0.5000 
     25 C          -1.3957  -23.2710  -43.3951 C.2       9 UNK         0.5000 
     26 O          -1.1679  -24.4798  -43.3530 O.2       9 UNK        -0.5000 
     27 CA         -2.4409  -22.7412  -44.3954 C.3       9 UNK         0.1400 
     28 CB         -3.8454  -22.7650  -43.7754 C.3       9 UNK        -0.1800 
     29 N          -2.1511  -21.3925  -44.8873 N.am      9 UNK        -0.5000 
     30 C          -1.1920  -21.1041  -45.7770 C.2       8 UNK         0.5000 
     31 O          -0.4513  -21.9481  -46.2842 O.2       8 UNK        -0.5000 
     32 CA         -1.0130  -19.6206  -46.1508 C.3       8 UNK         0.1400 
     33 CB         -2.0477  -19.2020  -47.2068 C.3       8 UNK        -0.1800 
     34 N          -1.0854  -18.6662  -45.0421 N.am      8 UNK        -0.5000 
     35 C          -0.4874  -18.7509  -43.8461 C.2       7 UNK         0.5000 
     36 O           0.0976  -19.7531  -43.4423 O.2       7 UNK        -0.5000 
     37 CA         -0.5403  -17.5070  -42.9445 C.3       7 UNK         0.1400 
     38 CB          0.7986  -16.7581  -43.0072 C.3       7 UNK        -0.1800 
     39 N          -1.6133  -16.5869  -43.3240 N.am      7 UNK        -0.5000 
     40 C          -2.8422  -16.5961  -42.7907 C.2       6 UNK         0.5000 
     41 O          -3.2067  -17.3955  -41.9279 O.2       6 UNK        -0.5000 
     42 CA         -3.8318  -15.5267  -43.2924 C.3       6 UNK         0.1400 
     43 CB         -3.8006  -14.2962  -42.3729 C.3       6 UNK        -0.1800 
     44 N          -3.5731  -15.0980  -44.6676 N.am      6 UNK        -0.5000 
     45 C          -3.8478  -15.8361  -45.7505 C.2       5 UNK         0.5000 
     46 O          -4.3519  -16.9580  -45.7071 O.2       5 UNK        -0.5000 
     47 CA         -3.4789  -15.2255  -47.1145 C.3       5 UNK         0.1400 
     48 CB         -4.6228  -14.3372  -47.6240 C.3       5 UNK        -0.1800 
     49 N          -2.2326  -14.4501  -47.1353 N.am      5 UNK        -0.5000 
     50 C          -1.0216  -14.8616  -46.7376 C.2       4 UNK         0.5000 
     51 O          -0.8251  -15.9531  -46.2027 O.2       4 UNK        -0.5000 
     52 CA          0.1574  -13.8905  -46.9762 C.3       4 UNK         0.1400 
     53 CB          1.5242  -14.5215  -46.6584 C.3       4 UNK        -0.1800 
     54 N           0.2150  -13.3550  -48.3392 N.am      4 UNK        -0.5000 
     55 C          -0.5525  -12.3799  -48.8436 C.2       3 UNK         0.5000 
     56 O          -1.5063  -11.8931  -48.2346 O.2       3 UNK        -0.5000 
     57 CA         -0.1936  -11.8418  -50.2430 C.3       3 UNK         0.1400 
     58 CB          0.1846  -10.3538  -50.1639 C.3       3 UNK        -0.1800 
     59 N           0.9237  -12.5652  -50.8548 N.am      3 UNK        -0.5000 
     60 C           0.8115  -13.5058  -51.7969 C.2       2 UNK         0.5000 
     61 O          -0.2654  -13.8829  -52.2591 O.2       2 UNK        -0.5000 
     62 CA          2.1128  -14.1644  -52.2942 C.3       2 UNK         0.1400 
     63 CB          2.8486  -13.2632  -53.3036 C.3       2 UNK        -0.1800 
     64 N           3.0103  -14.6328  -51.2282 N.am      2 UNK        -0.5000 
     65 C           3.7327  -13.9255  -50.3508 C.2       1 UNK         0.5000 
     66 O           3.7039  -12.6922  -50.2792 O.2       1 UNK        -0.5000 
     67 C           2.8870  -23.3888  -45.3127 C.2       11 UNK         0.5000 
     68 O           3.9084  -23.8382  -45.8334 O.2       11 UNK        -0.5000 
     69 N           1.6624  -23.9158  -45.4741 N.am      12 UNK        -0.5000 
     70 CA          1.2656  -25.0442  -46.3186 C.3       12 UNK         0.1400 
     71 CB          1.9115  -26.3583  -45.8331 C.3       12 UNK        -0.1800 
     72 C           1.5126  -24.7499  -47.8103 C.2       12 UNK         0.5000 
     73 O           2.1046  -25.5647  -48.5225 O.2       12 UNK        -0.5000 
     74 N           1.0628  -23.5680  -48.2524 N.am      13 UNK        -0.5000 
     75 CA          1.1913  -23.0640  -49.6201 C.3       13 UNK         0.1400 
     76 CB          1.0412  -21.5329  -49.5915 C.3       13 UNK        -0.1800 
     77 C           0.2002  -23.7548  -50.5834 C.2       13 UNK         0.5000 
     78 O          -0.7240  -23.1145  -51.0869 O.2       13 UNK        -0.5000 
     79 N           0.4207  -25.0592  -50.7988 N.am      14 UNK        -0.5000 
     80 CA         -0.4020  -26.0152  -51.5485 C.3       14 UNK         0.1400 
     81 CB         -0.6208  -25.5534  -53.0068 C.3       14 UNK        -0.1800 
     82 C          -1.7182  -26.3657  -50.8200 C.2       14 UNK         0.5000 
     83 O          -1.8996  -26.0165  -49.6508 O.2       14 UNK        -0.5000 
     84 N          -2.5986  -27.1057  -51.5051 N.am      15 UNK        -0.5000 
     85 CA         -3.9163  -27.4953  -51.0046 C.3       15 UNK         0.1400 
     86 CB         -4.4517  -28.6597  -51.8522 C.3       15 UNK        -0.1800 
     87 C          -4.8930  -26.3067  -51.0400 C.2       15 UNK         0.5000 
     88 O          -4.8895  -25.5501  -52.0140 O.2       15 UNK        -0.5000 
     89 N          -5.7182  -26.1852  -49.9884 N.am      16 UNK        -0.5000 
     90 CA         -6.7469  -25.1525  -49.7867 C.3       16 UNK         0.1400 
     91 CB         -7.8971  -25.3341  -50.7990 C.3       16 UNK        -0.1800 
     92 C          -6.1779  -23.7155  -49.7807 C.2       16 UNK         0.5000 
     93 O          -6.8352  -22.7849  -50.2467 O.2       16 UNK        -0.5000 
     94 N          -4.9553  -23.5685  -49.2540 N.am      17 UNK        -0.5000 
     95 CA         -4.1098  -22.3760  -49.3338 C.3       17 UNK         0.1400 
     96 CB         -2.8184  -22.6628  -48.5611 C.3       17 UNK        -0.1800 
     97 C          -4.7553  -21.0752  -48.8205 C.2       17 UNK         0.5000 
     98 O          -4.5875  -20.0248  -49.4425 O.2       17 UNK        -0.5000 
     99 N          -5.4844  -21.1673  -47.7002 N.am      18 UNK        -0.5000 
    100 CA        -6.1800  -20.0356  -47.0832 C.3       18 UNK         0.1400 
    101 CB        -6.4226  -20.3314  -45.5965 C.3       18 UNK        -0.1800 
    102 C         -7.4985  -19.6819  -47.7957 C.2       18 UNK         0.5000 
    103 O         -7.8875  -18.5147  -47.7888 O.2       18 UNK        -0.5000 
    104 N         -8.1471  -20.6744  -48.4228 N.am      19 UNK        -0.5000 
    105 CA        -9.3519  -20.4858  -49.2370 C.3       19 UNK         0.1400 
    106 CB       -10.0937  -21.8220  -49.3860 C.3       19 UNK        -0.1800 
    107 C         -9.0103  -19.8851  -50.6123 C.2       19 UNK         0.5000 
    108 O         -9.7401  -19.0232  -51.1025 O.2       19 UNK        -0.5000 
    109 N         -7.8723  -20.3121  -51.1783 N.am      20 UNK        -0.5000 
    110 CA        -7.2346  -19.7191  -52.3558 C.3       20 UNK         0.1400 
    111 CB        -6.1270  -20.6654  -52.8446 C.3       20 UNK        -0.1800 
    112 C         -6.6584  -18.3136  -52.0809 C.2       20 UNK         0.5000 
    113 O         -6.4566  -17.5491  -53.0246 O.2       20 UNK        -0.5000 
    114 N         -6.4253  -18.0087  -50.7955 N.am      21 UNK        -0.5000 
    115 CA        -5.9004  -16.7640  -50.2362 C.3       21 UNK         0.1400 
    116 CB        -6.8754  -15.5942  -50.4868 C.3       21 UNK        -0.1800 
    117 C         -4.4614  -16.4805  -50.7038 C.2       21 UNK         0.5000 
    118 O         -4.1588  -15.3653  -51.1307 O.2       21 UNK        -0.5000 
    119 N         -3.6001  -17.5023  -50.5977 N.am      22 UNK        -0.5000 
    120 CA        -2.1982  -17.4807  -51.0371 C.3       22 UNK         0.1400 
    121 C         -2.0890  -17.3845  -52.5898 C.2       22 UNK         0.5000 
    122 N         -1.4620  -16.3659  -53.1647 N.am      22 UNK        -0.7600 
    123 O         -2.5539  -18.2791  -53.2916 O.2       22 UNK        -0.5000 
    124 C124       -1.3505  -16.4629  -50.2224 C.3       23 UNK        -0.0398 
    125 S125        0.4450  -16.7441  -50.3200 S.3       23 UNK        -0.2404 
    126 C126        0.7236  -17.8600  -48.9109 C.3       23 UNK        -0.0205 
    127 H127        5.3638  -12.0514  -46.5004 H         1 UNK         0.0600 
    128 H128        6.6852  -12.9729  -45.7765 H         1 UNK         0.0600 
    129 H129        5.0323  -13.1860  -45.1886 H         1 UNK         0.0600 
    130 H130        4.7269  -12.8545  -48.4924 H         1 UNK         0.3000 
    131 H131        3.9809  -15.5148  -48.9408 H         1 UNK         0.0600 
    132 H132        6.4813  -14.5931  -50.4828 H         1 UNK         0.0800 
    133 H133        6.5025  -15.8172  -49.2515 H         1 UNK         0.0800 
    134 H134        5.4285  -19.0476  -50.9870 H         1 UNK         0.0800 
    135 H135        6.5851  -18.3282  -49.8919 H         1 UNK         0.0800 
    136 H136        2.8857  -18.1180  -50.6021 H         1 UNK         0.1150 
    137 H137        1.8409  -17.9939  -46.4431 H         1 UNK         0.1150 
    138 H138        5.9406  -18.3762  -47.6175 H         1 UNK         0.1150 
    139 H139        5.3840  -18.7240  -45.3432 H         1 UNK         0.0800 
    140 H140        4.4179  -17.3068  -45.0108 H         1 UNK         0.0800 
    141 H141        2.2321  -20.7686  -45.9493 H         1 UNK         0.0800 
    142 H142        3.9681  -20.9653  -45.9724 H         1 UNK         0.0800 
    143 H143        3.9048  -22.2241  -43.8337 H         1 UNK         0.0600 
    144 H144        1.2060  -21.2804  -43.6298 H         1 UNK         0.3000 
    145 H145        0.0889  -23.6432  -41.2020 H         1 UNK         0.0600 
    146 H146       -0.5314  -21.5032  -40.0771 H         1 UNK         0.0600 
    147 H147        0.6757  -20.6383  -41.0273 H         1 UNK         0.0600 
    148 H148        1.1757  -21.8658  -39.8741 H         1 UNK         0.0600 
    149 H149       -0.9303  -21.3862  -42.7909 H         1 UNK         0.3000 
    150 H150       -2.4411  -23.4255  -45.2464 H         1 UNK         0.0600 
    151 H151       -4.0719  -23.7456  -43.3543 H         1 UNK         0.0600 
    152 H152       -4.6075  -22.5568  -44.5254 H         1 UNK         0.0600 
    153 H153       -3.9465  -22.0319  -42.9743 H         1 UNK         0.0600 
    154 H154       -2.6972  -20.6345  -44.5049 H         1 UNK         0.3000 
    155 H155       -0.0174  -19.5195  -46.5834 H         1 UNK         0.0600 
    156 H156       -1.8950  -19.7306  -48.1457 H         1 UNK         0.0600 
    157 H157       -1.9844  -18.1388  -47.4308 H         1 UNK         0.0600 
    158 H158       -3.0657  -19.3990  -46.8702 H         1 UNK         0.0600 
    159 H159       -1.4830  -17.7661  -45.2790 H         1 UNK         0.3000 
    160 H160       -0.6878  -17.8470  -41.9173 H         1 UNK         0.0600 
    161 H161        1.0532  -16.4789  -44.0294 H         1 UNK         0.0600 
    162 H162        1.6093  -17.3814  -42.6284 H         1 UNK         0.0600 
    163 H163        0.7769  -15.8513  -42.4027 H         1 UNK         0.0600 
    164 H164       -1.4071  -15.9387  -44.0730 H         1 UNK         0.3000 
    165 H165       -4.8341  -15.9584  -43.2479 H         1 UNK         0.0600 
    166 H166       -4.5476  -13.5608  -42.6724 H         1 UNK         0.0600 
    167 H167       -4.0162  -14.5744  -41.3404 H         1 UNK         0.0600 
    168 H168       -2.8248  -13.8089  -42.3845 H         1 UNK         0.0600 
    169 H169       -3.1596  -14.1860  -44.7955 H         1 UNK         0.3000 
    170 H170       -3.3643  -16.0572  -47.8093 H         1 UNK         0.0600 
    171 H171       -4.7558  -13.4552  -46.9964 H         1 UNK         0.0600 
    172 H172       -4.4334  -13.9957  -48.6418 H         1 UNK         0.0600 
    173 H173       -5.5692  -14.8794  -47.6309 H         1 UNK         0.0600 
    174 H174       -2.2831  -13.5216  -47.5448 H         1 UNK         0.3000 
    175 H175        0.0145  -13.0560  -46.2868 H         1 UNK         0.0600 
    176 H176        1.7447  -15.3556  -47.3239 H         1 UNK         0.0600 
    177 H177        2.3264  -13.7913  -46.7621 H         1 UNK         0.0600 
    178 H178        1.5634  -14.8929  -45.6350 H         1 UNK         0.0600 
    179 H179        0.9340  -13.7340  -48.9362 H         1 UNK         0.3000 
    180 H180       -1.0883  -11.9321  -50.8623 H         1 UNK         0.0600 
    181 H181        0.4013   -9.9504  -51.1532 H         1 UNK         0.0600 
    182 H182        1.0635  -10.1951  -49.5376 H         1 UNK         0.0600 
    183 H183       -0.6300   -9.7614  -49.7451 H         1 UNK         0.0600 
    184 H184        1.8609  -12.3292  -50.5381 H         1 UNK         0.3000 
    185 H185        1.8135  -15.0664  -52.8306 H         1 UNK         0.0600 
    186 H186        3.7321  -13.7609  -53.7035 H         1 UNK         0.0600 
    187 H187        2.2023  -13.0198  -54.1477 H         1 UNK         0.0600 
    188 H188        3.1672  -12.3207  -52.8579 H         1 UNK         0.0600 
    189 H189        3.0923  -15.6393  -51.1766 H         1 UNK         0.3000 
    190 H190        0.8961  -23.4184  -45.0418 H         1 UNK         0.3000 
    191 H191        0.1856  -25.1471  -46.2022 H         1 UNK         0.0600 
    192 H192        1.5184  -27.2116  -46.3866 H         1 UNK         0.0600 
    193 H193        1.7023  -26.5315  -44.7774 H         1 UNK         0.0600 
    194 H194        2.9937  -26.3552  -45.9648 H         1 UNK         0.0600 
    195 H195        0.5593  -22.9735  -47.5994 H         1 UNK         0.3000 
    196 H196        2.1988  -23.2850  -49.9789 H         1 UNK         0.0600 
    197 H197        1.1424  -21.1081  -50.5910 H         1 UNK         0.0600 
    198 H198        1.8078  -21.0752  -48.9657 H         1 UNK         0.0600 
    199 H199        0.0702  -21.2316  -49.2012 H         1 UNK         0.0600 
    200 H200        1.1636  -25.4766  -50.2455 H         1 UNK         0.3000 
    201 H201        0.1809  -26.9366  -51.5795 H         1 UNK         0.0600 
    202 H202       -1.3404  -24.7365  -53.0713 H         1 UNK         0.0600 
    203 H203       -0.9961  -26.3667  -53.6282 H         1 UNK         0.0600 
    204 H204        0.3120  -25.2143  -53.4575 H         1 UNK         0.0600 
    205 H205       -2.3999  -27.3358  -52.4674 H         1 UNK         0.3000 
    206 H206       -3.8099  -27.8418  -49.9742 H         1 UNK         0.0600 
    207 H207       -3.7827  -29.5194  -51.8096 H         1 UNK         0.0600 
    208 H208       -5.4267  -28.9891  -51.4908 H         1 UNK         0.0600 
    209 H209       -4.5688  -28.3762  -52.8990 H         1 UNK         0.0600 
    210 H210       -5.6389  -26.8625  -49.2422 H         1 UNK         0.3000 
    211 H211       -7.1577  -25.3179  -48.7898 H         1 UNK         0.0600 
    212 H212       -7.5836  -25.0944  -51.8155 H         1 UNK         0.0600 
    213 H213       -8.7399  -24.6875  -50.5568 H         1 UNK         0.0600 
    214 H214       -8.2679  -26.3590  -50.7955 H         1 UNK         0.0600 
    215 H215       -4.5022  -24.3998  -48.9033 H         1 UNK         0.3000 
    216 H216       -3.8564  -22.2294  -50.3857 H         1 UNK         0.0600 
    217 H217       -2.0921  -21.8678  -48.7084 H         1 UNK         0.0600 
    218 H218       -2.3467  -23.5826  -48.9001 H         1 UNK         0.0600 
    219 H219       -3.0022  -22.7614  -47.4920 H         1 UNK         0.0600 
    220 H220       -5.5767  -22.0674  -47.2530 H         1 UNK         0.3000 
    221 H221       -5.5371  -19.1543  -47.1429 H         1 UNK         0.0600 
    222 H222       -6.9822  -19.5231  -45.1236 H         1 UNK         0.0600 
    223 H223       -5.4789  -20.4204  -45.0594 H         1 UNK         0.0600 
    224 H224       -6.9876  -21.2529  -45.4520 H         1 UNK         0.0600 
    225 H225       -7.7304  -21.5943  -48.4398 H         1 UNK         0.3000 
    226 H226      -10.0163  -19.7888  -48.7215 H         1 UNK         0.0600 
    227 H227      -10.3527  -22.2411  -48.4137 H         1 UNK         0.0600 
    228 H228      -11.0228  -21.6899  -49.9418 H         1 UNK         0.0600 
    229 H229       -9.4959  -22.5581  -49.9215 H         1 UNK         0.0600 
    230 H230       -7.3845  -21.0950  -50.7479 H         1 UNK         0.3000 
    231 H231       -7.9851  -19.6252  -53.1432 H         1 UNK         0.0600 
    232 H232       -5.6488  -20.2768  -53.7446 H         1 UNK         0.0600 
    233 H233       -6.5266  -21.6507  -53.0857 H         1 UNK         0.0600 
    234 H234       -5.3496  -20.7957  -52.0908 H         1 UNK         0.0600 
    235 H235       -6.5889  -18.7443  -50.1234 H         1 UNK         0.3000 
    236 H236       -5.8442  -16.9174  -49.1575 H         1 UNK         0.0600 
    237 H237       -6.9624  -15.3561  -51.5471 H         1 UNK         0.0600 
    238 H238       -7.8721  -15.8282  -50.1123 H         1 UNK         0.0600 
    239 H239       -6.5424  -14.6893  -49.9783 H         1 UNK         0.0600 
    240 H240       -3.9486  -18.3984  -50.2657 H         1 UNK         0.3000 
    241 H241       -1.8199  -18.4734  -50.7896 H         1 UNK         0.0600 
    242 H242       -1.4015  -16.3427  -54.1695 H         1 UNK         0.3800 
    243 H243       -1.0849  -15.5877  -52.6321 H         1 UNK         0.3800 
    244 H244       -1.6299  -16.5146  -49.1733 H         1 UNK         0.0800 
    245 H245       -1.5659  -15.4384  -50.5261 H         1 UNK         0.0800 
    246 H246        0.2843  -18.8310  -49.1324 H         1 UNK         0.0800 
    247 H247        0.1976  -17.4597  -48.0462 H         1 UNK         0.0800 
@<TRIPOS>BOND
     1    1    2 1    
     2    1  127 1    
     3    1  128 1    
     4    1  129 1    
     5    2    3 2    
     6    2    4 am   BACKBONE|DICT|INTERRES
     7    4    5 1    
     8    4  130 1    
     9    5    6 1    
    10    5   65 1    
    11    5  131 1    
    12    6    7 1    
    13    6  132 1    
    14    6  133 1    
    15    7    8 1    
    16    8    9 1    
    17    8  134 1    
    18    8  135 1    
    19    9   10 ar   
    20    9   14 ar   
    21   10   11 ar   
    22   10  136 1    
    23   11   12 ar   
    24   11  126 1    
    25   12   13 ar   
    26   12  137 1    
    27   13   14 ar   
    28   13   15 1    
    29   14  138 1    
    30   15   16 1    
    31   15  139 1    
    32   15  140 1    
    33   16   17 1    
    34   17   18 1    
    35   17  141 1    
    36   17  142 1    
    37   18   19 1    
    38   18   67 1    
    39   18  143 1    
    40   19   20 am   BACKBONE|DICT|INTERRES
    41   19  144 1    
    42   20   21 2    
    43   20   22 1    
    44   22   23 1    
    45   22   24 1    
    46   22  145 1    
    47   23  146 1    
    48   23  147 1    
    49   23  148 1    
    50   24   25 am   BACKBONE|DICT|INTERRES
    51   24  149 1    
    52   25   26 2    
    53   25   27 1    
    54   27   28 1    
    55   27   29 1    
    56   27  150 1    
    57   28  151 1    
    58   28  152 1    
    59   28  153 1    
    60   29   30 am   BACKBONE|DICT|INTERRES
    61   29  154 1    
    62   30   31 2    
    63   30   32 1    
    64   32   33 1    
    65   32   34 1    
    66   32  155 1    
    67   33  156 1    
    68   33  157 1    
    69   33  158 1    
    70   34   35 am   BACKBONE|DICT|INTERRES
    71   34  159 1    
    72   35   36 2    
    73   35   37 1    
    74   37   38 1    
    75   37   39 1    
    76   37  160 1    
    77   38  161 1    
    78   38  162 1    
    79   38  163 1    
    80   39   40 am   BACKBONE|DICT|INTERRES
    81   39  164 1    
    82   40   41 2    
    83   40   42 1    
    84   42   43 1    
    85   42   44 1    
    86   42  165 1    
    87   43  166 1    
    88   43  167 1    
    89   43  168 1    
    90   44   45 am   BACKBONE|DICT|INTERRES
    91   44  169 1    
    92   45   46 2    
    93   45   47 1    
    94   47   48 1    
    95   47   49 1    
    96   47  170 1    
    97   48  171 1    
    98   48  172 1    
    99   48  173 1    
   100   49   50 am   BACKBONE|DICT|INTERRES
   101   49  174 1    
   102   50   51 2    
   103   50   52 1    
   104   52   53 1    
   105   52   54 1    
   106   52  175 1    
   107   53  176 1    
   108   53  177 1    
   109   53  178 1    
   110   54   55 am   BACKBONE|DICT|INTERRES
   111   54  179 1    
   112   55   56 2    
   113   55   57 1    
   114   57   58 1    
   115   57   59 1    
   116   57  180 1    
   117   58  181 1    
   118   58  182 1    
   119   58  183 1    
   120   59   60 am   BACKBONE|DICT|INTERRES
   121   59  184 1    
   122   60   61 2    
   123   60   62 1    
   124   62   63 1    
   125   62   64 1    
   126   62  185 1    
   127   63  186 1    
   128   63  187 1    
   129   63  188 1    
   130   64   65 am   BACKBONE|DICT|INTERRES
   131   64  189 1    
   132   65   66 2    
   133   67   68 2    
   134   67   69 am   BACKBONE|DICT|INTERRES
   135   69   70 1    
   136   69  190 1    
   137   70   71 1    
   138   70   72 1    
   139   70  191 1    
   140   71  192 1    
   141   71  193 1    
   142   71  194 1    
   143   72   73 2    
   144   72   74 am   BACKBONE|DICT|INTERRES
   145   74   75 1    
   146   74  195 1    
   147   75   76 1    
   148   75   77 1    
   149   75  196 1    
   150   76  197 1    
   151   76  198 1    
   152   76  199 1    
   153   77   78 2    
   154   77   79 am   BACKBONE|DICT|INTERRES
   155   79   80 1    
   156   79  200 1    
   157   80   81 1    
   158   80   82 1    
   159   80  201 1    
   160   81  202 1    
   161   81  203 1    
   162   81  204 1    
   163   82   83 2    
   164   82   84 am   BACKBONE|DICT|INTERRES
   165   84   85 1    
   166   84  205 1    
   167   85   86 1    
   168   85   87 1    
   169   85  206 1    
   170   86  207 1    
   171   86  208 1    
   172   86  209 1    
   173   87   88 2    
   174   87   89 am   BACKBONE|DICT|INTERRES
   175   89   90 1    
   176   89  210 1    
   177   90   91 1    
   178   90   92 1    
   179   90  211 1    
   180   91  212 1    
   181   91  213 1    
   182   91  214 1    
   183   92   93 2    
   184   92   94 am   BACKBONE|DICT|INTERRES
   185   94   95 1    
   186   94  215 1    
   187   95   96 1    
   188   95   97 1    
   189   95  216 1    
   190   96  217 1    
   191   96  218 1    
   192   96  219 1    
   193   97   98 2    
   194   97   99 am   BACKBONE|DICT|INTERRES
   195   99  100 1    
   196   99  220 1    
   197  100  101 1    
   198  100  102 1    
   199  100  221 1    
   200  101  222 1    
   201  101  223 1    
   202  101  224 1    
   203  102  103 2    
   204  102  104 am   BACKBONE|DICT|INTERRES
   205  104  105 1    
   206  104  225 1    
   207  105  106 1    
   208  105  107 1    
   209  105  226 1    
   210  106  227 1    
   211  106  228 1    
   212  106  229 1    
   213  107  108 2    
   214  107  109 am   BACKBONE|DICT|INTERRES
   215  109  110 1    
   216  109  230 1    
   217  110  111 1    
   218  110  112 1    
   219  110  231 1    
   220  111  232 1    
   221  111  233 1    
   222  111  234 1    
   223  112  113 2    
   224  112  114 am   BACKBONE|DICT|INTERRES
   225  114  115 1    
   226  114  235 1    
   227  115  116 1    
   228  115  117 1    
   229  115  236 1    
   230  116  237 1    
   231  116  238 1    
   232  116  239 1    
   233  117  118 2    
   234  117  119 am   BACKBONE|DICT|INTERRES
   235  119  120 1    
   236  119  240 1    
   237  120  121 1    
   238  120  124 1    
   239  120  241 1    
   240  121  122 am   BACKBONE|DICT|INTERRES
   241  121  123 2    
   242  122  242 1    
   243  122  243 1    
   244  124  125 1    
   245  124  244 1    
   246  124  245 1    
   247  125  126 1    
   248  126  246 1    
   249  126  247 1    
@<TRIPOS>SUBSTRUCTURE
     1 UNK         1 GROUP             0       ****    0 ROOT    
