@<TRIPOS>MOLECULE
3R540
247   249    1
SMALL
USER_CHARGES


@<TRIPOS>ATOM
      1 CA         -2.0393  -14.5746  -50.5873 C.3       0 UNK        -0.1800 
      2 C          -1.5876  -14.1277  -49.2048 C.2       0 UNK         0.5000 
      3 O          -2.1573  -13.1941  -48.6411 O.2       0 UNK        -0.5000 
      4 N          -0.5794  -14.8057  -48.6444 N.am      1 UNK        -0.5000 
      5 CA          0.0040  -14.5399  -47.3221 C.3       1 UNK         0.1400 
      6 C6          1.4959  -14.9591  -47.2509 C.3       23 UNK        -0.0398 
      7 S7          1.7817  -16.7060  -47.6982 S.3       23 UNK        -0.2404 
      8 C8          2.7046  -16.5213  -49.2526 C.3       23 UNK        -0.0205 
      9 C9          2.7733  -17.8335  -50.0161 C.ar      23 UNK        -0.0193 
     10 C10         2.0527  -17.9971  -51.2024 C.ar      23 UNK        -0.1150 
     11 C11         2.1377  -19.1908  -51.9242 C.ar      23 UNK        -0.0193 
     12 C12         2.9324  -20.2337  -51.4413 C.ar      23 UNK        -0.1150 
     13 C13         3.6486  -20.0858  -50.2503 C.ar      23 UNK        -0.0193 
     14 C14         3.5736  -18.8791  -49.5480 C.ar      23 UNK        -0.1150 
     15 C15         4.5163  -21.2241  -49.7339 C.3       23 UNK        -0.0205 
     16 S16         3.5279  -22.5793  -49.0248 S.3       23 UNK        -0.2404 
     17 C17         2.8303  -21.7851  -47.5380 C.3       23 UNK        -0.0398 
     18 CA          1.4274  -22.3208  -47.1695 C.3       11 UNK         0.1400 
     19 N           1.1030  -22.0275  -45.7735 N.am      11 UNK        -0.5000 
     20 C           0.1292  -22.6261  -45.0742 C.2       10 UNK         0.5000 
     21 O          -0.6003  -23.5036  -45.5350 O.2       10 UNK        -0.5000 
     22 CA         -0.0906  -22.1426  -43.6269 C.3       10 UNK         0.1400 
     23 CB          0.7588  -22.9726  -42.6538 C.3       10 UNK        -0.1800 
     24 N           0.1957  -20.7188  -43.4356 N.am      10 UNK        -0.5000 
     25 C          -0.4410  -19.7280  -44.0770 C.2       9 UNK         0.5000 
     26 O          -1.3673  -19.9105  -44.8654 O.2       9 UNK        -0.5000 
     27 CA          0.0638  -18.2956  -43.8572 C.3       9 UNK         0.1400 
     28 CB         -0.6917  -17.6283  -42.7009 C.3       9 UNK        -0.1800 
     29 N           1.5032  -18.1744  -43.6352 N.am      9 UNK        -0.5000 
     30 C           2.4618  -18.5900  -44.4754 C.2       8 UNK         0.5000 
     31 O           2.2537  -19.2808  -45.4731 O.2       8 UNK        -0.5000 
     32 CA          3.8971  -18.1823  -44.1168 C.3       8 UNK         0.1400 
     33 CB          4.1050  -16.6721  -44.3202 C.3       8 UNK        -0.1800 
     34 N           4.1826  -18.5320  -42.7284 N.am      8 UNK        -0.5000 
     35 C           4.7447  -19.6845  -42.3418 C.2       7 UNK         0.5000 
     36 O           5.1884  -20.5275  -43.1223 O.2       7 UNK        -0.5000 
     37 CA          4.8115  -19.9552  -40.8253 C.3       7 UNK         0.1400 
     38 CB          6.1481  -19.4629  -40.2498 C.3       7 UNK        -0.1800 
     39 N           3.7147  -19.3516  -40.0650 N.am      7 UNK        -0.5000 
     40 C           2.4169  -19.6493  -40.2173 C.2       6 UNK         0.5000 
     41 O           1.9886  -20.4672  -41.0310 O.2       6 UNK        -0.5000 
     42 CA          1.4225  -18.8678  -39.3395 C.3       6 UNK         0.1400 
     43 CB          1.2560  -19.5614  -37.9791 C.3       6 UNK        -0.1800 
     44 N           1.7553  -17.4543  -39.1213 N.am      6 UNK        -0.5000 
     45 C           2.0421  -16.5473  -40.0659 C.2       5 UNK         0.5000 
     46 O           2.2174  -16.8168  -41.2573 O.2       5 UNK        -0.5000 
     47 CA          2.1938  -15.0921  -39.5866 C.3       5 UNK         0.1400 
     48 CB          3.6573  -14.8066  -39.2174 C.3       5 UNK        -0.1800 
     49 N           1.7686  -14.1345  -40.6087 N.am      5 UNK        -0.5000 
     50 C           0.5210  -14.0149  -41.0838 C.2       4 UNK         0.5000 
     51 O          -0.4414  -14.6342  -40.6227 O.2       4 UNK        -0.5000 
     52 CA          0.3356  -13.0314  -42.2600 C.3       4 UNK         0.1400 
     53 CB          1.4624  -13.1627  -43.3050 C.3       4 UNK        -0.1800 
     54 N          -0.9541  -13.2125  -42.9310 N.am      4 UNK        -0.5000 
     55 C          -2.1104  -12.6575  -42.5379 C.2       3 UNK         0.5000 
     56 O          -2.2018  -11.9130  -41.5600 O.2       3 UNK        -0.5000 
     57 CA         -3.3771  -12.9336  -43.3792 C.3       3 UNK         0.1400 
     58 CB         -3.8604  -11.6425  -44.0606 C.3       3 UNK        -0.1800 
     59 N          -3.1834  -13.9499  -44.4142 N.am      3 UNK        -0.5000 
     60 C          -3.3400  -15.2690  -44.2420 C.2       2 UNK         0.5000 
     61 O          -3.7412  -15.7764  -43.1950 O.2       2 UNK        -0.5000 
     62 CA         -2.9767  -16.1814  -45.4362 C.3       2 UNK         0.1400 
     63 CB         -4.2430  -16.6500  -46.1696 C.3       2 UNK        -0.1800 
     64 N          -2.0592  -15.5820  -46.4137 N.am      2 UNK        -0.5000 
     65 C          -0.8249  -15.1257  -46.1544 C.2       1 UNK         0.5000 
     66 O          -0.3433  -15.1338  -45.0240 O.2       1 UNK        -0.5000 
     67 C           0.3246  -21.8057  -48.1194 C.2       11 UNK         0.5000 
     68 O          -0.0797  -22.5298  -49.0297 O.2       11 UNK        -0.5000 
     69 N          -0.1901  -20.5956  -47.8530 N.am      12 UNK        -0.5000 
     70 CA         -1.3308  -20.0282  -48.5718 C.3       12 UNK         0.1400 
     71 CB         -1.4392  -18.5234  -48.2952 C.3       12 UNK        -0.1800 
     72 C          -2.6469  -20.7443  -48.2275 C.2       12 UNK         0.5000 
     73 O          -3.4466  -20.9944  -49.1284 O.2       12 UNK        -0.5000 
     74 N          -2.8494  -21.0876  -46.9472 N.am      13 UNK        -0.5000 
     75 CA         -4.0173  -21.8202  -46.4489 C.3       13 UNK         0.1400 
     76 CB         -3.9754  -21.8953  -44.9171 C.3       13 UNK        -0.1800 
     77 C          -4.1526  -23.2277  -47.0575 C.2       13 UNK         0.5000 
     78 O          -5.2674  -23.6401  -47.3773 O.2       13 UNK        -0.5000 
     79 N          -3.0188  -23.9094  -47.2781 N.am      14 UNK        -0.5000 
     80 CA         -2.9363  -25.1866  -47.9954 C.3       14 UNK         0.1400 
     81 CB         -1.5111  -25.7458  -47.8720 C.3       14 UNK        -0.1800 
     82 C          -3.3547  -25.0884  -49.4785 C.2       14 UNK         0.5000 
     83 O          -3.7874  -26.0872  -50.0533 O.2       14 UNK        -0.5000 
     84 N          -3.2576  -23.8832  -50.0536 N.am      15 UNK        -0.5000 
     85 CA         -3.7296  -23.5234  -51.3890 C.3       15 UNK         0.1400 
     86 CB         -2.6658  -22.6353  -52.0566 C.3       15 UNK        -0.1800 
     87 C          -5.1127  -22.8352  -51.3444 C.2       15 UNK         0.5000 
     88 O          -5.4637  -22.1228  -52.2855 O.2       15 UNK        -0.5000 
     89 N          -5.8680  -23.0372  -50.2523 N.am      16 UNK        -0.5000 
     90 CA         -7.2125  -22.5119  -49.9876 C.3       16 UNK         0.1400 
     91 CB         -8.2413  -23.1409  -50.9501 C.3       16 UNK        -0.1800 
     92 C          -7.2599  -20.9698  -49.9554 C.2       16 UNK         0.5000 
     93 O          -8.1607  -20.3631  -50.5348 O.2       16 UNK        -0.5000 
     94 N          -6.2657  -20.3768  -49.2795 N.am      17 UNK        -0.5000 
     95 CA         -5.9701  -18.9425  -49.1922 C.3       17 UNK         0.1400 
     96 CB         -7.1342  -18.1452  -48.5677 C.3       17 UNK        -0.1800 
     97 C          -5.4804  -18.3850  -50.5433 C.2       17 UNK         0.5000 
     98 O          -5.9091  -17.3115  -50.9691 O.2       17 UNK        -0.5000 
     99 N          -4.5794  -19.1487  -51.1808 N.am      18 UNK        -0.5000 
    100 CA        -3.9455  -18.8947  -52.4786 C.3       18 UNK         0.1400 
    101 CB        -2.9880  -17.6892  -52.3808 C.3       18 UNK        -0.1800 
    102 C         -4.9516  -18.7756  -53.6454 C.2       18 UNK         0.5000 
    103 O         -4.7571  -17.9671  -54.5556 O.2       18 UNK        -0.5000 
    104 N         -6.0118  -19.5911  -53.6082 N.am      19 UNK        -0.5000 
    105 CA        -7.0944  -19.6114  -54.5881 C.3       19 UNK         0.1400 
    106 CB        -8.3800  -20.0991  -53.9009 C.3       19 UNK        -0.1800 
    107 C         -6.7074  -20.4822  -55.7953 C.2       19 UNK         0.5000 
    108 O         -7.1364  -21.6330  -55.8930 O.2       19 UNK        -0.5000 
    109 N         -5.8562  -19.9269  -56.6693 N.am      20 UNK        -0.5000 
    110 CA        -5.3191  -20.4803  -57.9242 C.3       20 UNK         0.1400 
    111 CB        -6.4461  -20.8354  -58.9124 C.3       20 UNK        -0.1800 
    112 C         -4.3409  -21.6607  -57.7524 C.2       20 UNK         0.5000 
    113 O         -3.3788  -21.7599  -58.5156 O.2       20 UNK        -0.5000 
    114 N         -4.5544  -22.4995  -56.7303 N.am      21 UNK        -0.5000 
    115 CA        -3.7154  -23.6393  -56.3430 C.3       21 UNK         0.1400 
    116 CB        -4.4121  -24.3938  -55.2006 C.3       21 UNK        -0.1800 
    117 C         -2.2725  -23.2585  -55.9473 C.2       21 UNK         0.5000 
    118 O         -1.3922  -24.1194  -55.9603 O.2       21 UNK        -0.5000 
    119 N         -2.0563  -21.9752  -55.6328 N.am      22 UNK        -0.5000 
    120 CA        -0.7389  -21.3506  -55.4477 C.3       22 UNK         0.1400 
    121 C          0.0969  -21.2150  -56.7579 C.2       22 UNK         0.5000 
    122 N         -0.4785  -21.3713  -57.9457 N.am      22 UNK        -0.7600 
    123 O          1.2966  -20.9627  -56.6928 O.2       22 UNK        -0.5000 
    124 C124       -0.8700  -19.9799  -54.7204 C.3       23 UNK        -0.0398 
    125 S125       -0.2632  -20.0372  -53.0026 S.3       23 UNK        -0.2404 
    126 C126        1.3967  -19.3394  -53.2411 C.3       23 UNK        -0.0205 
    127 H127       -3.0752  -14.9117  -50.5515 H         1 UNK         0.0600 
    128 H128       -1.4270  -15.3920  -50.9689 H         1 UNK         0.0600 
    129 H129       -1.9736  -13.7446  -51.2906 H         1 UNK         0.0600 
    130 H130       -0.1638  -15.5809  -49.1409 H         1 UNK         0.3000 
    131 H131       -0.0161  -13.4594  -47.1646 H         1 UNK         0.0600 
    132 H132        2.0793  -14.3174  -47.9121 H         1 UNK         0.0800 
    133 H133        1.9082  -14.7853  -46.2553 H         1 UNK         0.0800 
    134 H134        2.2363  -15.7514  -49.8677 H         1 UNK         0.0800 
    135 H135        3.7145  -16.1716  -49.0334 H         1 UNK         0.0800 
    136 H136        1.4358  -17.1913  -51.5747 H         1 UNK         0.1150 
    137 H137        2.9948  -21.1617  -51.9924 H         1 UNK         0.1150 
    138 H138        4.1293  -18.7525  -48.6292 H         1 UNK         0.1150 
    139 H139        5.1158  -21.6184  -50.5556 H         1 UNK         0.0800 
    140 H140        5.2245  -20.8644  -48.9858 H         1 UNK         0.0800 
    141 H141        2.8056  -20.7020  -47.6542 H         1 UNK         0.0800 
    142 H142        3.5282  -21.9781  -46.7219 H         1 UNK         0.0800 
    143 H143        1.4520  -23.4090  -47.2642 H         1 UNK         0.0600 
    144 H144        1.6035  -21.2528  -45.3518 H         1 UNK         0.3000 
    145 H145       -1.1401  -22.3046  -43.3782 H         1 UNK         0.0600 
    146 H146        0.5221  -22.7281  -41.6183 H         1 UNK         0.0600 
    147 H147        0.5751  -24.0400  -42.7838 H         1 UNK         0.0600 
    148 H148        1.8254  -22.8001  -42.8039 H         1 UNK         0.0600 
    149 H149        0.9361  -20.4886  -42.7801 H         1 UNK         0.3000 
    150 H150       -0.1571  -17.7480  -44.7738 H         1 UNK         0.0600 
    151 H151       -1.7705  -17.7328  -42.8176 H         1 UNK         0.0600 
    152 H152       -0.4717  -16.5621  -42.6528 H         1 UNK         0.0600 
    153 H153       -0.4264  -18.0682  -41.7420 H         1 UNK         0.0600 
    154 H154        1.7780  -17.6365  -42.8162 H         1 UNK         0.3000 
    155 H155        4.5782  -18.7077  -44.7897 H         1 UNK         0.0600 
    156 H156        5.1349  -16.3861  -44.1072 H         1 UNK         0.0600 
    157 H157        3.8947  -16.3865  -45.3515 H         1 UNK         0.0600 
    158 H158        3.4545  -16.0789  -43.6763 H         1 UNK         0.0600 
    159 H159        3.7853  -17.9241  -42.0213 H         1 UNK         0.3000 
    160 H160        4.7553  -21.0366  -40.6843 H         1 UNK         0.0600 
    161 H161        6.2476  -18.3800  -40.3347 H         1 UNK         0.0600 
    162 H162        6.9902  -19.9125  -40.7778 H         1 UNK         0.0600 
    163 H163        6.2472  -19.7289  -39.1973 H         1 UNK         0.0600 
    164 H164        3.9662  -18.6515  -39.3829 H         1 UNK         0.3000 
    165 H165        0.4561  -18.8975  -39.8430 H         1 UNK         0.0600 
    166 H166        0.4637  -19.0963  -37.3924 H         1 UNK         0.0600 
    167 H167        0.9894  -20.6118  -38.1052 H         1 UNK         0.0600 
    168 H168        2.1751  -19.5240  -37.3929 H         1 UNK         0.0600 
    169 H169        1.6646  -17.1317  -38.1687 H         1 UNK         0.3000 
    170 H170        1.5698  -14.9436  -38.7030 H         1 UNK         0.0600 
    171 H171        4.3204  -14.9330  -40.0745 H         1 UNK         0.0600 
    172 H172        3.7797  -13.7894  -38.8449 H         1 UNK         0.0600 
    173 H173        4.0031  -15.4814  -38.4333 H         1 UNK         0.0600 
    174 H174        2.5051  -13.6114  -41.0577 H         1 UNK         0.3000 
    175 H175        0.3784  -12.0205  -41.8496 H         1 UNK         0.0600 
    176 H176        1.2370  -12.5935  -44.2071 H         1 UNK         0.0600 
    177 H177        1.6226  -14.2014  -43.5968 H         1 UNK         0.0600 
    178 H178        2.4086  -12.7829  -42.9190 H         1 UNK         0.0600 
    179 H179       -0.9556  -13.8739  -43.7013 H         1 UNK         0.3000 
    180 H180       -4.1575  -13.2636  -42.6904 H         1 UNK         0.0600 
    181 H181       -3.1170  -11.2527  -44.7571 H         1 UNK         0.0600 
    182 H182       -4.0631  -10.8621  -43.3259 H         1 UNK         0.0600 
    183 H183       -4.7842  -11.8109  -44.6145 H         1 UNK         0.0600 
    184 H184       -2.8554  -13.6233  -45.3115 H         1 UNK         0.3000 
    185 H185       -2.4849  -17.0647  -45.0276 H         1 UNK         0.0600 
    186 H186       -4.9438  -17.1226  -45.4800 H         1 UNK         0.0600 
    187 H187       -4.7620  -15.8188  -46.6485 H         1 UNK         0.0600 
    188 H188       -4.0029  -17.3853  -46.9366 H         1 UNK         0.0600 
    189 H189       -2.3957  -15.5055  -47.3617 H         1 UNK         0.3000 
    190 H190        0.1769  -20.0661  -47.0744 H         1 UNK         0.3000 
    191 H191       -1.1600  -20.1567  -49.6434 H         1 UNK         0.0600 
    192 H192       -0.5868  -17.9943  -48.7173 H         1 UNK         0.0600 
    193 H193       -2.3346  -18.1015  -48.7536 H         1 UNK         0.0600 
    194 H194       -1.4777  -18.3105  -47.2267 H         1 UNK         0.0600 
    195 H195       -2.1764  -20.7834  -46.2462 H         1 UNK         0.3000 
    196 H196       -4.9051  -21.2510  -46.7307 H         1 UNK         0.0600 
    197 H197       -4.8708  -22.3798  -44.5260 H         1 UNK         0.0600 
    198 H198       -3.9232  -20.9014  -44.4723 H         1 UNK         0.0600 
    199 H199       -3.1163  -22.4674  -44.5694 H         1 UNK         0.0600 
    200 H200       -2.1443  -23.5291  -46.9317 H         1 UNK         0.3000 
    201 H201       -3.6198  -25.8861  -47.5100 H         1 UNK         0.0600 
    202 H202       -1.2405  -25.9082  -46.8286 H         1 UNK         0.0600 
    203 H203       -0.7748  -25.0698  -48.3074 H         1 UNK         0.0600 
    204 H204       -1.4203  -26.7049  -48.3834 H         1 UNK         0.0600 
    205 H205       -2.9115  -23.1126  -49.4960 H         1 UNK         0.3000 
    206 H206       -3.8456  -24.4214  -51.9984 H         1 UNK         0.0600 
    207 H207       -1.7223  -23.1693  -52.1696 H         1 UNK         0.0600 
    208 H208       -2.9768  -22.3192  -53.0512 H         1 UNK         0.0600 
    209 H209       -2.4668  -21.7357  -51.4752 H         1 UNK         0.0600 
    210 H210       -5.4740  -23.5887  -49.4996 H         1 UNK         0.3000 
    211 H211       -7.4734  -22.8371  -48.9795 H         1 UNK         0.0600 
    212 H212       -8.0439  -22.8754  -51.9880 H         1 UNK         0.0600 
    213 H213       -9.2539  -22.8121  -50.7137 H         1 UNK         0.0600 
    214 H214       -8.2300  -24.2284  -50.8781 H         1 UNK         0.0600 
    215 H215       -5.5292  -20.9769  -48.9289 H         1 UNK         0.3000 
    216 H216       -5.1251  -18.8539  -48.5093 H         1 UNK         0.0600 
    217 H217       -6.8327  -17.1168  -48.3654 H         1 UNK         0.0600 
    218 H218       -7.4482  -18.5829  -47.6203 H         1 UNK         0.0600 
    219 H219       -8.0028  -18.1038  -49.2249 H         1 UNK         0.0600 
    220 H220       -4.2958  -20.0050  -50.7175 H         1 UNK         0.3000 
    221 H221       -3.3439  -19.7770  -52.6944 H         1 UNK         0.0600 
    222 H222       -3.5288  -16.7581  -52.2117 H         1 UNK         0.0600 
    223 H223       -2.2745  -17.8189  -51.5669 H         1 UNK         0.0600 
    224 H224       -2.4111  -17.5681  -53.2980 H         1 UNK         0.0600 
    225 H225       -6.0388  -20.3143  -52.8953 H         1 UNK         0.3000 
    226 H226       -7.2802  -18.5974  -54.9487 H         1 UNK         0.0600 
    227 H227       -8.6742  -19.4245  -53.0968 H         1 UNK         0.0600 
    228 H228       -9.2095  -20.1453  -54.6073 H         1 UNK         0.0600 
    229 H229       -8.2550  -21.0934  -53.4727 H         1 UNK         0.0600 
    230 H230       -5.5074  -19.0060  -56.4292 H         1 UNK         0.3000 
    231 H231       -4.7411  -19.6702  -58.3717 H         1 UNK         0.0600 
    232 H232       -7.0571  -21.6651  -58.5561 H         1 UNK         0.0600 
    233 H233       -6.0354  -21.1286  -59.8794 H         1 UNK         0.0600 
    234 H234       -7.1034  -19.9831  -59.0842 H         1 UNK         0.0600 
    235 H235       -5.4047  -22.3551  -56.1926 H         1 UNK         0.3000 
    236 H236       -3.6454  -24.3070  -57.2039 H         1 UNK         0.0600 
    237 H237       -5.3742  -24.7924  -55.5227 H         1 UNK         0.0600 
    238 H238       -3.8103  -25.2357  -54.8556 H         1 UNK         0.0600 
    239 H239       -4.5925  -23.7427  -54.3461 H         1 UNK         0.0600 
    240 H240       -2.8482  -21.3525  -55.6645 H         1 UNK         0.3000 
    241 H241       -0.1600  -22.0303  -54.8192 H         1 UNK         0.0600 
    242 H242       -1.4700  -21.5680  -58.0360 H         1 UNK         0.3800 
    243 H243        0.0833  -21.2819  -58.7775 H         1 UNK         0.3800 
    244 H244       -0.3485  -19.1775  -55.2459 H         1 UNK         0.0800 
    245 H245       -1.9082  -19.6486  -54.6954 H         1 UNK         0.0800 
    246 H246        1.9634  -19.9792  -53.9198 H         1 UNK         0.0800 
    247 H247        1.3177  -18.3666  -53.7291 H         1 UNK         0.0800 
@<TRIPOS>BOND
     1    1    2 1    
     2    1  127 1    
     3    1  128 1    
     4    1  129 1    
     5    2    3 2    
     6    2    4 am   BACKBONE|DICT|INTERRES
     7    4    5 1    
     8    4  130 1    
     9    5    6 1    
    10    5   65 1    
    11    5  131 1    
    12    6    7 1    
    13    6  132 1    
    14    6  133 1    
    15    7    8 1    
    16    8    9 1    
    17    8  134 1    
    18    8  135 1    
    19    9   10 ar   
    20    9   14 ar   
    21   10   11 ar   
    22   10  136 1    
    23   11   12 ar   
    24   11  126 1    
    25   12   13 ar   
    26   12  137 1    
    27   13   14 ar   
    28   13   15 1    
    29   14  138 1    
    30   15   16 1    
    31   15  139 1    
    32   15  140 1    
    33   16   17 1    
    34   17   18 1    
    35   17  141 1    
    36   17  142 1    
    37   18   19 1    
    38   18   67 1    
    39   18  143 1    
    40   19   20 am   BACKBONE|DICT|INTERRES
    41   19  144 1    
    42   20   21 2    
    43   20   22 1    
    44   22   23 1    
    45   22   24 1    
    46   22  145 1    
    47   23  146 1    
    48   23  147 1    
    49   23  148 1    
    50   24   25 am   BACKBONE|DICT|INTERRES
    51   24  149 1    
    52   25   26 2    
    53   25   27 1    
    54   27   28 1    
    55   27   29 1    
    56   27  150 1    
    57   28  151 1    
    58   28  152 1    
    59   28  153 1    
    60   29   30 am   BACKBONE|DICT|INTERRES
    61   29  154 1    
    62   30   31 2    
    63   30   32 1    
    64   32   33 1    
    65   32   34 1    
    66   32  155 1    
    67   33  156 1    
    68   33  157 1    
    69   33  158 1    
    70   34   35 am   BACKBONE|DICT|INTERRES
    71   34  159 1    
    72   35   36 2    
    73   35   37 1    
    74   37   38 1    
    75   37   39 1    
    76   37  160 1    
    77   38  161 1    
    78   38  162 1    
    79   38  163 1    
    80   39   40 am   BACKBONE|DICT|INTERRES
    81   39  164 1    
    82   40   41 2    
    83   40   42 1    
    84   42   43 1    
    85   42   44 1    
    86   42  165 1    
    87   43  166 1    
    88   43  167 1    
    89   43  168 1    
    90   44   45 am   BACKBONE|DICT|INTERRES
    91   44  169 1    
    92   45   46 2    
    93   45   47 1    
    94   47   48 1    
    95   47   49 1    
    96   47  170 1    
    97   48  171 1    
    98   48  172 1    
    99   48  173 1    
   100   49   50 am   BACKBONE|DICT|INTERRES
   101   49  174 1    
   102   50   51 2    
   103   50   52 1    
   104   52   53 1    
   105   52   54 1    
   106   52  175 1    
   107   53  176 1    
   108   53  177 1    
   109   53  178 1    
   110   54   55 am   BACKBONE|DICT|INTERRES
   111   54  179 1    
   112   55   56 2    
   113   55   57 1    
   114   57   58 1    
   115   57   59 1    
   116   57  180 1    
   117   58  181 1    
   118   58  182 1    
   119   58  183 1    
   120   59   60 am   BACKBONE|DICT|INTERRES
   121   59  184 1    
   122   60   61 2    
   123   60   62 1    
   124   62   63 1    
   125   62   64 1    
   126   62  185 1    
   127   63  186 1    
   128   63  187 1    
   129   63  188 1    
   130   64   65 am   BACKBONE|DICT|INTERRES
   131   64  189 1    
   132   65   66 2    
   133   67   68 2    
   134   67   69 am   BACKBONE|DICT|INTERRES
   135   69   70 1    
   136   69  190 1    
   137   70   71 1    
   138   70   72 1    
   139   70  191 1    
   140   71  192 1    
   141   71  193 1    
   142   71  194 1    
   143   72   73 2    
   144   72   74 am   BACKBONE|DICT|INTERRES
   145   74   75 1    
   146   74  195 1    
   147   75   76 1    
   148   75   77 1    
   149   75  196 1    
   150   76  197 1    
   151   76  198 1    
   152   76  199 1    
   153   77   78 2    
   154   77   79 am   BACKBONE|DICT|INTERRES
   155   79   80 1    
   156   79  200 1    
   157   80   81 1    
   158   80   82 1    
   159   80  201 1    
   160   81  202 1    
   161   81  203 1    
   162   81  204 1    
   163   82   83 2    
   164   82   84 am   BACKBONE|DICT|INTERRES
   165   84   85 1    
   166   84  205 1    
   167   85   86 1    
   168   85   87 1    
   169   85  206 1    
   170   86  207 1    
   171   86  208 1    
   172   86  209 1    
   173   87   88 2    
   174   87   89 am   BACKBONE|DICT|INTERRES
   175   89   90 1    
   176   89  210 1    
   177   90   91 1    
   178   90   92 1    
   179   90  211 1    
   180   91  212 1    
   181   91  213 1    
   182   91  214 1    
   183   92   93 2    
   184   92   94 am   BACKBONE|DICT|INTERRES
   185   94   95 1    
   186   94  215 1    
   187   95   96 1    
   188   95   97 1    
   189   95  216 1    
   190   96  217 1    
   191   96  218 1    
   192   96  219 1    
   193   97   98 2    
   194   97   99 am   BACKBONE|DICT|INTERRES
   195   99  100 1    
   196   99  220 1    
   197  100  101 1    
   198  100  102 1    
   199  100  221 1    
   200  101  222 1    
   201  101  223 1    
   202  101  224 1    
   203  102  103 2    
   204  102  104 am   BACKBONE|DICT|INTERRES
   205  104  105 1    
   206  104  225 1    
   207  105  106 1    
   208  105  107 1    
   209  105  226 1    
   210  106  227 1    
   211  106  228 1    
   212  106  229 1    
   213  107  108 2    
   214  107  109 am   BACKBONE|DICT|INTERRES
   215  109  110 1    
   216  109  230 1    
   217  110  111 1    
   218  110  112 1    
   219  110  231 1    
   220  111  232 1    
   221  111  233 1    
   222  111  234 1    
   223  112  113 2    
   224  112  114 am   BACKBONE|DICT|INTERRES
   225  114  115 1    
   226  114  235 1    
   227  115  116 1    
   228  115  117 1    
   229  115  236 1    
   230  116  237 1    
   231  116  238 1    
   232  116  239 1    
   233  117  118 2    
   234  117  119 am   BACKBONE|DICT|INTERRES
   235  119  120 1    
   236  119  240 1    
   237  120  121 1    
   238  120  124 1    
   239  120  241 1    
   240  121  122 am   BACKBONE|DICT|INTERRES
   241  121  123 2    
   242  122  242 1    
   243  122  243 1    
   244  124  125 1    
   245  124  244 1    
   246  124  245 1    
   247  125  126 1    
   248  126  246 1    
   249  126  247 1    
@<TRIPOS>SUBSTRUCTURE
     1 UNK         1 GROUP             0       ****    0 ROOT    
