@<TRIPOS>MOLECULE
3R540
247   249    1
SMALL
USER_CHARGES


@<TRIPOS>ATOM
      1 CA          0.2400  -12.3920  -47.4529 C.3       0 UNK        -0.1800 
      2 C           1.6484  -12.6383  -47.9689 C.2       0 UNK         0.5000 
      3 O           1.9826  -12.1985  -49.0690 O.2       0 UNK        -0.5000 
      4 N           2.4853  -13.3151  -47.1693 N.am      1 UNK        -0.5000 
      5 CA          3.9171  -13.5097  -47.4604 C.3       1 UNK         0.1400 
      6 C6          4.5322  -14.7031  -46.6862 C.3       23 UNK        -0.0398 
      7 S7          3.6346  -16.2662  -46.9572 S.3       23 UNK        -0.2404 
      8 C8          4.2396  -16.7570  -48.6013 C.3       23 UNK        -0.0205 
      9 C9          3.1880  -17.5650  -49.3441 C.ar      23 UNK        -0.0193 
     10 C10         2.1084  -16.9151  -49.9479 C.ar      23 UNK        -0.1150 
     11 C11         1.1310  -17.6426  -50.6329 C.ar      23 UNK        -0.0193 
     12 C12         1.2416  -19.0349  -50.7068 C.ar      23 UNK        -0.1150 
     13 C13         2.3117  -19.7021  -50.1011 C.ar      23 UNK        -0.0193 
     14 C14         3.2900  -18.9551  -49.4323 C.ar      23 UNK        -0.1150 
     15 C15         2.3899  -21.2264  -50.1893 C.3       23 UNK        -0.0205 
     16 S16         3.0334  -22.0438  -48.6859 S.3       23 UNK        -0.2404 
     17 C17         1.8803  -21.4300  -47.4108 C.3       23 UNK        -0.0398 
     18 CA          0.8839  -22.4869  -46.8839 C.3       11 UNK         0.1400 
     19 N           0.1837  -21.9873  -45.6985 N.am      11 UNK        -0.5000 
     20 C          -0.6435  -22.7009  -44.9243 C.2       10 UNK         0.5000 
     21 O          -0.8862  -23.8932  -45.0989 O.2       10 UNK        -0.5000 
     22 CA         -1.3581  -21.9439  -43.7919 C.3       10 UNK         0.1400 
     23 CB         -0.4225  -21.7494  -42.5896 C.3       10 UNK        -0.1800 
     24 N          -1.8854  -20.6501  -44.2277 N.am      10 UNK        -0.5000 
     25 C          -2.8385  -20.4971  -45.1589 C.2       9 UNK         0.5000 
     26 O          -3.4021  -21.4372  -45.7195 O.2       9 UNK        -0.5000 
     27 CA         -3.1929  -19.0549  -45.5654 C.3       9 UNK         0.1400 
     28 CB         -4.1067  -18.3990  -44.5197 C.3       9 UNK        -0.1800 
     29 N          -2.0126  -18.2177  -45.7791 N.am      9 UNK        -0.5000 
     30 C          -1.0706  -18.4494  -46.7051 C.2       8 UNK         0.5000 
     31 O          -1.1056  -19.3880  -47.4992 O.2       8 UNK        -0.5000 
     32 CA          0.1488  -17.5133  -46.6920 C.3       8 UNK         0.1400 
     33 CB         -0.1834  -16.1543  -47.3218 C.3       8 UNK        -0.1800 
     34 N           0.6665  -17.3059  -45.3408 N.am      8 UNK        -0.5000 
     35 C           1.1865  -18.2714  -44.5708 C.2       7 UNK         0.5000 
     36 O           1.3053  -19.4448  -44.9204 O.2       7 UNK        -0.5000 
     37 CA          1.5899  -17.8635  -43.1456 C.3       7 UNK         0.1400 
     38 CB          2.9532  -17.1565  -43.1500 C.3       7 UNK        -0.1800 
     39 N           0.5844  -17.0048  -42.5182 N.am      7 UNK        -0.5000 
     40 C          -0.6570  -17.4030  -42.2009 C.2       6 UNK         0.5000 
     41 O          -1.0723  -18.5493  -42.3654 O.2       6 UNK        -0.5000 
     42 CA         -1.6094  -16.3270  -41.6501 C.3       6 UNK         0.1400 
     43 CB         -1.4233  -16.1634  -40.1345 C.3       6 UNK        -0.1800 
     44 N          -1.4336  -15.0297  -42.3042 N.am      6 UNK        -0.5000 
     45 C          -1.6777  -14.7902  -43.6011 C.2       5 UNK         0.5000 
     46 O          -2.1063  -15.6389  -44.3825 O.2       5 UNK        -0.5000 
     47 CA         -1.3441  -13.3792  -44.1180 C.3       5 UNK         0.1400 
     48 CB         -2.5615  -12.4519  -43.9985 C.3       5 UNK        -0.1800 
     49 N          -0.2071  -12.7823  -43.4123 N.am      5 UNK        -0.5000 
     50 C           1.0617  -13.1869  -43.5379 C.2       4 UNK         0.5000 
     51 O           1.4336  -14.0061  -44.3829 O.2       4 UNK        -0.5000 
     52 CA          2.0679  -12.5738  -42.5430 C.3       4 UNK         0.1400 
     53 CB          3.3549  -13.4082  -42.4289 C.3       4 UNK        -0.1800 
     54 N           2.4376  -11.2079  -42.8991 N.am      4 UNK        -0.5000 
     55 C           1.6809  -10.1083  -42.7648 C.2       3 UNK         0.5000 
     56 O           0.5384  -10.1205  -42.3045 O.2       3 UNK        -0.5000 
     57 CA          2.3159   -8.7707  -43.2126 C.3       3 UNK         0.1400 
     58 CB          2.7767   -7.9586  -41.9925 C.3       3 UNK        -0.1800 
     59 N           3.4602   -8.9753  -44.1082 N.am      3 UNK        -0.5000 
     60 C           3.3411   -9.3650  -45.3836 C.2       2 UNK         0.5000 
     61 O           2.2685   -9.3710  -45.9910 O.2       2 UNK        -0.5000 
     62 CA          4.5786   -9.9777  -46.0587 C.3       2 UNK         0.1400 
     63 CB          5.8544   -9.9930  -45.1867 C.3       2 UNK        -0.1800 
     64 N           4.1567  -11.3316  -46.3842 N.am      2 UNK        -0.5000 
     65 C           4.7275  -12.2176  -47.2043 C.2       1 UNK         0.5000 
     66 O           5.8138  -12.0482  -47.7588 O.2       1 UNK        -0.5000 
     67 C          -0.1007  -22.9581  -47.9761 C.2       11 UNK         0.5000 
     68 O           0.0716  -24.0494  -48.5215 O.2       11 UNK        -0.5000 
     69 N          -1.1369  -22.1510  -48.2450 N.am      12 UNK        -0.5000 
     70 CA         -2.2068  -22.4703  -49.1876 C.3       12 UNK         0.1400 
     71 CB         -3.1041  -21.2415  -49.3910 C.3       12 UNK        -0.1800 
     72 C          -3.0360  -23.6944  -48.7612 C.2       12 UNK         0.5000 
     73 O          -3.3609  -24.5256  -49.6092 O.2       12 UNK        -0.5000 
     74 N          -3.3348  -23.8077  -47.4599 N.am      13 UNK        -0.5000 
     75 CA         -4.0175  -24.9587  -46.8691 C.3       13 UNK         0.1400 
     76 CB         -4.4339  -24.6301  -45.4279 C.3       13 UNK        -0.1800 
     77 C          -3.1654  -26.2404  -46.9164 C.2       13 UNK         0.5000 
     78 O          -3.6867  -27.2992  -47.2668 O.2       13 UNK        -0.5000 
     79 N          -1.8662  -26.1188  -46.6055 N.am      14 UNK        -0.5000 
     80 CA         -0.8856  -27.2105  -46.5919 C.3       14 UNK         0.1400 
     81 CB          0.4424  -26.6995  -46.0125 C.3       14 UNK        -0.1800 
     82 C          -0.6528  -27.8772  -47.9619 C.2       14 UNK         0.5000 
     83 O          -0.2345  -29.0348  -48.0034 O.2       14 UNK        -0.5000 
     84 N          -0.9574  -27.1615  -49.0537 N.am      15 UNK        -0.5000 
     85 CA         -0.9627  -27.6871  -50.4214 C.3       15 UNK         0.1400 
     86 CB         -1.0383  -26.5076  -51.4042 C.3       15 UNK        -0.1800 
     87 C          -2.1074  -28.6905  -50.6909 C.2       15 UNK         0.5000 
     88 O          -2.0457  -29.4134  -51.6856 O.2       15 UNK        -0.5000 
     89 N          -3.1217  -28.7058  -49.8114 N.am      16 UNK        -0.5000 
     90 CA         -4.3468  -29.5080  -49.8400 C.3       16 UNK         0.1400 
     91 CB         -4.0150  -30.9649  -49.4560 C.3       16 UNK        -0.1800 
     92 C          -5.1457  -29.4018  -51.1642 C.2       16 UNK         0.5000 
     93 O          -5.3591  -30.4206  -51.8221 O.2       16 UNK        -0.5000 
     94 N          -5.5992  -28.2149  -51.5906 N.am      17 UNK        -0.5000 
     95 CA         -5.4372  -26.8838  -51.0125 C.3       17 UNK         0.1400 
     96 CB         -6.5479  -26.6004  -49.9881 C.3       17 UNK        -0.1800 
     97 C          -5.4806  -25.8813  -52.1702 C.2       17 UNK         0.5000 
     98 O          -6.2592  -26.0646  -53.1101 O.2       17 UNK        -0.5000 
     99 N          -4.6592  -24.8328  -52.0802 N.am      18 UNK        -0.5000 
    100 CA        -4.5465  -23.7620  -53.0679 C.3       18 UNK         0.1400 
    101 CB        -3.0937  -23.2551  -53.0732 C.3       18 UNK        -0.1800 
    102 C         -5.5784  -22.6603  -52.7589 C.2       18 UNK         0.5000 
    103 O         -5.2103  -21.5309  -52.4302 O.2       18 UNK        -0.5000 
    104 N         -6.8623  -23.0380  -52.8204 N.am      19 UNK        -0.5000 
    105 CA        -8.0269  -22.2255  -52.4694 C.3       19 UNK         0.1400 
    106 CB        -9.3024  -23.0464  -52.7182 C.3       19 UNK        -0.1800 
    107 C         -8.0700  -20.8825  -53.2230 C.2       19 UNK         0.5000 
    108 O         -8.2622  -20.8693  -54.4405 O.2       19 UNK        -0.5000 
    109 N         -7.8598  -19.7918  -52.4725 N.am      20 UNK        -0.5000 
    110 CA        -7.8195  -18.3917  -52.9106 C.3       20 UNK         0.1400 
    111 CB        -9.1898  -17.9508  -53.4671 C.3       20 UNK        -0.1800 
    112 C         -6.6577  -18.0454  -53.8692 C.2       20 UNK         0.5000 
    113 O         -6.6876  -16.9785  -54.4862 O.2       20 UNK        -0.5000 
    114 N         -5.6321  -18.9079  -53.9591 N.am      21 UNK        -0.5000 
    115 CA        -4.4713  -18.7270  -54.8407 C.3       21 UNK         0.1400 
    116 CB        -3.6237  -20.0049  -54.8383 C.3       21 UNK        -0.1800 
    117 C         -3.6001  -17.5097  -54.4766 C.2       21 UNK         0.5000 
    118 O         -2.9550  -16.9387  -55.3569 O.2       21 UNK        -0.5000 
    119 N         -3.6212  -17.1235  -53.1957 N.am      22 UNK        -0.5000 
    120 CA        -2.9859  -15.9058  -52.6726 C.3       22 UNK         0.1400 
    121 C         -3.7653  -14.5921  -52.9867 C.2       22 UNK         0.5000 
    122 N         -4.9534  -14.6325  -53.5809 N.am      22 UNK        -0.7600 
    123 O         -3.2753  -13.5056  -52.6917 O.2       22 UNK        -0.5000 
    124 C124       -2.6809  -16.0208  -51.1560 C.3       23 UNK        -0.0398 
    125 S125       -1.6526  -17.4651  -50.7188 S.3       23 UNK        -0.2404 
    126 C126       -0.0207  -16.9146  -51.3144 C.3       23 UNK        -0.0205 
    127 H127       -0.3679  -13.2906  -47.5433 H         1 UNK         0.0600 
    128 H128       -0.2426  -11.5972  -48.0219 H         1 UNK         0.0600 
    129 H129        0.2675  -12.0804  -46.4092 H         1 UNK         0.0600 
    130 H130        2.1537  -13.6884  -46.2845 H         1 UNK         0.3000 
    131 H131        4.0144  -13.7226  -48.5263 H         1 UNK         0.0600 
    132 H132        5.5771  -14.8497  -46.9661 H         1 UNK         0.0800 
    133 H133        4.5279  -14.5026  -45.6136 H         1 UNK         0.0800 
    134 H134        4.4947  -15.8794  -49.1952 H         1 UNK         0.0800 
    135 H135        5.1620  -17.3284  -48.4879 H         1 UNK         0.0800 
    136 H136        2.0325  -15.8387  -49.8793 H         1 UNK         0.1150 
    137 H137        0.4847  -19.5985  -51.2345 H         1 UNK         0.1150 
    138 H138        4.1277  -19.4552  -48.9677 H         1 UNK         0.1150 
    139 H139        1.4045  -21.6421  -50.4064 H         1 UNK         0.0800 
    140 H140        3.0293  -21.4921  -51.0318 H         1 UNK         0.0800 
    141 H141        1.3464  -20.5474  -47.7637 H         1 UNK         0.0800 
    142 H142        2.5036  -21.0812  -46.5870 H         1 UNK         0.0800 
    143 H143        1.4577  -23.3596  -46.5655 H         1 UNK         0.0600 
    144 H144        0.3560  -21.0147  -45.4571 H         1 UNK         0.3000 
    145 H145       -2.2028  -22.5549  -43.4672 H         1 UNK         0.0600 
    146 H146       -0.9514  -21.3004  -41.7488 H         1 UNK         0.0600 
    147 H147       -0.0203  -22.7041  -42.2484 H         1 UNK         0.0600 
    148 H148        0.4219  -21.1049  -42.8353 H         1 UNK         0.0600 
    149 H149       -1.4972  -19.8266  -43.7768 H         1 UNK         0.3000 
    150 H150       -3.7375  -19.1021  -46.5105 H         1 UNK         0.0600 
    151 H151       -5.0086  -18.9918  -44.3624 H         1 UNK         0.0600 
    152 H152       -4.4211  -17.4053  -44.8394 H         1 UNK         0.0600 
    153 H153       -3.6077  -18.2967  -43.5558 H         1 UNK         0.0600 
    154 H154       -1.9202  -17.3996  -45.1836 H         1 UNK         0.3000 
    155 H155        0.9358  -17.9818  -47.2867 H         1 UNK         0.0600 
    156 H156        0.7041  -15.5267  -47.3764 H         1 UNK         0.0600 
    157 H157       -0.9447  -15.6166  -46.7581 H         1 UNK         0.0600 
    158 H158       -0.5539  -16.2740  -48.3380 H         1 UNK         0.0600 
    159 H159        0.6142  -16.3672  -44.9716 H         1 UNK         0.3000 
    160 H160        1.6792  -18.7734  -42.5483 H         1 UNK         0.0600 
    161 H161        2.9295  -16.2359  -43.7341 H         1 UNK         0.0600 
    162 H162        3.7203  -17.7967  -43.5876 H         1 UNK         0.0600 
    163 H163        3.2747  -16.9102  -42.1382 H         1 UNK         0.0600 
    164 H164        0.8348  -16.0390  -42.3741 H         1 UNK         0.3000 
    165 H165       -2.6321  -16.6620  -41.8352 H         1 UNK         0.0600 
    166 H166       -0.4244  -15.8026  -39.8860 H         1 UNK         0.0600 
    167 H167       -2.1471  -15.4603  -39.7220 H         1 UNK         0.0600 
    168 H168       -1.5664  -17.1144  -39.6195 H         1 UNK         0.0600 
    169 H169       -1.0937  -14.2723  -41.7309 H         1 UNK         0.3000 
    170 H170       -1.0926  -13.4777  -45.1738 H         1 UNK         0.0600 
    171 H171       -3.4201  -12.8646  -44.5300 H         1 UNK         0.0600 
    172 H172       -2.8569  -12.3051  -42.9589 H         1 UNK         0.0600 
    173 H173       -2.3528  -11.4726  -44.4299 H         1 UNK         0.0600 
    174 H174       -0.4074  -12.0301  -42.7634 H         1 UNK         0.3000 
    175 H175        1.5956  -12.5584  -41.5584 H         1 UNK         0.0600 
    176 H176        4.0398  -12.9789  -41.6975 H         1 UNK         0.0600 
    177 H177        3.1310  -14.4221  -42.0989 H         1 UNK         0.0600 
    178 H178        3.8829  -13.4769  -43.3808 H         1 UNK         0.0600 
    179 H179        3.3633  -11.0914  -43.2800 H         1 UNK         0.3000 
    180 H180        1.5489   -8.1968  -43.7370 H         1 UNK         0.0600 
    181 H181        3.5444   -8.4849  -41.4238 H         1 UNK         0.0600 
    182 H182        1.9434   -7.7631  -41.3163 H         1 UNK         0.0600 
    183 H183        3.1833   -6.9927  -42.2928 H         1 UNK         0.0600 
    184 H184        4.3752   -8.9807  -43.6803 H         1 UNK         0.3000 
    185 H185        4.7699   -9.4258  -46.9808 H         1 UNK         0.0600 
    186 H186        6.6977  -10.4134  -45.7343 H         1 UNK         0.0600 
    187 H187        6.1440   -8.9833  -44.8930 H         1 UNK         0.0600 
    188 H188        5.7258  -10.5875  -44.2814 H         1 UNK         0.0600 
    189 H189        3.2251  -11.5545  -46.0604 H         1 UNK         0.3000 
    190 H190       -1.1883  -21.2404  -47.7930 H         1 UNK         0.3000 
    191 H191       -1.7348  -22.7103  -50.1415 H         1 UNK         0.0600 
    192 H192       -2.5392  -20.4072  -49.8075 H         1 UNK         0.0600 
    193 H193       -3.9184  -21.4601  -50.0817 H         1 UNK         0.0600 
    194 H194       -3.5494  -20.9079  -48.4535 H         1 UNK         0.0600 
    195 H195       -3.0838  -23.0511  -46.8303 H         1 UNK         0.3000 
    196 H196       -4.9250  -25.1436  -47.4477 H         1 UNK         0.0600 
    197 H197       -4.9628  -25.4685  -44.9730 H         1 UNK         0.0600 
    198 H198       -5.1018  -23.7690  -45.3986 H         1 UNK         0.0600 
    199 H199       -3.5721  -24.4044  -44.7996 H         1 UNK         0.0600 
    200 H200       -1.5284  -25.2154  -46.2818 H         1 UNK         0.3000 
    201 H201       -1.2699  -27.9833  -45.9234 H         1 UNK         0.0600 
    202 H202        0.3150  -26.3409  -44.9912 H         1 UNK         0.0600 
    203 H203        0.8515  -25.8826  -46.6073 H         1 UNK         0.0600 
    204 H204        1.1907  -27.4926  -45.9845 H         1 UNK         0.0600 
    205 H205       -1.2518  -26.2016  -48.9300 H         1 UNK         0.3000 
    206 H206       -0.0193  -28.2109  -50.5881 H         1 UNK         0.0600 
    207 H207       -0.2335  -25.7930  -51.2295 H         1 UNK         0.0600 
    208 H208       -0.9500  -26.8523  -52.4352 H         1 UNK         0.0600 
    209 H209       -1.9841  -25.9737  -51.3204 H         1 UNK         0.0600 
    210 H210       -3.0633  -28.0745  -49.0191 H         1 UNK         0.3000 
    211 H211       -4.9930  -29.1111  -49.0570 H         1 UNK         0.0600 
    212 H212       -3.3610  -31.4381  -50.1893 H         1 UNK         0.0600 
    213 H213       -4.9209  -31.5680  -49.3845 H         1 UNK         0.0600 
    214 H214       -3.5182  -31.0115  -48.4868 H         1 UNK         0.0600 
    215 H215       -6.0831  -28.1840  -52.4789 H         1 UNK         0.3000 
    216 H216       -4.4725  -26.7727  -50.5257 H         1 UNK         0.0600 
    217 H217       -6.4945  -27.2809  -49.1391 H         1 UNK         0.0600 
    218 H218       -7.5389  -26.6961  -50.4335 H         1 UNK         0.0600 
    219 H219       -6.4608  -25.5871  -49.5937 H         1 UNK         0.0600 
    220 H220       -4.1104  -24.7171  -51.2290 H         1 UNK         0.3000 
    221 H221       -4.7634  -24.1555  -54.0633 H         1 UNK         0.0600 
    222 H222       -2.8464  -22.7190  -52.1583 H         1 UNK         0.0600 
    223 H223       -2.3875  -24.0787  -53.1792 H         1 UNK         0.0600 
    224 H224       -2.9211  -22.5795  -53.9092 H         1 UNK         0.0600 
    225 H225       -7.0507  -23.9934  -53.0971 H         1 UNK         0.3000 
    226 H226       -7.9670  -22.0236  -51.3980 H         1 UNK         0.0600 
    227 H227       -9.3123  -23.9537  -52.1136 H         1 UNK         0.0600 
    228 H228      -10.1929  -22.4729  -52.4580 H         1 UNK         0.0600 
    229 H229       -9.3946  -23.3401  -53.7646 H         1 UNK         0.0600 
    230 H230       -7.6663  -19.9322  -51.4905 H         1 UNK         0.3000 
    231 H231       -7.6348  -17.8068  -52.0086 H         1 UNK         0.0600 
    232 H232       -9.2172  -16.8737  -53.6355 H         1 UNK         0.0600 
    233 H233       -9.9938  -18.1874  -52.7702 H         1 UNK         0.0600 
    234 H234       -9.4162  -18.4338  -54.4180 H         1 UNK         0.0600 
    235 H235       -5.6514  -19.7574  -53.4037 H         1 UNK         0.3000 
    236 H236       -4.8462  -18.5698  -55.8541 H         1 UNK         0.0600 
    237 H237       -2.7827  -19.9195  -55.5276 H         1 UNK         0.0600 
    238 H238       -3.2165  -20.2073  -53.8470 H         1 UNK         0.0600 
    239 H239       -4.2126  -20.8679  -55.1488 H         1 UNK         0.0600 
    240 H240       -4.1655  -17.6637  -52.5402 H         1 UNK         0.3000 
    241 H241       -2.0277  -15.7949  -53.1832 H         1 UNK         0.0600 
    242 H242       -5.4321  -13.7676  -53.7769 H         1 UNK         0.3800 
    243 H243       -5.3801  -15.5085  -53.8590 H         1 UNK         0.3800 
    244 H244       -2.1804  -15.1223  -50.7905 H         1 UNK         0.0800 
    245 H245       -3.6122  -16.0926  -50.5921 H         1 UNK         0.0800 
    246 H246        0.0401  -17.0800  -52.3907 H         1 UNK         0.0800 
    247 H247        0.0747  -15.8386  -51.1612 H         1 UNK         0.0800 
@<TRIPOS>BOND
     1    1    2 1    
     2    1  127 1    
     3    1  128 1    
     4    1  129 1    
     5    2    3 2    
     6    2    4 am   BACKBONE|DICT|INTERRES
     7    4    5 1    
     8    4  130 1    
     9    5    6 1    
    10    5   65 1    
    11    5  131 1    
    12    6    7 1    
    13    6  132 1    
    14    6  133 1    
    15    7    8 1    
    16    8    9 1    
    17    8  134 1    
    18    8  135 1    
    19    9   10 ar   
    20    9   14 ar   
    21   10   11 ar   
    22   10  136 1    
    23   11   12 ar   
    24   11  126 1    
    25   12   13 ar   
    26   12  137 1    
    27   13   14 ar   
    28   13   15 1    
    29   14  138 1    
    30   15   16 1    
    31   15  139 1    
    32   15  140 1    
    33   16   17 1    
    34   17   18 1    
    35   17  141 1    
    36   17  142 1    
    37   18   19 1    
    38   18   67 1    
    39   18  143 1    
    40   19   20 am   BACKBONE|DICT|INTERRES
    41   19  144 1    
    42   20   21 2    
    43   20   22 1    
    44   22   23 1    
    45   22   24 1    
    46   22  145 1    
    47   23  146 1    
    48   23  147 1    
    49   23  148 1    
    50   24   25 am   BACKBONE|DICT|INTERRES
    51   24  149 1    
    52   25   26 2    
    53   25   27 1    
    54   27   28 1    
    55   27   29 1    
    56   27  150 1    
    57   28  151 1    
    58   28  152 1    
    59   28  153 1    
    60   29   30 am   BACKBONE|DICT|INTERRES
    61   29  154 1    
    62   30   31 2    
    63   30   32 1    
    64   32   33 1    
    65   32   34 1    
    66   32  155 1    
    67   33  156 1    
    68   33  157 1    
    69   33  158 1    
    70   34   35 am   BACKBONE|DICT|INTERRES
    71   34  159 1    
    72   35   36 2    
    73   35   37 1    
    74   37   38 1    
    75   37   39 1    
    76   37  160 1    
    77   38  161 1    
    78   38  162 1    
    79   38  163 1    
    80   39   40 am   BACKBONE|DICT|INTERRES
    81   39  164 1    
    82   40   41 2    
    83   40   42 1    
    84   42   43 1    
    85   42   44 1    
    86   42  165 1    
    87   43  166 1    
    88   43  167 1    
    89   43  168 1    
    90   44   45 am   BACKBONE|DICT|INTERRES
    91   44  169 1    
    92   45   46 2    
    93   45   47 1    
    94   47   48 1    
    95   47   49 1    
    96   47  170 1    
    97   48  171 1    
    98   48  172 1    
    99   48  173 1    
   100   49   50 am   BACKBONE|DICT|INTERRES
   101   49  174 1    
   102   50   51 2    
   103   50   52 1    
   104   52   53 1    
   105   52   54 1    
   106   52  175 1    
   107   53  176 1    
   108   53  177 1    
   109   53  178 1    
   110   54   55 am   BACKBONE|DICT|INTERRES
   111   54  179 1    
   112   55   56 2    
   113   55   57 1    
   114   57   58 1    
   115   57   59 1    
   116   57  180 1    
   117   58  181 1    
   118   58  182 1    
   119   58  183 1    
   120   59   60 am   BACKBONE|DICT|INTERRES
   121   59  184 1    
   122   60   61 2    
   123   60   62 1    
   124   62   63 1    
   125   62   64 1    
   126   62  185 1    
   127   63  186 1    
   128   63  187 1    
   129   63  188 1    
   130   64   65 am   BACKBONE|DICT|INTERRES
   131   64  189 1    
   132   65   66 2    
   133   67   68 2    
   134   67   69 am   BACKBONE|DICT|INTERRES
   135   69   70 1    
   136   69  190 1    
   137   70   71 1    
   138   70   72 1    
   139   70  191 1    
   140   71  192 1    
   141   71  193 1    
   142   71  194 1    
   143   72   73 2    
   144   72   74 am   BACKBONE|DICT|INTERRES
   145   74   75 1    
   146   74  195 1    
   147   75   76 1    
   148   75   77 1    
   149   75  196 1    
   150   76  197 1    
   151   76  198 1    
   152   76  199 1    
   153   77   78 2    
   154   77   79 am   BACKBONE|DICT|INTERRES
   155   79   80 1    
   156   79  200 1    
   157   80   81 1    
   158   80   82 1    
   159   80  201 1    
   160   81  202 1    
   161   81  203 1    
   162   81  204 1    
   163   82   83 2    
   164   82   84 am   BACKBONE|DICT|INTERRES
   165   84   85 1    
   166   84  205 1    
   167   85   86 1    
   168   85   87 1    
   169   85  206 1    
   170   86  207 1    
   171   86  208 1    
   172   86  209 1    
   173   87   88 2    
   174   87   89 am   BACKBONE|DICT|INTERRES
   175   89   90 1    
   176   89  210 1    
   177   90   91 1    
   178   90   92 1    
   179   90  211 1    
   180   91  212 1    
   181   91  213 1    
   182   91  214 1    
   183   92   93 2    
   184   92   94 am   BACKBONE|DICT|INTERRES
   185   94   95 1    
   186   94  215 1    
   187   95   96 1    
   188   95   97 1    
   189   95  216 1    
   190   96  217 1    
   191   96  218 1    
   192   96  219 1    
   193   97   98 2    
   194   97   99 am   BACKBONE|DICT|INTERRES
   195   99  100 1    
   196   99  220 1    
   197  100  101 1    
   198  100  102 1    
   199  100  221 1    
   200  101  222 1    
   201  101  223 1    
   202  101  224 1    
   203  102  103 2    
   204  102  104 am   BACKBONE|DICT|INTERRES
   205  104  105 1    
   206  104  225 1    
   207  105  106 1    
   208  105  107 1    
   209  105  226 1    
   210  106  227 1    
   211  106  228 1    
   212  106  229 1    
   213  107  108 2    
   214  107  109 am   BACKBONE|DICT|INTERRES
   215  109  110 1    
   216  109  230 1    
   217  110  111 1    
   218  110  112 1    
   219  110  231 1    
   220  111  232 1    
   221  111  233 1    
   222  111  234 1    
   223  112  113 2    
   224  112  114 am   BACKBONE|DICT|INTERRES
   225  114  115 1    
   226  114  235 1    
   227  115  116 1    
   228  115  117 1    
   229  115  236 1    
   230  116  237 1    
   231  116  238 1    
   232  116  239 1    
   233  117  118 2    
   234  117  119 am   BACKBONE|DICT|INTERRES
   235  119  120 1    
   236  119  240 1    
   237  120  121 1    
   238  120  124 1    
   239  120  241 1    
   240  121  122 am   BACKBONE|DICT|INTERRES
   241  121  123 2    
   242  122  242 1    
   243  122  243 1    
   244  124  125 1    
   245  124  244 1    
   246  124  245 1    
   247  125  126 1    
   248  126  246 1    
   249  126  247 1    
@<TRIPOS>SUBSTRUCTURE
     1 UNK         1 GROUP             0       ****    0 ROOT    
