@<TRIPOS>MOLECULE
3R540
247   249    1
SMALL
USER_CHARGES


@<TRIPOS>ATOM
      1 CA          4.0484  -17.5505  -46.2416 C.3       0 UNK        -0.1800 
      2 C           3.9394  -16.0388  -46.3751 C.2       0 UNK         0.5000 
      3 O           3.9450  -15.3265  -45.3704 O.2       0 UNK        -0.5000 
      4 N           3.8362  -15.5420  -47.6131 N.am      1 UNK        -0.5000 
      5 CA          3.7538  -14.1110  -47.9222 C.3       1 UNK         0.1400 
      6 C6          3.3249  -13.8427  -49.3853 C.3       23 UNK        -0.0398 
      7 S7          1.7435  -14.6496  -49.8014 S.3       23 UNK        -0.2404 
      8 C8          2.2690  -15.8986  -51.0229 C.3       23 UNK        -0.0205 
      9 C9          1.5101  -17.2052  -50.8507 C.ar      23 UNK        -0.0193 
     10 C10         0.1175  -17.2279  -50.9632 C.ar      23 UNK        -0.1150 
     11 C11        -0.5925  -18.4170  -50.7870 C.ar      23 UNK        -0.0193 
     12 C12         0.1066  -19.5965  -50.5108 C.ar      23 UNK        -0.1150 
     13 C13         1.5025  -19.5956  -50.4246 C.ar      23 UNK        -0.0193 
     14 C14         2.1982  -18.3947  -50.5899 C.ar      23 UNK        -0.1150 
     15 C15         2.2559  -20.8969  -50.1768 C.3       23 UNK        -0.0205 
     16 S16         3.1397  -20.9362  -48.5796 S.3       23 UNK        -0.2404 
     17 C17         1.8134  -20.5935  -47.3752 C.3       23 UNK        -0.0398 
     18 CA          1.1494  -21.8544  -46.7726 C.3       11 UNK         0.1400 
     19 N           0.4075  -21.5287  -45.5531 N.am      11 UNK        -0.5000 
     20 C          -0.1944  -22.4118  -44.7448 C.2       10 UNK         0.5000 
     21 O          -0.1165  -23.6325  -44.8831 O.2       10 UNK        -0.5000 
     22 CA         -1.0803  -21.8262  -43.6290 C.3       10 UNK         0.1400 
     23 CB         -0.2359  -21.4198  -42.4125 C.3       10 UNK        -0.1800 
     24 N          -1.8712  -20.6820  -44.0909 N.am      10 UNK        -0.5000 
     25 C          -2.8365  -20.7608  -45.0184 C.2       9 UNK         0.5000 
     26 O          -3.2075  -21.8221  -45.5190 O.2       9 UNK        -0.5000 
     27 CA         -3.4637  -19.4391  -45.5027 C.3       9 UNK         0.1400 
     28 CB         -4.5741  -18.9742  -44.5502 C.3       9 UNK        -0.1800 
     29 N          -2.4798  -18.3693  -45.6810 N.am      9 UNK        -0.5000 
     30 C          -1.5027  -18.3914  -46.5985 C.2       8 UNK         0.5000 
     31 O          -1.3686  -19.2996  -47.4154 O.2       8 UNK        -0.5000 
     32 CA         -0.4688  -17.2475  -46.5626 C.3       8 UNK         0.1400 
     33 CB         -0.9859  -16.0062  -47.3028 C.3       8 UNK        -0.1800 
     34 N          -0.0799  -16.8867  -45.1973 N.am      8 UNK        -0.5000 
     35 C           0.5421  -17.7192  -44.3496 C.2       7 UNK         0.5000 
     36 O           0.9132  -18.8511  -44.6557 O.2       7 UNK        -0.5000 
     37 CA          0.7182  -17.2381  -42.9003 C.3       7 UNK         0.1400 
     38 CB          1.9385  -16.3160  -42.7594 C.3       7 UNK        -0.1800 
     39 N          -0.4848  -16.5659  -42.4090 N.am      7 UNK        -0.5000 
     40 C          -1.6390  -17.1954  -42.1426 C.2       6 UNK         0.5000 
     41 O          -1.7882  -18.4127  -42.2378 O.2       6 UNK        -0.5000 
     42 CA         -2.8381  -16.3157  -41.7421 C.3       6 UNK         0.1400 
     43 CB         -2.8314  -16.0522  -40.2291 C.3       6 UNK        -0.1800 
     44 N          -2.8621  -15.0380  -42.4543 N.am      6 UNK        -0.5000 
     45 C          -3.0448  -14.9020  -43.7763 C.2       5 UNK         0.5000 
     46 O          -3.2821  -15.8425  -44.5320 O.2       5 UNK        -0.5000 
     47 CA         -2.8658  -13.4839  -44.3531 C.3       5 UNK         0.1400 
     48 CB         -4.1928  -12.7121  -44.3170 C.3       5 UNK        -0.1800 
     49 N          -1.8364  -12.7236  -43.6372 N.am      5 UNK        -0.5000 
     50 C          -0.5378  -13.0500  -43.6296 C.2       4 UNK         0.5000 
     51 O          -0.0584  -13.9633  -44.3076 O.2       4 UNK        -0.5000 
     52 CA          0.3469  -12.2947  -42.6311 C.3       4 UNK         0.1400 
     53 CB          0.1465  -12.8783  -41.2156 C.3       4 UNK        -0.1800 
     54 N           1.7404  -12.4182  -43.0467 N.am      4 UNK        -0.5000 
     55 C           2.7801  -11.7709  -42.5080 C.2       3 UNK         0.5000 
     56 O           2.6871  -10.9733  -41.5738 O.2       3 UNK        -0.5000 
     57 CA          4.1602  -12.0432  -43.1327 C.3       3 UNK         0.1400 
     58 CB          4.7526  -13.3529  -42.5897 C.3       3 UNK        -0.1800 
     59 N           4.1417  -12.0849  -44.5972 N.am      3 UNK        -0.5000 
     60 C           3.8624  -11.0338  -45.3848 C.2       2 UNK         0.5000 
     61 O           3.5345   -9.9299  -44.9468 O.2       2 UNK        -0.5000 
     62 CA          4.0122  -11.2368  -46.9073 C.3       2 UNK         0.1400 
     63 CB          4.2640   -9.9110  -47.6488 C.3       2 UNK        -0.1800 
     64 N           5.1294  -12.1410  -47.1975 N.am      2 UNK        -0.5000 
     65 C           5.1027  -13.4083  -47.6299 C.2       1 UNK         0.5000 
     66 O           6.1505  -14.0258  -47.8275 O.2       1 UNK        -0.5000 
     67 C           0.2525  -22.5825  -47.7953 C.2       11 UNK         0.5000 
     68 O           0.6527  -23.6228  -48.3164 O.2       11 UNK        -0.5000 
     69 N          -0.9596  -22.0557  -48.0256 N.am      12 UNK        -0.5000 
     70 CA         -1.9774  -22.6517  -48.8910 C.3       12 UNK         0.1400 
     71 CB         -3.1942  -21.7228  -48.9887 C.3       12 UNK        -0.1800 
     72 C          -2.4049  -24.0488  -48.4179 C.2       12 UNK         0.5000 
     73 O          -2.4461  -24.9695  -49.2308 O.2       12 UNK        -0.5000 
     74 N          -2.6596  -24.1957  -47.1101 N.am      13 UNK        -0.5000 
     75 CA         -3.0014  -25.4663  -46.4702 C.3       13 UNK         0.1400 
     76 CB         -3.3610  -25.2238  -44.9967 C.3       13 UNK        -0.1800 
     77 C          -1.8884  -26.5235  -46.6016 C.2       13 UNK         0.5000 
     78 O          -2.1885  -27.6797  -46.8998 O.2       13 UNK        -0.5000 
     79 N          -0.6273  -26.1035  -46.4247 N.am      14 UNK        -0.5000 
     80 CA          0.5612  -26.9386  -46.6140 C.3       14 UNK         0.1400 
     81 CB          1.7951  -26.2041  -46.0680 C.3       14 UNK        -0.1800 
     82 C           0.7754  -27.3545  -48.0831 C.2       14 UNK         0.5000 
     83 O           1.1499  -28.4987  -48.3427 O.2       14 UNK        -0.5000 
     84 N           0.5113  -26.4296  -49.0157 N.am      15 UNK        -0.5000 
     85 CA          0.5794  -26.6461  -50.4633 C.3       15 UNK         0.1400 
     86 CB          0.6588  -25.2779  -51.1616 C.3       15 UNK        -0.1800 
     87 C          -0.6023  -27.4634  -51.0276 C.2       15 UNK         0.5000 
     88 O          -0.5210  -27.9179  -52.1694 O.2       15 UNK        -0.5000 
     89 N          -1.6748  -27.6122  -50.2357 N.am      16 UNK        -0.5000 
     90 CA         -2.9782  -28.1887  -50.5828 C.3       16 UNK         0.1400 
     91 CB         -2.8561  -29.6879  -50.9269 C.3       16 UNK        -0.1800 
     92 C          -3.7130  -27.3643  -51.6638 C.2       16 UNK         0.5000 
     93 O          -4.3443  -27.9283  -52.5597 O.2       16 UNK        -0.5000 
     94 N          -3.6093  -26.0363  -51.5510 N.am      17 UNK        -0.5000 
     95 CA         -4.2480  -25.0413  -52.4051 C.3       17 UNK         0.1400 
     96 CB         -3.1728  -24.0387  -52.8599 C.3       17 UNK        -0.1800 
     97 C          -5.3492  -24.3097  -51.6205 C.2       17 UNK         0.5000 
     98 O          -5.3493  -24.3208  -50.3868 O.2       17 UNK        -0.5000 
     99 N          -6.2553  -23.6503  -52.3505 N.am      18 UNK        -0.5000 
    100 CA        -7.2257  -22.7183  -51.7819 C.3       18 UNK         0.1400 
    101 CB        -8.4161  -22.5706  -52.7422 C.3       18 UNK        -0.1800 
    102 C         -6.5425  -21.3618  -51.5479 C.2       18 UNK         0.5000 
    103 O         -5.9368  -20.8261  -52.4788 O.2       18 UNK        -0.5000 
    104 N         -6.6748  -20.8149  -50.3322 N.am      19 UNK        -0.5000 
    105 CA        -6.0322  -19.5675  -49.8976 C.3       19 UNK         0.1400 
    106 CB        -6.2953  -19.3647  -48.3971 C.3       19 UNK        -0.1800 
    107 C         -6.4473  -18.3161  -50.6989 C.2       19 UNK         0.5000 
    108 O         -5.6921  -17.3454  -50.7397 O.2       19 UNK        -0.5000 
    109 N         -7.6320  -18.3649  -51.3213 N.am      20 UNK        -0.5000 
    110 CA        -8.1517  -17.3239  -52.2061 C.3       20 UNK         0.1400 
    111 CB        -9.6875  -17.3915  -52.1880 C.3       20 UNK        -0.1800 
    112 C         -7.6285  -17.4384  -53.6533 C.2       20 UNK         0.5000 
    113 O         -7.7225  -16.4583  -54.3945 O.2       20 UNK        -0.5000 
    114 N         -7.1248  -18.6177  -54.0504 N.am      21 UNK        -0.5000 
    115 CA        -6.6275  -18.8777  -55.4031 C.3       21 UNK         0.1400 
    116 CB        -6.7945  -20.3675  -55.7457 C.3       21 UNK        -0.1800 
    117 C         -5.1642  -18.4368  -55.5638 C.2       21 UNK         0.5000 
    118 O         -4.8247  -17.8186  -56.5748 O.2       21 UNK        -0.5000 
    119 N         -4.3288  -18.7555  -54.5679 N.am      22 UNK        -0.5000 
    120 CA        -2.9340  -18.2988  -54.4747 C.3       22 UNK         0.1400 
    121 C         -2.7964  -16.8035  -54.0598 C.2       22 UNK         0.5000 
    122 N         -1.6187  -16.2157  -54.2307 N.am      22 UNK        -0.7600 
    123 O         -3.7321  -16.1669  -53.5797 O.2       22 UNK        -0.5000 
    124 C124       -2.0649  -19.2470  -53.6046 C.3       23 UNK        -0.0398 
    125 S125       -2.7827  -19.6927  -51.9857 S.3       23 UNK        -0.2404 
    126 C126       -2.1129  -18.4064  -50.8796 C.3       23 UNK        -0.0205 
    127 H127        5.0579  -17.8275  -45.9387 H         1 UNK         0.0600 
    128 H128        3.3547  -17.9136  -45.4849 H         1 UNK         0.0600 
    129 H129        3.8210  -18.0551  -47.1810 H         1 UNK         0.0600 
    130 H130        3.8479  -16.1644  -48.4067 H         1 UNK         0.3000 
    131 H131        2.9806  -13.7228  -47.2595 H         1 UNK         0.0600 
    132 H132        4.1042  -14.1542  -50.0826 H         1 UNK         0.0800 
    133 H133        3.1945  -12.7716  -49.5486 H         1 UNK         0.0800 
    134 H134        2.0968  -15.5103  -52.0275 H         1 UNK         0.0800 
    135 H135        3.3409  -16.0819  -50.9438 H         1 UNK         0.0800 
    136 H136       -0.4138  -16.3101  -51.1730 H         1 UNK         0.1150 
    137 H137       -0.4411  -20.5173  -50.3740 H         1 UNK         0.1150 
    138 H138        3.2768  -18.3923  -50.5165 H         1 UNK         0.1150 
    139 H139        1.5814  -21.7517  -50.2377 H         1 UNK         0.0800 
    140 H140        2.9834  -21.0368  -50.9774 H         1 UNK         0.0800 
    141 H141        1.0756  -19.9190  -47.8047 H         1 UNK         0.0800 
    142 H142        2.2866  -20.0266  -46.5737 H         1 UNK         0.0800 
    143 H143        1.9409  -22.5473  -46.4794 H         1 UNK         0.0600 
    144 H144        0.3397  -20.5417  -45.3202 H         1 UNK         0.3000 
    145 H145       -1.7747  -22.6071  -43.3122 H         1 UNK         0.0600 
    146 H146       -0.8661  -21.0644  -41.5971 H         1 UNK         0.0600 
    147 H147        0.3374  -22.2676  -42.0356 H         1 UNK         0.0600 
    148 H148        0.4717  -20.6279  -42.6571 H         1 UNK         0.0600 
    149 H149       -1.6642  -19.7819  -43.6698 H         1 UNK         0.3000 
    150 H150       -3.9169  -19.6320  -46.4766 H         1 UNK         0.0600 
    151 H151       -5.3388  -19.7438  -44.4385 H         1 UNK         0.0600 
    152 H152       -5.0669  -18.0780  -44.9277 H         1 UNK         0.0600 
    153 H153       -4.1856  -18.7503  -43.5570 H         1 UNK         0.0600 
    154 H154       -2.5777  -17.5510  -45.0871 H         1 UNK         0.3000 
    155 H155        0.4275  -17.5944  -47.0813 H         1 UNK         0.0600 
    156 H156       -0.2378  -15.2131  -47.3104 H         1 UNK         0.0600 
    157 H157       -1.2179  -16.2438  -48.3418 H         1 UNK         0.0600 
    158 H158       -1.8919  -15.6089  -46.8458 H         1 UNK         0.0600 
    159 H159       -0.3141  -15.9522  -44.8813 H         1 UNK         0.3000 
    160 H160        0.8927  -18.1172  -42.2761 H         1 UNK         0.0600 
    161 H161        1.8615  -15.4344  -43.3940 H         1 UNK         0.0600 
    162 H162        2.8520  -16.8382  -43.0466 H         1 UNK         0.0600 
    163 H163        2.0668  -15.9800  -41.7305 H         1 UNK         0.0600 
    164 H164       -0.4549  -15.5598  -42.3572 H         1 UNK         0.3000 
    165 H165       -3.7510  -16.8604  -41.9912 H         1 UNK         0.0600 
    166 H166       -3.7158  -15.4935  -39.9222 H         1 UNK         0.0600 
    167 H167       -2.8306  -16.9892  -39.6704 H         1 UNK         0.0600 
    168 H168       -1.9517  -15.4854  -39.9212 H         1 UNK         0.0600 
    169 H169       -2.6903  -14.2092  -41.9058 H         1 UNK         0.3000 
    170 H170       -2.5547  -13.5842  -45.3952 H         1 UNK         0.0600 
    171 H171       -4.9709  -13.2498  -44.8606 H         1 UNK         0.0600 
    172 H172       -4.5476  -12.5645  -43.2962 H         1 UNK         0.0600 
    173 H173       -4.0912  -11.7317  -44.7828 H         1 UNK         0.0600 
    174 H174       -2.1580  -11.9594  -43.0602 H         1 UNK         0.3000 
    175 H175        0.0665  -11.2397  -42.6435 H         1 UNK         0.0600 
    176 H176       -0.9038  -12.8628  -40.9229 H         1 UNK         0.0600 
    177 H177        0.4911  -13.9110  -41.1539 H         1 UNK         0.0600 
    178 H178        0.6873  -12.3051  -40.4634 H         1 UNK         0.0600 
    179 H179        1.8887  -13.0479  -43.8257 H         1 UNK         0.3000 
    180 H180        4.8225  -11.2277  -42.8342 H         1 UNK         0.0600 
    181 H181        4.1465  -14.2157  -42.8670 H         1 UNK         0.0600 
    182 H182        4.8132  -13.3320  -41.5008 H         1 UNK         0.0600 
    183 H183        5.7615  -13.5174  -42.9684 H         1 UNK         0.0600 
    184 H184        4.3931  -12.9679  -45.0213 H         1 UNK         0.3000 
    185 H185        3.0610  -11.6182  -47.2742 H         1 UNK         0.0600 
    186 H186        3.4312   -9.2192  -47.5152 H         1 UNK         0.0600 
    187 H187        5.1667   -9.4137  -47.2914 H         1 UNK         0.0600 
    188 H188        4.3751  -10.0749  -48.7209 H         1 UNK         0.0600 
    189 H189        6.0380  -11.7444  -47.0046 H         1 UNK         0.3000 
    190 H190       -1.1934  -21.1612  -47.6012 H         1 UNK         0.3000 
    191 H191       -1.5407  -22.7473  -49.8869 H         1 UNK         0.0600 
    192 H192       -3.7775  -21.7069  -48.0691 H         1 UNK         0.0600 
    193 H193       -3.8592  -22.0420  -49.7912 H         1 UNK         0.0600 
    194 H194       -2.8910  -20.7014  -49.2021 H         1 UNK         0.0600 
    195 H195       -2.6434  -23.3716  -46.5150 H         1 UNK         0.3000 
    196 H196       -3.8879  -25.8563  -46.9747 H         1 UNK         0.0600 
    197 H197       -3.6597  -26.1530  -44.5100 H         1 UNK         0.0600 
    198 H198       -4.1929  -24.5251  -44.9042 H         1 UNK         0.0600 
    199 H199       -2.5192  -24.8161  -44.4372 H         1 UNK         0.0600 
    200 H200       -0.4686  -25.1421  -46.1375 H         1 UNK         0.3000 
    201 H201        0.4253  -27.8505  -46.0288 H         1 UNK         0.0600 
    202 H202        1.6785  -25.9724  -45.0091 H         1 UNK         0.0600 
    203 H203        1.9739  -25.2672  -46.5960 H         1 UNK         0.0600 
    204 H204        2.6919  -26.8162  -46.1712 H         1 UNK         0.0600 
    205 H205        0.2756  -25.4881  -48.7127 H         1 UNK         0.3000 
    206 H206        1.4953  -27.1971  -50.6871 H         1 UNK         0.0600 
    207 H207       -0.2323  -24.6786  -50.9710 H         1 UNK         0.0600 
    208 H208        1.5237  -24.7091  -50.8192 H         1 UNK         0.0600 
    209 H209        0.7522  -25.3919  -52.2423 H         1 UNK         0.0600 
    210 H210       -1.6410  -27.1439  -49.3392 H         1 UNK         0.3000 
    211 H211       -3.5868  -28.1102  -49.6807 H         1 UNK         0.0600 
    212 H212       -2.3190  -29.8501  -51.8616 H         1 UNK         0.0600 
    213 H213       -3.8411  -30.1433  -51.0349 H         1 UNK         0.0600 
    214 H214       -2.3327  -30.2308  -50.1396 H         1 UNK         0.0600 
    215 H215       -3.1444  -25.6606  -50.7247 H         1 UNK         0.3000 
    216 H216       -4.6938  -25.5130  -53.2832 H         1 UNK         0.0600 
    217 H217       -2.7197  -23.5223  -52.0123 H         1 UNK         0.0600 
    218 H218       -3.5941  -23.2776  -53.5180 H         1 UNK         0.0600 
    219 H219       -2.3752  -24.5394  -53.4096 H         1 UNK         0.0600 
    220 H220       -6.1675  -23.6437  -53.3564 H         1 UNK         0.3000 
    221 H221       -7.5990  -23.1090  -50.8325 H         1 UNK         0.0600 
    222 H222       -8.9210  -23.5253  -52.8914 H         1 UNK         0.0600 
    223 H223       -8.1054  -22.2015  -53.7198 H         1 UNK         0.0600 
    224 H224       -9.1538  -21.8714  -52.3461 H         1 UNK         0.0600 
    225 H225       -7.1990  -21.3141  -49.6276 H         1 UNK         0.3000 
    226 H226       -4.9579  -19.6878  -50.0358 H         1 UNK         0.0600 
    227 H227       -5.9379  -20.2143  -47.8148 H         1 UNK         0.0600 
    228 H228       -5.7793  -18.4776  -48.0262 H         1 UNK         0.0600 
    229 H229       -7.3584  -19.2380  -48.1890 H         1 UNK         0.0600 
    230 H230       -8.1937  -19.1968  -51.2164 H         1 UNK         0.3000 
    231 H231       -7.8517  -16.3453  -51.8242 H         1 UNK         0.0600 
    232 H232      -10.0530  -18.3497  -52.5607 H         1 UNK         0.0600 
    233 H233      -10.1210  -16.6091  -52.8129 H         1 UNK         0.0600 
    234 H234      -10.0773  -17.2520  -51.1791 H         1 UNK         0.0600 
    235 H235       -6.9954  -19.3601  -53.3722 H         1 UNK         0.3000 
    236 H236       -7.2269  -18.3105  -56.1189 H         1 UNK         0.0600 
    237 H237       -7.8379  -20.6737  -55.6686 H         1 UNK         0.0600 
    238 H238       -6.4727  -20.5676  -56.7688 H         1 UNK         0.0600 
    239 H239       -6.2048  -21.0078  -55.0894 H         1 UNK         0.0600 
    240 H240       -4.6866  -19.2535  -53.7620 H         1 UNK         0.3000 
    241 H241       -2.5213  -18.3516  -55.4848 H         1 UNK         0.0600 
    242 H242       -1.5176  -15.2474  -53.9687 H         1 UNK         0.3800 
    243 H243       -0.8323  -16.7025  -54.6321 H         1 UNK         0.3800 
    244 H244       -1.0564  -18.8537  -53.4706 H         1 UNK         0.0800 
    245 H245       -1.9297  -20.1840  -54.1466 H         1 UNK         0.0800 
    246 H246       -2.4770  -17.4340  -51.2143 H         1 UNK         0.0800 
    247 H247       -2.5212  -18.5457  -49.8786 H         1 UNK         0.0800 
@<TRIPOS>BOND
     1    1    2 1    
     2    1  127 1    
     3    1  128 1    
     4    1  129 1    
     5    2    3 2    
     6    2    4 am   BACKBONE|DICT|INTERRES
     7    4    5 1    
     8    4  130 1    
     9    5    6 1    
    10    5   65 1    
    11    5  131 1    
    12    6    7 1    
    13    6  132 1    
    14    6  133 1    
    15    7    8 1    
    16    8    9 1    
    17    8  134 1    
    18    8  135 1    
    19    9   10 ar   
    20    9   14 ar   
    21   10   11 ar   
    22   10  136 1    
    23   11   12 ar   
    24   11  126 1    
    25   12   13 ar   
    26   12  137 1    
    27   13   14 ar   
    28   13   15 1    
    29   14  138 1    
    30   15   16 1    
    31   15  139 1    
    32   15  140 1    
    33   16   17 1    
    34   17   18 1    
    35   17  141 1    
    36   17  142 1    
    37   18   19 1    
    38   18   67 1    
    39   18  143 1    
    40   19   20 am   BACKBONE|DICT|INTERRES
    41   19  144 1    
    42   20   21 2    
    43   20   22 1    
    44   22   23 1    
    45   22   24 1    
    46   22  145 1    
    47   23  146 1    
    48   23  147 1    
    49   23  148 1    
    50   24   25 am   BACKBONE|DICT|INTERRES
    51   24  149 1    
    52   25   26 2    
    53   25   27 1    
    54   27   28 1    
    55   27   29 1    
    56   27  150 1    
    57   28  151 1    
    58   28  152 1    
    59   28  153 1    
    60   29   30 am   BACKBONE|DICT|INTERRES
    61   29  154 1    
    62   30   31 2    
    63   30   32 1    
    64   32   33 1    
    65   32   34 1    
    66   32  155 1    
    67   33  156 1    
    68   33  157 1    
    69   33  158 1    
    70   34   35 am   BACKBONE|DICT|INTERRES
    71   34  159 1    
    72   35   36 2    
    73   35   37 1    
    74   37   38 1    
    75   37   39 1    
    76   37  160 1    
    77   38  161 1    
    78   38  162 1    
    79   38  163 1    
    80   39   40 am   BACKBONE|DICT|INTERRES
    81   39  164 1    
    82   40   41 2    
    83   40   42 1    
    84   42   43 1    
    85   42   44 1    
    86   42  165 1    
    87   43  166 1    
    88   43  167 1    
    89   43  168 1    
    90   44   45 am   BACKBONE|DICT|INTERRES
    91   44  169 1    
    92   45   46 2    
    93   45   47 1    
    94   47   48 1    
    95   47   49 1    
    96   47  170 1    
    97   48  171 1    
    98   48  172 1    
    99   48  173 1    
   100   49   50 am   BACKBONE|DICT|INTERRES
   101   49  174 1    
   102   50   51 2    
   103   50   52 1    
   104   52   53 1    
   105   52   54 1    
   106   52  175 1    
   107   53  176 1    
   108   53  177 1    
   109   53  178 1    
   110   54   55 am   BACKBONE|DICT|INTERRES
   111   54  179 1    
   112   55   56 2    
   113   55   57 1    
   114   57   58 1    
   115   57   59 1    
   116   57  180 1    
   117   58  181 1    
   118   58  182 1    
   119   58  183 1    
   120   59   60 am   BACKBONE|DICT|INTERRES
   121   59  184 1    
   122   60   61 2    
   123   60   62 1    
   124   62   63 1    
   125   62   64 1    
   126   62  185 1    
   127   63  186 1    
   128   63  187 1    
   129   63  188 1    
   130   64   65 am   BACKBONE|DICT|INTERRES
   131   64  189 1    
   132   65   66 2    
   133   67   68 2    
   134   67   69 am   BACKBONE|DICT|INTERRES
   135   69   70 1    
   136   69  190 1    
   137   70   71 1    
   138   70   72 1    
   139   70  191 1    
   140   71  192 1    
   141   71  193 1    
   142   71  194 1    
   143   72   73 2    
   144   72   74 am   BACKBONE|DICT|INTERRES
   145   74   75 1    
   146   74  195 1    
   147   75   76 1    
   148   75   77 1    
   149   75  196 1    
   150   76  197 1    
   151   76  198 1    
   152   76  199 1    
   153   77   78 2    
   154   77   79 am   BACKBONE|DICT|INTERRES
   155   79   80 1    
   156   79  200 1    
   157   80   81 1    
   158   80   82 1    
   159   80  201 1    
   160   81  202 1    
   161   81  203 1    
   162   81  204 1    
   163   82   83 2    
   164   82   84 am   BACKBONE|DICT|INTERRES
   165   84   85 1    
   166   84  205 1    
   167   85   86 1    
   168   85   87 1    
   169   85  206 1    
   170   86  207 1    
   171   86  208 1    
   172   86  209 1    
   173   87   88 2    
   174   87   89 am   BACKBONE|DICT|INTERRES
   175   89   90 1    
   176   89  210 1    
   177   90   91 1    
   178   90   92 1    
   179   90  211 1    
   180   91  212 1    
   181   91  213 1    
   182   91  214 1    
   183   92   93 2    
   184   92   94 am   BACKBONE|DICT|INTERRES
   185   94   95 1    
   186   94  215 1    
   187   95   96 1    
   188   95   97 1    
   189   95  216 1    
   190   96  217 1    
   191   96  218 1    
   192   96  219 1    
   193   97   98 2    
   194   97   99 am   BACKBONE|DICT|INTERRES
   195   99  100 1    
   196   99  220 1    
   197  100  101 1    
   198  100  102 1    
   199  100  221 1    
   200  101  222 1    
   201  101  223 1    
   202  101  224 1    
   203  102  103 2    
   204  102  104 am   BACKBONE|DICT|INTERRES
   205  104  105 1    
   206  104  225 1    
   207  105  106 1    
   208  105  107 1    
   209  105  226 1    
   210  106  227 1    
   211  106  228 1    
   212  106  229 1    
   213  107  108 2    
   214  107  109 am   BACKBONE|DICT|INTERRES
   215  109  110 1    
   216  109  230 1    
   217  110  111 1    
   218  110  112 1    
   219  110  231 1    
   220  111  232 1    
   221  111  233 1    
   222  111  234 1    
   223  112  113 2    
   224  112  114 am   BACKBONE|DICT|INTERRES
   225  114  115 1    
   226  114  235 1    
   227  115  116 1    
   228  115  117 1    
   229  115  236 1    
   230  116  237 1    
   231  116  238 1    
   232  116  239 1    
   233  117  118 2    
   234  117  119 am   BACKBONE|DICT|INTERRES
   235  119  120 1    
   236  119  240 1    
   237  120  121 1    
   238  120  124 1    
   239  120  241 1    
   240  121  122 am   BACKBONE|DICT|INTERRES
   241  121  123 2    
   242  122  242 1    
   243  122  243 1    
   244  124  125 1    
   245  124  244 1    
   246  124  245 1    
   247  125  126 1    
   248  126  246 1    
   249  126  247 1    
@<TRIPOS>SUBSTRUCTURE
     1 UNK         1 GROUP             0       ****    0 ROOT    
