@<TRIPOS>MOLECULE
3R540
247   249    1
SMALL
USER_CHARGES


@<TRIPOS>ATOM
      1 CA          2.3253   -9.6098  -48.5404 C.3       0 UNK        -0.1800 
      2 C           2.2144  -10.9033  -47.7478 C.2       0 UNK         0.5000 
      3 O           2.1960  -10.8676  -46.5180 O.2       0 UNK        -0.5000 
      4 N           2.1166  -12.0446  -48.4417 N.am      1 UNK        -0.5000 
      5 CA          2.0521  -13.3931  -47.8578 C.3       1 UNK         0.1400 
      6 C6          2.1096  -14.4969  -48.9389 C.3       23 UNK        -0.0398 
      7 S7          3.6397  -14.4408  -49.9335 S.3       23 UNK        -0.2404 
      8 C8          3.0690  -15.1215  -51.5313 C.3       23 UNK        -0.0205 
      9 C9          2.3044  -16.4346  -51.3912 C.ar      23 UNK        -0.0193 
     10 C10         1.0707  -16.5995  -52.0298 C.ar      23 UNK        -0.1150 
     11 C11         0.3398  -17.7810  -51.8719 C.ar      23 UNK        -0.0193 
     12 C12         0.8447  -18.7983  -51.0575 C.ar      23 UNK        -0.1150 
     13 C13         2.0785  -18.6486  -50.4200 C.ar      23 UNK        -0.0193 
     14 C14         2.8130  -17.4763  -50.6092 C.ar      23 UNK        -0.1150 
     15 C15         2.6120  -19.7364  -49.5028 C.3       23 UNK        -0.0205 
     16 S16         2.4367  -19.2736  -47.7504 S.3       23 UNK        -0.2404 
     17 C17         0.6336  -19.4291  -47.5011 C.3       23 UNK        -0.0398 
     18 CA          0.2512  -20.8177  -46.9395 C.3       11 UNK         0.1400 
     19 N           0.8027  -21.0329  -45.5969 N.am      11 UNK        -0.5000 
     20 C           0.8718  -22.2065  -44.9555 C.2       10 UNK         0.5000 
     21 O           0.3926  -23.2526  -45.3928 O.2       10 UNK        -0.5000 
     22 CA          1.5634  -22.1963  -43.5835 C.3       10 UNK         0.1400 
     23 CB          3.0895  -22.1042  -43.7404 C.3       10 UNK        -0.1800 
     24 N           1.0898  -21.0771  -42.7711 N.am      10 UNK        -0.5000 
     25 C           0.0309  -21.1326  -41.9525 C.2       9 UNK         0.5000 
     26 O          -0.6238  -22.1562  -41.7516 O.2       9 UNK        -0.5000 
     27 CA         -0.3787  -19.8271  -41.2403 C.3       9 UNK         0.1400 
     28 CB          0.3199  -19.7212  -39.8764 C.3       9 UNK        -0.1800 
     29 N          -0.1030  -18.6148  -42.0135 N.am      9 UNK        -0.5000 
     30 C          -0.6521  -18.3235  -43.2013 C.2       8 UNK         0.5000 
     31 O          -1.4735  -19.0411  -43.7699 O.2       8 UNK        -0.5000 
     32 CA         -0.1669  -17.0391  -43.8964 C.3       8 UNK         0.1400 
     33 CB         -0.9521  -15.8264  -43.3757 C.3       8 UNK        -0.1800 
     34 N           1.2700  -16.7902  -43.7555 N.am      8 UNK        -0.5000 
     35 C           2.2516  -17.6435  -44.0828 C.2       7 UNK         0.5000 
     36 O           2.0619  -18.7998  -44.4555 O.2       7 UNK        -0.5000 
     37 CA          3.6898  -17.1380  -43.9102 C.3       7 UNK         0.1400 
     38 CB          4.0522  -16.1074  -44.9923 C.3       7 UNK        -0.1800 
     39 N           3.8602  -16.5597  -42.5799 N.am      7 UNK        -0.5000 
     40 C           4.0873  -17.2838  -41.4745 C.2       6 UNK         0.5000 
     41 O           4.2924  -18.4980  -41.4824 O.2       6 UNK        -0.5000 
     42 CA          4.0664  -16.5352  -40.1275 C.3       6 UNK         0.1400 
     43 CB          5.4784  -16.0587  -39.7548 C.3       6 UNK        -0.1800 
     44 N           3.1561  -15.3893  -40.1121 N.am      6 UNK        -0.5000 
     45 C           1.8217  -15.4691  -40.2094 C.2       5 UNK         0.5000 
     46 O           1.2014  -16.5285  -40.3041 O.2       5 UNK        -0.5000 
     47 CA          1.0577  -14.1316  -40.2566 C.3       5 UNK         0.1400 
     48 CB          0.7453  -13.6414  -38.8351 C.3       5 UNK        -0.1800 
     49 N           1.7450  -13.0658  -40.9954 N.am      5 UNK        -0.5000 
     50 C           2.1635  -13.1475  -42.2654 C.2       4 UNK         0.5000 
     51 O           2.0865  -14.1720  -42.9432 O.2       4 UNK        -0.5000 
     52 CA          2.7488  -11.8684  -42.8871 C.3       4 UNK         0.1400 
     53 CB          3.9450  -12.1804  -43.8024 C.3       4 UNK        -0.1800 
     54 N           1.7274  -11.1791  -43.6678 N.am      4 UNK        -0.5000 
     55 C           0.6771  -10.5203  -43.1614 C.2       3 UNK         0.5000 
     56 O           0.5024  -10.3291  -41.9572 O.2       3 UNK        -0.5000 
     57 CA         -0.3588  -10.0020  -44.1720 C.3       3 UNK         0.1400 
     58 CB          0.0798   -8.6527  -44.7627 C.3       3 UNK        -0.1800 
     59 N          -0.5765  -10.9611  -45.2555 N.am      3 UNK        -0.5000 
     60 C          -1.4098  -12.0090  -45.1845 C.2       2 UNK         0.5000 
     61 O          -2.1080  -12.2588  -44.2016 O.2       2 UNK        -0.5000 
     62 CA         -1.4989  -12.9241  -46.4216 C.3       2 UNK         0.1400 
     63 CB         -2.6876  -12.5147  -47.3047 C.3       2 UNK        -0.1800 
     64 N          -0.2797  -12.9020  -47.2302 N.am      2 UNK        -0.5000 
     65 C           0.8207  -13.6153  -46.9533 C.2       1 UNK         0.5000 
     66 O           0.8939  -14.4204  -46.0280 O.2       1 UNK        -0.5000 
     67 C          -1.2700  -21.0645  -47.0370 C.2       11 UNK         0.5000 
     68 O          -1.7747  -21.2356  -48.1467 O.2       11 UNK        -0.5000 
     69 N          -1.9678  -21.1278  -45.8930 N.am      12 UNK        -0.5000 
     70 CA         -3.3564  -21.5762  -45.7719 C.3       12 UNK         0.1400 
     71 CB         -3.8150  -21.4157  -44.3146 C.3       12 UNK        -0.1800 
     72 C          -3.5757  -23.0286  -46.2442 C.2       12 UNK         0.5000 
     73 O          -4.6583  -23.3431  -46.7403 O.2       12 UNK        -0.5000 
     74 N          -2.5426  -23.8788  -46.1382 N.am      13 UNK        -0.5000 
     75 CA         -2.5175  -25.2458  -46.6640 C.3       13 UNK         0.1400 
     76 CB         -1.5426  -26.0891  -45.8229 C.3       13 UNK        -0.1800 
     77 C          -2.1763  -25.2569  -48.1708 C.2       13 UNK         0.5000 
     78 O          -1.2337  -25.9280  -48.5961 O.2       13 UNK        -0.5000 
     79 N          -2.9420  -24.4833  -48.9477 N.am      14 UNK        -0.5000 
     80 CA         -2.8373  -24.3561  -50.3985 C.3       14 UNK         0.1400 
     81 CB         -3.6235  -23.1067  -50.8236 C.3       14 UNK        -0.1800 
     82 C          -3.3636  -25.6061  -51.1292 C.2       14 UNK         0.5000 
     83 O          -4.0643  -26.4273  -50.5294 O.2       14 UNK        -0.5000 
     84 N          -3.0399  -25.7114  -52.4243 N.am      15 UNK        -0.5000 
     85 CA         -3.4871  -26.7638  -53.3387 C.3       15 UNK         0.1400 
     86 CB         -2.9128  -26.4917  -54.7375 C.3       15 UNK        -0.1800 
     87 C          -5.0232  -26.8692  -53.3825 C.2       15 UNK         0.5000 
     88 O          -5.6909  -25.9012  -53.7501 O.2       15 UNK        -0.5000 
     89 N          -5.5495  -28.0187  -52.9339 N.am      16 UNK        -0.5000 
     90 CA         -6.9761  -28.3285  -52.7540 C.3       16 UNK         0.1400 
     91 CB         -7.6814  -28.4264  -54.1232 C.3       16 UNK        -0.1800 
     92 C          -7.7085  -27.3721  -51.7815 C.2       16 UNK         0.5000 
     93 O          -8.9296  -27.2337  -51.8667 O.2       16 UNK        -0.5000 
     94 N          -6.9454  -26.7138  -50.8933 N.am      17 UNK        -0.5000 
     95 CA         -7.3470  -25.6467  -49.9702 C.3       17 UNK         0.1400 
     96 CB         -8.3588  -26.1650  -48.9274 C.3       17 UNK        -0.1800 
     97 C          -7.8242  -24.3531  -50.6701 C.2       17 UNK         0.5000 
     98 O          -8.4249  -23.4995  -50.0151 O.2       17 UNK        -0.5000 
     99 N          -7.5437  -24.2059  -51.9729 N.am      18 UNK        -0.5000 
    100 CA        -7.8724  -23.0240  -52.7602 C.3       18 UNK         0.1400 
    101 CB        -8.0973  -23.4343  -54.2254 C.3       18 UNK        -0.1800 
    102 C         -6.7290  -22.0111  -52.6263 C.2       18 UNK         0.5000 
    103 O         -5.6867  -22.1825  -53.2577 O.2       18 UNK        -0.5000 
    104 N         -6.9302  -20.9747  -51.8026 N.am      19 UNK        -0.5000 
    105 CA        -5.9336  -19.9418  -51.4924 C.3       19 UNK         0.1400 
    106 CB        -6.5288  -18.9573  -50.4751 C.3       19 UNK        -0.1800 
    107 C         -5.3910  -19.1861  -52.7229 C.2       19 UNK         0.5000 
    108 O         -4.2418  -18.7499  -52.7041 O.2       19 UNK        -0.5000 
    109 N         -6.2092  -19.0809  -53.7787 N.am      20 UNK        -0.5000 
    110 CA        -5.8391  -18.5009  -55.0699 C.3       20 UNK         0.1400 
    111 CB        -7.1213  -18.2125  -55.8663 C.3       20 UNK        -0.1800 
    112 C         -4.8807  -19.3840  -55.8969 C.2       20 UNK         0.5000 
    113 O         -4.1863  -18.8547  -56.7656 O.2       20 UNK        -0.5000 
    114 N         -4.8594  -20.7000  -55.6353 N.am      21 UNK        -0.5000 
    115 CA        -3.9684  -21.6549  -56.2997 C.3       21 UNK         0.1400 
    116 CB        -4.6139  -23.0502  -56.2897 C.3       21 UNK        -0.1800 
    117 C         -2.5723  -21.6991  -55.6508 C.2       21 UNK         0.5000 
    118 O         -1.6137  -22.0883  -56.3199 O.2       21 UNK        -0.5000 
    119 N         -2.4843  -21.2868  -54.3783 N.am      22 UNK        -0.5000 
    120 CA        -1.2668  -21.2450  -53.5520 C.3       22 UNK         0.1400 
    121 C         -0.6644  -22.6561  -53.2606 C.2       22 UNK         0.5000 
    122 N          0.5688  -22.7504  -52.7798 N.am      22 UNK        -0.7600 
    123 O         -1.3250  -23.6817  -53.4073 O.2       22 UNK        -0.5000 
    124 C124       -0.2171  -20.2170  -54.0736 C.3       23 UNK        -0.0398 
    125 S125       -0.8726  -18.5222  -54.2731 S.3       23 UNK        -0.2404 
    126 C126       -1.0124  -17.9449  -52.5494 C.3       23 UNK        -0.0205 
    127 H127        3.2582   -9.1017  -48.2969 H         1 UNK         0.0600 
    128 H128        1.4985   -8.9452  -48.2898 H         1 UNK         0.0600 
    129 H129        2.3053   -9.7897  -49.6155 H         1 UNK         0.0600 
    130 H130        2.1493  -12.0118  -49.4508 H         1 UNK         0.3000 
    131 H131        2.9297  -13.5052  -47.2170 H         1 UNK         0.0600 
    132 H132        1.2459  -14.4200  -49.6022 H         1 UNK         0.0800 
    133 H133        2.0563  -15.4864  -48.4793 H         1 UNK         0.0800 
    134 H134        3.9335  -15.2837  -52.1760 H         1 UNK         0.0800 
    135 H135        2.4518  -14.3694  -52.0253 H         1 UNK         0.0800 
    136 H136        0.6704  -15.8050  -52.6440 H         1 UNK         0.1150 
    137 H137        0.2709  -19.7028  -50.9112 H         1 UNK         0.1150 
    138 H138        3.7645  -17.3586  -50.1097 H         1 UNK         0.1150 
    139 H139        2.1068  -20.6862  -49.6845 H         1 UNK         0.0800 
    140 H140        3.6678  -19.9045  -49.7196 H         1 UNK         0.0800 
    141 H141        0.1221  -19.2304  -48.4426 H         1 UNK         0.0800 
    142 H142        0.3129  -18.6424  -46.8169 H         1 UNK         0.0800 
    143 H143        0.7055  -21.5698  -47.5882 H         1 UNK         0.0600 
    144 H144        1.2436  -20.2198  -45.1690 H         1 UNK         0.3000 
    145 H145        1.3359  -23.1398  -43.0826 H         1 UNK         0.0600 
    146 H146        3.5864  -22.1395  -42.7708 H         1 UNK         0.0600 
    147 H147        3.4709  -22.9368  -44.3327 H         1 UNK         0.0600 
    148 H148        3.3940  -21.1820  -44.2369 H         1 UNK         0.0600 
    149 H149        1.5330  -20.1811  -42.9358 H         1 UNK         0.3000 
    150 H150       -1.4563  -19.8726  -41.0700 H         1 UNK         0.0600 
    151 H151        0.1378  -20.6100  -39.2708 H         1 UNK         0.0600 
    152 H152       -0.0469  -18.8638  -39.3119 H         1 UNK         0.0600 
    153 H153        1.3998  -19.6116  -39.9869 H         1 UNK         0.0600 
    154 H154        0.5335  -17.9436  -41.5945 H         1 UNK         0.3000 
    155 H155       -0.3676  -17.1400  -44.9643 H         1 UNK         0.0600 
    156 H156       -0.8536  -15.7222  -42.2961 H         1 UNK         0.0600 
    157 H157       -2.0149  -15.9260  -43.5989 H         1 UNK         0.0600 
    158 H158       -0.6085  -14.8990  -43.8337 H         1 UNK         0.0600 
    159 H159        1.5319  -15.8470  -43.4758 H         1 UNK         0.3000 
    160 H160        4.3648  -17.9892  -44.0240 H         1 UNK         0.0600 
    161 H161        3.3986  -15.2360  -44.9644 H         1 UNK         0.0600 
    162 H162        3.9636  -16.5454  -45.9875 H         1 UNK         0.0600 
    163 H163        5.0788  -15.7597  -44.8783 H         1 UNK         0.0600 
    164 H164        3.6140  -15.5828  -42.4827 H         1 UNK         0.3000 
    165 H165        3.7302  -17.2407  -39.3647 H         1 UNK         0.0600 
    166 H166        5.4920  -15.5986  -38.7665 H         1 UNK         0.0600 
    167 H167        6.1791  -16.8944  -39.7324 H         1 UNK         0.0600 
    168 H168        5.8595  -15.3297  -40.4711 H         1 UNK         0.0600 
    169 H169        3.5765  -14.4740  -40.0473 H         1 UNK         0.3000 
    170 H170        0.1094  -14.3129  -40.7635 H         1 UNK         0.0600 
    171 H171        0.2128  -14.4050  -38.2664 H         1 UNK         0.0600 
    172 H172        1.6544  -13.3957  -38.2847 H         1 UNK         0.0600 
    173 H173        0.1133  -12.7532  -38.8540 H         1 UNK         0.0600 
    174 H174        1.8057  -12.1705  -40.5309 H         1 UNK         0.3000 
    175 H175        3.0938  -11.2094  -42.0878 H         1 UNK         0.0600 
    176 H176        3.6482  -12.7782  -44.6653 H         1 UNK         0.0600 
    177 H177        4.4009  -11.2641  -44.1776 H         1 UNK         0.0600 
    178 H178        4.7164  -12.7344  -43.2662 H         1 UNK         0.0600 
    179 H179        1.8103  -11.2520  -44.6778 H         1 UNK         0.3000 
    180 H180       -1.2988   -9.8439  -43.6387 H         1 UNK         0.0600 
    181 H181        1.0223   -8.7326  -45.3052 H         1 UNK         0.0600 
    182 H182        0.2177   -7.9105  -43.9755 H         1 UNK         0.0600 
    183 H183       -0.6702   -8.2615  -45.4502 H         1 UNK         0.0600 
    184 H184        0.0189  -10.8655  -46.0665 H         1 UNK         0.3000 
    185 H185       -1.6753  -13.9428  -46.0687 H         1 UNK         0.0600 
    186 H186       -3.6211  -12.5445  -46.7412 H         1 UNK         0.0600 
    187 H187       -2.5714  -11.5025  -47.6941 H         1 UNK         0.0600 
    188 H188       -2.7998  -13.1906  -48.1527 H         1 UNK         0.0600 
    189 H189       -0.2617  -12.2710  -48.0180 H         1 UNK         0.3000 
    190 H190       -1.4983  -20.8790  -45.0313 H         1 UNK         0.3000 
    191 H191       -3.9721  -20.9301  -46.4007 H         1 UNK         0.0600 
    192 H192       -3.8019  -20.3693  -44.0104 H         1 UNK         0.0600 
    193 H193       -3.1761  -21.9731  -43.6281 H         1 UNK         0.0600 
    194 H194       -4.8361  -21.7759  -44.1818 H         1 UNK         0.0600 
    195 H195       -1.6611  -23.5313  -45.7759 H         1 UNK         0.3000 
    196 H196       -3.5098  -25.6887  -46.5557 H         1 UNK         0.0600 
    197 H197       -1.5561  -27.1326  -46.1398 H         1 UNK         0.0600 
    198 H198       -1.8117  -26.0674  -44.7667 H         1 UNK         0.0600 
    199 H199       -0.5166  -25.7318  -45.9147 H         1 UNK         0.0600 
    200 H200       -3.6987  -23.9799  -48.5015 H         1 UNK         0.3000 
    201 H201       -1.7859  -24.2194  -50.6595 H         1 UNK         0.0600 
    202 H202       -3.2357  -22.2112  -50.3380 H         1 UNK         0.0600 
    203 H203       -4.6819  -23.1932  -50.5752 H         1 UNK         0.0600 
    204 H204       -3.5513  -22.9452  -51.8991 H         1 UNK         0.0600 
    205 H205       -2.4689  -24.9760  -52.8395 H         1 UNK         0.3000 
    206 H206       -3.0751  -27.7088  -52.9800 H         1 UNK         0.0600 
    207 H207       -1.8228  -26.4906  -54.7225 H         1 UNK         0.0600 
    208 H208       -3.2298  -27.2563  -55.4477 H         1 UNK         0.0600 
    209 H209       -3.2400  -25.5259  -55.1238 H         1 UNK         0.0600 
    210 H210       -4.9138  -28.7378  -52.6169 H         1 UNK         0.3000 
    211 H211       -7.0173  -29.3151  -52.2905 H         1 UNK         0.0600 
    212 H212       -7.7462  -27.4553  -54.6152 H         1 UNK         0.0600 
    213 H213       -8.6981  -28.8059  -54.0154 H         1 UNK         0.0600 
    214 H214       -7.1533  -29.1065  -54.7914 H         1 UNK         0.0600 
    215 H215       -5.9438  -26.8862  -50.9118 H         1 UNK         0.3000 
    216 H216       -6.4405  -25.3689  -49.4305 H         1 UNK         0.0600 
    217 H217       -8.5230  -25.4267  -48.1417 H         1 UNK         0.0600 
    218 H218       -7.9978  -27.0733  -48.4451 H         1 UNK         0.0600 
    219 H219       -9.3285  -26.3836  -49.3749 H         1 UNK         0.0600 
    220 H220       -6.9921  -24.9132  -52.4476 H         1 UNK         0.3000 
    221 H221       -8.7984  -22.5748  -52.3949 H         1 UNK         0.0600 
    222 H222       -7.2115  -23.8972  -54.6611 H         1 UNK         0.0600 
    223 H223       -8.9189  -24.1455  -54.3118 H         1 UNK         0.0600 
    224 H224       -8.3482  -22.5681  -54.8385 H         1 UNK         0.0600 
    225 H225       -7.8040  -20.9201  -51.2983 H         1 UNK         0.3000 
    226 H226       -5.0835  -20.4412  -51.0234 H         1 UNK         0.0600 
    227 H227       -6.8194  -19.4668  -49.5561 H         1 UNK         0.0600 
    228 H228       -5.8031  -18.1895  -50.2032 H         1 UNK         0.0600 
    229 H229       -7.4092  -18.4513  -50.8731 H         1 UNK         0.0600 
    230 H230       -7.1380  -19.4682  -53.7037 H         1 UNK         0.3000 
    231 H231       -5.3314  -17.5518  -54.8853 H         1 UNK         0.0600 
    232 H232       -7.7763  -17.5285  -55.3263 H         1 UNK         0.0600 
    233 H233       -7.6819  -19.1257  -56.0704 H         1 UNK         0.0600 
    234 H234       -6.8895  -17.7483  -56.8259 H         1 UNK         0.0600 
    235 H235       -5.4131  -21.0697  -54.8695 H         1 UNK         0.3000 
    236 H236       -3.8410  -21.3561  -57.3424 H         1 UNK         0.0600 
    237 H237       -4.0233  -23.7534  -56.8779 H         1 UNK         0.0600 
    238 H238       -4.6884  -23.4572  -55.2809 H         1 UNK         0.0600 
    239 H239       -5.6158  -23.0283  -56.7183 H         1 UNK         0.0600 
    240 H240       -3.3366  -20.9998  -53.9195 H         1 UNK         0.3000 
    241 H241       -1.6088  -20.9013  -52.5763 H         1 UNK         0.0600 
    242 H242        1.1516  -21.9445  -52.6256 H         1 UNK         0.3800 
    243 H243        0.9376  -23.6676  -52.5838 H         1 UNK         0.3800 
    244 H244        0.6509  -20.1646  -53.4186 H         1 UNK         0.0800 
    245 H245        0.1712  -20.5384  -55.0408 H         1 UNK         0.0800 
    246 H246       -1.5388  -16.9893  -52.5466 H         1 UNK         0.0800 
    247 H247       -1.6425  -18.6289  -51.9804 H         1 UNK         0.0800 
@<TRIPOS>BOND
     1    1    2 1    
     2    1  127 1    
     3    1  128 1    
     4    1  129 1    
     5    2    3 2    
     6    2    4 am   BACKBONE|DICT|INTERRES
     7    4    5 1    
     8    4  130 1    
     9    5    6 1    
    10    5   65 1    
    11    5  131 1    
    12    6    7 1    
    13    6  132 1    
    14    6  133 1    
    15    7    8 1    
    16    8    9 1    
    17    8  134 1    
    18    8  135 1    
    19    9   10 ar   
    20    9   14 ar   
    21   10   11 ar   
    22   10  136 1    
    23   11   12 ar   
    24   11  126 1    
    25   12   13 ar   
    26   12  137 1    
    27   13   14 ar   
    28   13   15 1    
    29   14  138 1    
    30   15   16 1    
    31   15  139 1    
    32   15  140 1    
    33   16   17 1    
    34   17   18 1    
    35   17  141 1    
    36   17  142 1    
    37   18   19 1    
    38   18   67 1    
    39   18  143 1    
    40   19   20 am   BACKBONE|DICT|INTERRES
    41   19  144 1    
    42   20   21 2    
    43   20   22 1    
    44   22   23 1    
    45   22   24 1    
    46   22  145 1    
    47   23  146 1    
    48   23  147 1    
    49   23  148 1    
    50   24   25 am   BACKBONE|DICT|INTERRES
    51   24  149 1    
    52   25   26 2    
    53   25   27 1    
    54   27   28 1    
    55   27   29 1    
    56   27  150 1    
    57   28  151 1    
    58   28  152 1    
    59   28  153 1    
    60   29   30 am   BACKBONE|DICT|INTERRES
    61   29  154 1    
    62   30   31 2    
    63   30   32 1    
    64   32   33 1    
    65   32   34 1    
    66   32  155 1    
    67   33  156 1    
    68   33  157 1    
    69   33  158 1    
    70   34   35 am   BACKBONE|DICT|INTERRES
    71   34  159 1    
    72   35   36 2    
    73   35   37 1    
    74   37   38 1    
    75   37   39 1    
    76   37  160 1    
    77   38  161 1    
    78   38  162 1    
    79   38  163 1    
    80   39   40 am   BACKBONE|DICT|INTERRES
    81   39  164 1    
    82   40   41 2    
    83   40   42 1    
    84   42   43 1    
    85   42   44 1    
    86   42  165 1    
    87   43  166 1    
    88   43  167 1    
    89   43  168 1    
    90   44   45 am   BACKBONE|DICT|INTERRES
    91   44  169 1    
    92   45   46 2    
    93   45   47 1    
    94   47   48 1    
    95   47   49 1    
    96   47  170 1    
    97   48  171 1    
    98   48  172 1    
    99   48  173 1    
   100   49   50 am   BACKBONE|DICT|INTERRES
   101   49  174 1    
   102   50   51 2    
   103   50   52 1    
   104   52   53 1    
   105   52   54 1    
   106   52  175 1    
   107   53  176 1    
   108   53  177 1    
   109   53  178 1    
   110   54   55 am   BACKBONE|DICT|INTERRES
   111   54  179 1    
   112   55   56 2    
   113   55   57 1    
   114   57   58 1    
   115   57   59 1    
   116   57  180 1    
   117   58  181 1    
   118   58  182 1    
   119   58  183 1    
   120   59   60 am   BACKBONE|DICT|INTERRES
   121   59  184 1    
   122   60   61 2    
   123   60   62 1    
   124   62   63 1    
   125   62   64 1    
   126   62  185 1    
   127   63  186 1    
   128   63  187 1    
   129   63  188 1    
   130   64   65 am   BACKBONE|DICT|INTERRES
   131   64  189 1    
   132   65   66 2    
   133   67   68 2    
   134   67   69 am   BACKBONE|DICT|INTERRES
   135   69   70 1    
   136   69  190 1    
   137   70   71 1    
   138   70   72 1    
   139   70  191 1    
   140   71  192 1    
   141   71  193 1    
   142   71  194 1    
   143   72   73 2    
   144   72   74 am   BACKBONE|DICT|INTERRES
   145   74   75 1    
   146   74  195 1    
   147   75   76 1    
   148   75   77 1    
   149   75  196 1    
   150   76  197 1    
   151   76  198 1    
   152   76  199 1    
   153   77   78 2    
   154   77   79 am   BACKBONE|DICT|INTERRES
   155   79   80 1    
   156   79  200 1    
   157   80   81 1    
   158   80   82 1    
   159   80  201 1    
   160   81  202 1    
   161   81  203 1    
   162   81  204 1    
   163   82   83 2    
   164   82   84 am   BACKBONE|DICT|INTERRES
   165   84   85 1    
   166   84  205 1    
   167   85   86 1    
   168   85   87 1    
   169   85  206 1    
   170   86  207 1    
   171   86  208 1    
   172   86  209 1    
   173   87   88 2    
   174   87   89 am   BACKBONE|DICT|INTERRES
   175   89   90 1    
   176   89  210 1    
   177   90   91 1    
   178   90   92 1    
   179   90  211 1    
   180   91  212 1    
   181   91  213 1    
   182   91  214 1    
   183   92   93 2    
   184   92   94 am   BACKBONE|DICT|INTERRES
   185   94   95 1    
   186   94  215 1    
   187   95   96 1    
   188   95   97 1    
   189   95  216 1    
   190   96  217 1    
   191   96  218 1    
   192   96  219 1    
   193   97   98 2    
   194   97   99 am   BACKBONE|DICT|INTERRES
   195   99  100 1    
   196   99  220 1    
   197  100  101 1    
   198  100  102 1    
   199  100  221 1    
   200  101  222 1    
   201  101  223 1    
   202  101  224 1    
   203  102  103 2    
   204  102  104 am   BACKBONE|DICT|INTERRES
   205  104  105 1    
   206  104  225 1    
   207  105  106 1    
   208  105  107 1    
   209  105  226 1    
   210  106  227 1    
   211  106  228 1    
   212  106  229 1    
   213  107  108 2    
   214  107  109 am   BACKBONE|DICT|INTERRES
   215  109  110 1    
   216  109  230 1    
   217  110  111 1    
   218  110  112 1    
   219  110  231 1    
   220  111  232 1    
   221  111  233 1    
   222  111  234 1    
   223  112  113 2    
   224  112  114 am   BACKBONE|DICT|INTERRES
   225  114  115 1    
   226  114  235 1    
   227  115  116 1    
   228  115  117 1    
   229  115  236 1    
   230  116  237 1    
   231  116  238 1    
   232  116  239 1    
   233  117  118 2    
   234  117  119 am   BACKBONE|DICT|INTERRES
   235  119  120 1    
   236  119  240 1    
   237  120  121 1    
   238  120  124 1    
   239  120  241 1    
   240  121  122 am   BACKBONE|DICT|INTERRES
   241  121  123 2    
   242  122  242 1    
   243  122  243 1    
   244  124  125 1    
   245  124  244 1    
   246  124  245 1    
   247  125  126 1    
   248  126  246 1    
   249  126  247 1    
@<TRIPOS>SUBSTRUCTURE
     1 UNK         1 GROUP             0       ****    0 ROOT    
