@<TRIPOS>MOLECULE
3R540
247   249    1
SMALL
USER_CHARGES


@<TRIPOS>ATOM
      1 CA          2.0647  -16.9918  -47.8658 C.3       0 UNK        -0.1800 
      2 C           1.8751  -15.6437  -48.5366 C.2       0 UNK         0.5000 
      3 O           1.0072  -14.8692  -48.1337 O.2       0 UNK        -0.5000 
      4 N           2.7012  -15.3558  -49.5499 N.am      1 UNK        -0.5000 
      5 CA          2.6112  -14.1811  -50.4280 C.3       1 UNK         0.1400 
      6 C6          3.5792  -14.2773  -51.6340 C.3       23 UNK        -0.0398 
      7 S7          3.6068  -15.8900  -52.4946 S.3       23 UNK        -0.2404 
      8 C8          1.8787  -16.1057  -53.0344 C.3       23 UNK        -0.0205 
      9 C9          1.0796  -17.0127  -52.1048 C.ar      23 UNK        -0.0193 
     10 C10        -0.0894  -16.5515  -51.4903 C.ar      23 UNK        -0.1150 
     11 C11        -0.8766  -17.4062  -50.7104 C.ar      23 UNK        -0.0193 
     12 C12        -0.4668  -18.7333  -50.5368 C.ar      23 UNK        -0.1150 
     13 C13         0.7157  -19.1987  -51.1121 C.ar      23 UNK        -0.0193 
     14 C14         1.4785  -18.3381  -51.9047 C.ar      23 UNK        -0.1150 
     15 C15         1.1489  -20.6403  -50.9019 C.3       23 UNK        -0.0205 
     16 S16         2.4104  -20.7885  -49.5969 S.3       23 UNK        -0.2404 
     17 C17         1.4536  -20.4931  -48.0685 C.3       23 UNK        -0.0398 
     18 CA          1.0598  -21.8068  -47.3540 C.3       11 UNK         0.1400 
     19 N           1.0244  -21.6674  -45.8962 N.am      11 UNK        -0.5000 
     20 C           0.9963  -22.7051  -45.0484 C.2       10 UNK         0.5000 
     21 O           0.9967  -23.8816  -45.4114 O.2       10 UNK        -0.5000 
     22 CA          0.9209  -22.3791  -43.5466 C.3       10 UNK         0.1400 
     23 CB          2.2889  -21.9292  -43.0123 C.3       10 UNK        -0.1800 
     24 N          -0.0904  -21.3686  -43.2379 N.am      10 UNK        -0.5000 
     25 C          -1.4062  -21.5359  -43.4351 C.2       9 UNK         0.5000 
     26 O          -1.9061  -22.5714  -43.8752 O.2       9 UNK        -0.5000 
     27 CA         -2.3160  -20.3333  -43.1267 C.3       9 UNK         0.1400 
     28 CB         -2.5742  -20.2216  -41.6169 C.3       9 UNK        -0.1800 
     29 N          -1.7869  -19.0665  -43.6350 N.am      9 UNK        -0.5000 
     30 C          -1.5370  -18.8156  -44.9291 C.2       8 UNK         0.5000 
     31 O          -1.7315  -19.6245  -45.8325 O.2       8 UNK        -0.5000 
     32 CA         -0.8904  -17.4645  -45.2668 C.3       8 UNK         0.1400 
     33 CB         -1.9011  -16.3133  -45.1523 C.3       8 UNK        -0.1800 
     34 N           0.2698  -17.1898  -44.4248 N.am      8 UNK        -0.5000 
     35 C           1.3678  -17.9534  -44.3437 C.2       7 UNK         0.5000 
     36 O           1.5551  -18.9692  -45.0131 O.2       7 UNK        -0.5000 
     37 CA          2.4154  -17.5261  -43.3049 C.3       7 UNK         0.1400 
     38 CB          3.2562  -16.3495  -43.8257 C.3       7 UNK        -0.1800 
     39 N           1.7952  -17.1661  -42.0299 N.am      7 UNK        -0.5000 
     40 C           1.1874  -18.0371  -41.2119 C.2       6 UNK         0.5000 
     41 O           1.1011  -19.2446  -41.4363 O.2       6 UNK        -0.5000 
     42 CA          0.5404  -17.4515  -39.9441 C.3       6 UNK         0.1400 
     43 CB          1.5938  -17.2304  -38.8482 C.3       6 UNK        -0.1800 
     44 N          -0.1673  -16.1959  -40.2000 N.am      6 UNK        -0.5000 
     45 C          -1.2844  -16.1010  -40.9334 C.2       5 UNK         0.5000 
     46 O          -1.8335  -17.0605  -41.4746 O.2       5 UNK        -0.5000 
     47 CA         -1.8650  -14.6885  -41.1291 C.3       5 UNK         0.1400 
     48 CB         -2.6782  -14.2626  -39.8973 C.3       5 UNK        -0.1800 
     49 N          -0.8721  -13.6533  -41.4401 N.am      5 UNK        -0.5000 
     50 C          -0.0094  -13.7028  -42.4631 C.2       4 UNK         0.5000 
     51 O           0.1702  -14.6997  -43.1637 O.2       4 UNK        -0.5000 
     52 CA          0.7912  -12.4286  -42.7743 C.3       4 UNK         0.1400 
     53 CB          2.2339  -12.5533  -42.2617 C.3       4 UNK        -0.1800 
     54 N           0.8105  -12.2188  -44.2209 N.am      4 UNK        -0.5000 
     55 C          -0.2430  -11.8096  -44.9415 C.2       3 UNK         0.5000 
     56 O          -1.2850  -11.3911  -44.4331 O.2       3 UNK        -0.5000 
     57 CA         -0.1398  -11.9277  -46.4776 C.3       3 UNK         0.1400 
     58 CB         -0.8335  -10.7616  -47.2125 C.3       3 UNK        -0.1800 
     59 N           1.2219  -12.1381  -46.9831 N.am      3 UNK        -0.5000 
     60 C           2.2524  -11.2769  -46.9539 C.2       2 UNK         0.5000 
     61 O           2.1979  -10.1583  -46.4425 O.2       2 UNK        -0.5000 
     62 CA          3.5803  -11.7439  -47.5879 C.3       2 UNK         0.1400 
     63 CB          4.5831  -12.1367  -46.4911 C.3       2 UNK        -0.1800 
     64 N           3.4264  -12.8743  -48.5055 N.am      2 UNK        -0.5000 
     65 C           2.8084  -12.8342  -49.6951 C.2       1 UNK         0.5000 
     66 O           2.3862  -11.7974  -50.2082 O.2       1 UNK        -0.5000 
     67 C          -0.2528  -22.3957  -47.9083 C.2       11 UNK         0.5000 
     68 O          -0.1987  -23.2609  -48.7808 O.2       11 UNK        -0.5000 
     69 N          -1.4015  -21.9682  -47.3637 N.am      12 UNK        -0.5000 
     70 CA         -2.7239  -22.5064  -47.6846 C.3       12 UNK         0.1400 
     71 CB         -3.8088  -21.6971  -46.9593 C.3       12 UNK        -0.1800 
     72 C          -2.8528  -23.9995  -47.3409 C.2       12 UNK         0.5000 
     73 O          -3.3866  -24.7580  -48.1486 O.2       12 UNK        -0.5000 
     74 N          -2.3311  -24.4028  -46.1733 N.am      13 UNK        -0.5000 
     75 CA         -2.2716  -25.7977  -45.7357 C.3       13 UNK         0.1400 
     76 CB         -1.8528  -25.8597  -44.2592 C.3       13 UNK        -0.1800 
     77 C          -1.3360  -26.6564  -46.6067 C.2       13 UNK         0.5000 
     78 O          -1.6780  -27.7996  -46.9103 O.2       13 UNK        -0.5000 
     79 N          -0.1883  -26.0897  -47.0063 N.am      14 UNK        -0.5000 
     80 CA          0.7842  -26.7250  -47.8967 C.3       14 UNK         0.1400 
     81 CB          2.0908  -25.9166  -47.8974 C.3       14 UNK        -0.1800 
     82 C           0.2485  -26.9045  -49.3294 C.2       14 UNK         0.5000 
     83 O           0.4311  -27.9730  -49.9145 O.2       14 UNK        -0.5000 
     84 N          -0.4114  -25.8663  -49.8615 N.am      15 UNK        -0.5000 
     85 CA         -1.0611  -25.8766  -51.1727 C.3       15 UNK         0.1400 
     86 CB         -1.4333  -24.4380  -51.5694 C.3       15 UNK        -0.1800 
     87 C          -2.3078  -26.7781  -51.2093 C.2       15 UNK         0.5000 
     88 O          -2.5538  -27.4286  -52.2257 O.2       15 UNK        -0.5000 
     89 N          -3.0685  -26.7813  -50.1038 N.am      16 UNK        -0.5000 
     90 CA         -4.3505  -27.4622  -49.8946 C.3       16 UNK         0.1400 
     91 CB         -4.1699  -28.9940  -49.9173 C.3       16 UNK        -0.1800 
     92 C          -5.4536  -26.9639  -50.8539 C.2       16 UNK         0.5000 
     93 O          -6.3513  -27.7273  -51.2156 O.2       16 UNK        -0.5000 
     94 N          -5.3595  -25.6912  -51.2570 N.am      17 UNK        -0.5000 
     95 CA         -6.1944  -25.0347  -52.2549 C.3       17 UNK         0.1400 
     96 CB         -5.8599  -25.5826  -53.6590 C.3       17 UNK        -0.1800 
     97 C          -5.9548  -23.5180  -52.1927 C.2       17 UNK         0.5000 
     98 O          -5.0676  -23.0549  -51.4671 O.2       17 UNK        -0.5000 
     99 N          -6.7444  -22.7748  -52.9769 N.am      18 UNK        -0.5000 
    100 CA        -6.5727  -21.3473  -53.2259 C.3       18 UNK         0.1400 
    101 CB        -7.8898  -20.7690  -53.7707 C.3       18 UNK        -0.1800 
    102 C         -5.3993  -21.1225  -54.1976 C.2       18 UNK         0.5000 
    103 O         -5.5883  -21.1962  -55.4132 O.2       18 UNK        -0.5000 
    104 N         -4.2058  -20.8827  -53.6450 N.am      19 UNK        -0.5000 
    105 CA        -2.9947  -20.5401  -54.3891 C.3       19 UNK         0.1400 
    106 CB        -1.7692  -20.7720  -53.4918 C.3       19 UNK        -0.1800 
    107 C         -3.0412  -19.0856  -54.8903 C.2       19 UNK         0.5000 
    108 O         -2.6357  -18.8151  -56.0212 O.2       19 UNK        -0.5000 
    109 N         -3.5743  -18.1902  -54.0513 N.am      20 UNK        -0.5000 
    110 CA        -3.8256  -16.7842  -54.3517 C.3       20 UNK         0.1400 
    111 CB        -2.5229  -15.9672  -54.2635 C.3       20 UNK        -0.1800 
    112 C         -4.9076  -16.3046  -53.3774 C.2       20 UNK         0.5000 
    113 O         -4.6154  -15.5613  -52.4392 O.2       20 UNK        -0.5000 
    114 N         -6.1253  -16.8341  -53.5632 N.am      21 UNK        -0.5000 
    115 CA        -7.3069  -16.7462  -52.6910 C.3       21 UNK         0.1400 
    116 CB        -7.7373  -15.2905  -52.4244 C.3       21 UNK        -0.1800 
    117 C         -7.1374  -17.5472  -51.3855 C.2       21 UNK         0.5000 
    118 O         -7.9701  -18.4046  -51.0908 O.2       21 UNK        -0.5000 
    119 N         -6.0389  -17.2980  -50.6632 N.am      22 UNK        -0.5000 
    120 CA        -5.5150  -18.1655  -49.6008 C.3       22 UNK         0.1400 
    121 C         -4.9472  -19.4732  -50.2312 C.2       22 UNK         0.5000 
    122 N         -5.3128  -20.6406  -49.7208 N.am      22 UNK        -0.7600 
    123 O         -4.2120  -19.4339  -51.2164 O.2       22 UNK        -0.5000 
    124 C124       -4.5516  -17.3686  -48.6571 C.3       23 UNK        -0.0398 
    125 S125       -2.7690  -17.7748  -48.6442 S.3       23 UNK        -0.2404 
    126 C126       -2.1948  -16.8906  -50.1346 C.3       23 UNK        -0.0205 
    127 H127        2.3756  -16.8530  -46.8323 H         1 UNK         0.0600 
    128 H128        2.8167  -17.5964  -48.3733 H         1 UNK         0.0600 
    129 H129        1.1256  -17.5418  -47.8789 H         1 UNK         0.0600 
    130 H130        3.3826  -16.0444  -49.8367 H         1 UNK         0.3000 
    131 H131        1.5924  -14.1644  -50.8189 H         1 UNK         0.0600 
    132 H132        4.6028  -14.0778  -51.3111 H         1 UNK         0.0800 
    133 H133        3.3420  -13.5058  -52.3688 H         1 UNK         0.0800 
    134 H134        1.3989  -15.1327  -53.1486 H         1 UNK         0.0800 
    135 H135        1.8829  -16.5565  -54.0277 H         1 UNK         0.0800 
    136 H136       -0.4080  -15.5307  -51.6464 H         1 UNK         0.1150 
    137 H137       -1.0734  -19.4198  -49.9643 H         1 UNK         0.1150 
    138 H138        2.3814  -18.7027  -52.3740 H         1 UNK         0.1150 
    139 H139        0.2913  -21.2717  -50.6651 H         1 UNK         0.0800 
    140 H140        1.5606  -21.0321  -51.8330 H         1 UNK         0.0800 
    141 H141        0.5884  -19.8558  -48.2519 H         1 UNK         0.0800 
    142 H142        2.1114  -19.9111  -47.4230 H         1 UNK         0.0800 
    143 H143        1.8432  -22.5402  -47.5579 H         1 UNK         0.0600 
    144 H144        1.0411  -20.7208  -45.5234 H         1 UNK         0.3000 
    145 H145        0.6419  -23.2969  -43.0247 H         1 UNK         0.0600 
    146 H146        2.2631  -21.7934  -41.9310 H         1 UNK         0.0600 
    147 H147        3.0569  -22.6729  -43.2284 H         1 UNK         0.0600 
    148 H148        2.6079  -20.9872  -43.4589 H         1 UNK         0.0600 
    149 H149        0.2433  -20.4946  -42.8453 H         1 UNK         0.3000 
    150 H150       -3.2732  -20.5102  -43.6211 H         1 UNK         0.0600 
    151 H151       -2.9659  -21.1573  -41.2160 H         1 UNK         0.0600 
    152 H152       -3.3065  -19.4438  -41.3998 H         1 UNK         0.0600 
    153 H153       -1.6617  -19.9840  -41.0690 H         1 UNK         0.0600 
    154 H154       -1.6116  -18.3401  -42.9465 H         1 UNK         0.3000 
    155 H155       -0.5502  -17.5102  -46.3019 H         1 UNK         0.0600 
    156 H156       -1.4615  -15.3728  -45.4852 H         1 UNK         0.0600 
    157 H157       -2.7785  -16.5002  -45.7723 H         1 UNK         0.0600 
    158 H158       -2.2446  -16.1774  -44.1267 H         1 UNK         0.0600 
    159 H159        0.2214  -16.3462  -43.8555 H         1 UNK         0.3000 
    160 H160        3.0834  -18.3724  -43.1311 H         1 UNK         0.0600 
    161 H161        2.6394  -15.4818  -44.0611 H         1 UNK         0.0600 
    162 H162        3.7891  -16.6273  -44.7357 H         1 UNK         0.0600 
    163 H163        4.0034  -16.0425  -43.0937 H         1 UNK         0.0600 
    164 H164        1.7580  -16.1835  -41.8035 H         1 UNK         0.3000 
    165 H165       -0.1846  -18.1806  -39.5757 H         1 UNK         0.0600 
    166 H166        1.1317  -16.8942  -37.9198 H         1 UNK         0.0600 
    167 H167        2.1270  -18.1562  -38.6279 H         1 UNK         0.0600 
    168 H168        2.3350  -16.4867  -39.1432 H         1 UNK         0.0600 
    169 H169        0.2245  -15.3548  -39.8027 H         1 UNK         0.3000 
    170 H170       -2.5482  -14.7394  -41.9794 H         1 UNK         0.0600 
    171 H171       -3.4352  -15.0088  -39.6512 H         1 UNK         0.0600 
    172 H172       -2.0440  -14.1362  -39.0190 H         1 UNK         0.0600 
    173 H173       -3.1989  -13.3213  -40.0741 H         1 UNK         0.0600 
    174 H174       -0.9419  -12.7985  -40.9072 H         1 UNK         0.3000 
    175 H175        0.3174  -11.5701  -42.2936 H         1 UNK         0.0600 
    176 H176        2.2527  -12.6983  -41.1809 H         1 UNK         0.0600 
    177 H177        2.7547  -13.3971  -42.7154 H         1 UNK         0.0600 
    178 H178        2.8071  -11.6517  -42.4786 H         1 UNK         0.0600 
    179 H179        1.6063  -12.5855  -44.7196 H         1 UNK         0.3000 
    180 H180       -0.6840  -12.8379  -46.7340 H         1 UNK         0.0600 
    181 H181       -0.4023   -9.7972  -46.9436 H         1 UNK         0.0600 
    182 H182       -1.8956  -10.7216  -46.9683 H         1 UNK         0.0600 
    183 H183       -0.7555  -10.8755  -48.2938 H         1 UNK         0.0600 
    184 H184        1.3669  -13.0434  -47.4218 H         1 UNK         0.3000 
    185 H185        3.9918  -10.9018  -48.1481 H         1 UNK         0.0600 
    186 H186        4.7502  -11.3102  -45.7988 H         1 UNK         0.0600 
    187 H187        4.2294  -12.9873  -45.9068 H         1 UNK         0.0600 
    188 H188        5.5511  -12.4008  -46.9174 H         1 UNK         0.0600 
    189 H189        3.7405  -13.7737  -48.1716 H         1 UNK         0.3000 
    190 H190       -1.3821  -21.2137  -46.6797 H         1 UNK         0.3000 
    191 H191       -2.8763  -22.3955  -48.7603 H         1 UNK         0.0600 
    192 H192       -3.6787  -21.7266  -45.8775 H         1 UNK         0.0600 
    193 H193       -4.8023  -22.0878  -47.1812 H         1 UNK         0.0600 
    194 H194       -3.7917  -20.6522  -47.2695 H         1 UNK         0.0600 
    195 H195       -1.9526  -23.7089  -45.5359 H         1 UNK         0.3000 
    196 H196       -3.2766  -26.2167  -45.8188 H         1 UNK         0.0600 
    197 H197       -1.8106  -26.8912  -43.9073 H         1 UNK         0.0600 
    198 H198       -2.5643  -25.3291  -43.6262 H         1 UNK         0.0600 
    199 H199       -0.8694  -25.4167  -44.0995 H         1 UNK         0.0600 
    200 H200        0.0459  -25.1648  -46.6602 H         1 UNK         0.3000 
    201 H201        1.0041  -27.7173  -47.4974 H         1 UNK         0.0600 
    202 H202        2.5059  -25.8371  -46.8925 H         1 UNK         0.0600 
    203 H203        1.9410  -24.9064  -48.2781 H         1 UNK         0.0600 
    204 H204        2.8444  -26.3946  -48.5243 H         1 UNK         0.0600 
    205 H205       -0.4566  -24.9930  -49.3398 H         1 UNK         0.3000 
    206 H206       -0.3475  -26.2597  -51.9051 H         1 UNK         0.0600 
    207 H207       -0.5492  -23.8024  -51.6236 H         1 UNK         0.0600 
    208 H208       -1.9143  -24.4124  -52.5481 H         1 UNK         0.0600 
    209 H209       -2.1233  -23.9875  -50.8542 H         1 UNK         0.0600 
    210 H210       -2.8092  -26.1499  -49.3511 H         1 UNK         0.3000 
    211 H211       -4.6766  -27.1859  -48.8910 H         1 UNK         0.0600 
    212 H212       -3.9113  -29.3579  -50.9119 H         1 UNK         0.0600 
    213 H213       -5.0862  -29.5004  -49.6121 H         1 UNK         0.0600 
    214 H214       -3.3833  -29.3060  -49.2299 H         1 UNK         0.0600 
    215 H215       -4.6352  -25.0979  -50.8702 H         1 UNK         0.3000 
    216 H216       -7.2437  -25.2251  -52.0212 H         1 UNK         0.0600 
    217 H217       -4.8123  -25.4135  -53.9121 H         1 UNK         0.0600 
    218 H218       -6.4655  -25.1068  -54.4309 H         1 UNK         0.0600 
    219 H219       -6.0480  -26.6539  -53.7275 H         1 UNK         0.0600 
    220 H220       -7.4323  -23.2404  -53.5506 H         1 UNK         0.3000 
    221 H221       -6.3592  -20.8409  -52.2857 H         1 UNK         0.0600 
    222 H222       -8.6912  -20.8631  -53.0375 H         1 UNK         0.0600 
    223 H223       -8.2098  -21.2710  -54.6845 H         1 UNK         0.0600 
    224 H224       -7.7836  -19.7080  -53.9980 H         1 UNK         0.0600 
    225 H225       -4.1485  -20.7869  -52.6350 H         1 UNK         0.3000 
    226 H226       -2.9141  -21.1979  -55.2570 H         1 UNK         0.0600 
    227 H227       -0.8459  -20.5106  -54.0102 H         1 UNK         0.0600 
    228 H228       -1.8191  -20.1686  -52.5853 H         1 UNK         0.0600 
    229 H229       -1.6922  -21.8169  -53.1918 H         1 UNK         0.0600 
    230 H230       -3.8670  -18.5089  -53.1324 H         1 UNK         0.3000 
    231 H231       -4.2253  -16.6951  -55.3640 H         1 UNK         0.0600 
    232 H232       -2.0856  -16.0283  -53.2694 H         1 UNK         0.0600 
    233 H233       -2.7083  -14.9142  -54.4772 H         1 UNK         0.0600 
    234 H234       -1.7791  -16.3189  -54.9783 H         1 UNK         0.0600 
    235 H235       -6.2357  -17.4545  -54.3531 H         1 UNK         0.3000 
    236 H236       -8.1165  -17.2214  -53.2472 H         1 UNK         0.0600 
    237 H237       -8.6875  -15.2624  -51.8899 H         1 UNK         0.0600 
    238 H238       -7.0121  -14.7471  -51.8185 H         1 UNK         0.0600 
    239 H239       -7.8728  -14.7430  -53.3570 H         1 UNK         0.0600 
    240 H240       -5.3988  -16.6019  -51.0333 H         1 UNK         0.3000 
    241 H241       -6.3753  -18.4524  -48.9921 H         1 UNK         0.0600 
    242 H242       -5.0030  -21.4913  -50.1764 H         1 UNK         0.3800 
    243 H243       -5.9461  -20.6991  -48.9404 H         1 UNK         0.3800 
    244 H244       -4.8859  -17.5245  -47.6306 H         1 UNK         0.0800 
    245 H245       -4.6529  -16.2932  -48.8116 H         1 UNK         0.0800 
    246 H246       -2.9492  -16.9846  -50.9146 H         1 UNK         0.0800 
    247 H247       -2.1136  -15.8286  -49.8985 H         1 UNK         0.0800 
@<TRIPOS>BOND
     1    1    2 1    
     2    1  127 1    
     3    1  128 1    
     4    1  129 1    
     5    2    3 2    
     6    2    4 am   BACKBONE|DICT|INTERRES
     7    4    5 1    
     8    4  130 1    
     9    5    6 1    
    10    5   65 1    
    11    5  131 1    
    12    6    7 1    
    13    6  132 1    
    14    6  133 1    
    15    7    8 1    
    16    8    9 1    
    17    8  134 1    
    18    8  135 1    
    19    9   10 ar   
    20    9   14 ar   
    21   10   11 ar   
    22   10  136 1    
    23   11   12 ar   
    24   11  126 1    
    25   12   13 ar   
    26   12  137 1    
    27   13   14 ar   
    28   13   15 1    
    29   14  138 1    
    30   15   16 1    
    31   15  139 1    
    32   15  140 1    
    33   16   17 1    
    34   17   18 1    
    35   17  141 1    
    36   17  142 1    
    37   18   19 1    
    38   18   67 1    
    39   18  143 1    
    40   19   20 am   BACKBONE|DICT|INTERRES
    41   19  144 1    
    42   20   21 2    
    43   20   22 1    
    44   22   23 1    
    45   22   24 1    
    46   22  145 1    
    47   23  146 1    
    48   23  147 1    
    49   23  148 1    
    50   24   25 am   BACKBONE|DICT|INTERRES
    51   24  149 1    
    52   25   26 2    
    53   25   27 1    
    54   27   28 1    
    55   27   29 1    
    56   27  150 1    
    57   28  151 1    
    58   28  152 1    
    59   28  153 1    
    60   29   30 am   BACKBONE|DICT|INTERRES
    61   29  154 1    
    62   30   31 2    
    63   30   32 1    
    64   32   33 1    
    65   32   34 1    
    66   32  155 1    
    67   33  156 1    
    68   33  157 1    
    69   33  158 1    
    70   34   35 am   BACKBONE|DICT|INTERRES
    71   34  159 1    
    72   35   36 2    
    73   35   37 1    
    74   37   38 1    
    75   37   39 1    
    76   37  160 1    
    77   38  161 1    
    78   38  162 1    
    79   38  163 1    
    80   39   40 am   BACKBONE|DICT|INTERRES
    81   39  164 1    
    82   40   41 2    
    83   40   42 1    
    84   42   43 1    
    85   42   44 1    
    86   42  165 1    
    87   43  166 1    
    88   43  167 1    
    89   43  168 1    
    90   44   45 am   BACKBONE|DICT|INTERRES
    91   44  169 1    
    92   45   46 2    
    93   45   47 1    
    94   47   48 1    
    95   47   49 1    
    96   47  170 1    
    97   48  171 1    
    98   48  172 1    
    99   48  173 1    
   100   49   50 am   BACKBONE|DICT|INTERRES
   101   49  174 1    
   102   50   51 2    
   103   50   52 1    
   104   52   53 1    
   105   52   54 1    
   106   52  175 1    
   107   53  176 1    
   108   53  177 1    
   109   53  178 1    
   110   54   55 am   BACKBONE|DICT|INTERRES
   111   54  179 1    
   112   55   56 2    
   113   55   57 1    
   114   57   58 1    
   115   57   59 1    
   116   57  180 1    
   117   58  181 1    
   118   58  182 1    
   119   58  183 1    
   120   59   60 am   BACKBONE|DICT|INTERRES
   121   59  184 1    
   122   60   61 2    
   123   60   62 1    
   124   62   63 1    
   125   62   64 1    
   126   62  185 1    
   127   63  186 1    
   128   63  187 1    
   129   63  188 1    
   130   64   65 am   BACKBONE|DICT|INTERRES
   131   64  189 1    
   132   65   66 2    
   133   67   68 2    
   134   67   69 am   BACKBONE|DICT|INTERRES
   135   69   70 1    
   136   69  190 1    
   137   70   71 1    
   138   70   72 1    
   139   70  191 1    
   140   71  192 1    
   141   71  193 1    
   142   71  194 1    
   143   72   73 2    
   144   72   74 am   BACKBONE|DICT|INTERRES
   145   74   75 1    
   146   74  195 1    
   147   75   76 1    
   148   75   77 1    
   149   75  196 1    
   150   76  197 1    
   151   76  198 1    
   152   76  199 1    
   153   77   78 2    
   154   77   79 am   BACKBONE|DICT|INTERRES
   155   79   80 1    
   156   79  200 1    
   157   80   81 1    
   158   80   82 1    
   159   80  201 1    
   160   81  202 1    
   161   81  203 1    
   162   81  204 1    
   163   82   83 2    
   164   82   84 am   BACKBONE|DICT|INTERRES
   165   84   85 1    
   166   84  205 1    
   167   85   86 1    
   168   85   87 1    
   169   85  206 1    
   170   86  207 1    
   171   86  208 1    
   172   86  209 1    
   173   87   88 2    
   174   87   89 am   BACKBONE|DICT|INTERRES
   175   89   90 1    
   176   89  210 1    
   177   90   91 1    
   178   90   92 1    
   179   90  211 1    
   180   91  212 1    
   181   91  213 1    
   182   91  214 1    
   183   92   93 2    
   184   92   94 am   BACKBONE|DICT|INTERRES
   185   94   95 1    
   186   94  215 1    
   187   95   96 1    
   188   95   97 1    
   189   95  216 1    
   190   96  217 1    
   191   96  218 1    
   192   96  219 1    
   193   97   98 2    
   194   97   99 am   BACKBONE|DICT|INTERRES
   195   99  100 1    
   196   99  220 1    
   197  100  101 1    
   198  100  102 1    
   199  100  221 1    
   200  101  222 1    
   201  101  223 1    
   202  101  224 1    
   203  102  103 2    
   204  102  104 am   BACKBONE|DICT|INTERRES
   205  104  105 1    
   206  104  225 1    
   207  105  106 1    
   208  105  107 1    
   209  105  226 1    
   210  106  227 1    
   211  106  228 1    
   212  106  229 1    
   213  107  108 2    
   214  107  109 am   BACKBONE|DICT|INTERRES
   215  109  110 1    
   216  109  230 1    
   217  110  111 1    
   218  110  112 1    
   219  110  231 1    
   220  111  232 1    
   221  111  233 1    
   222  111  234 1    
   223  112  113 2    
   224  112  114 am   BACKBONE|DICT|INTERRES
   225  114  115 1    
   226  114  235 1    
   227  115  116 1    
   228  115  117 1    
   229  115  236 1    
   230  116  237 1    
   231  116  238 1    
   232  116  239 1    
   233  117  118 2    
   234  117  119 am   BACKBONE|DICT|INTERRES
   235  119  120 1    
   236  119  240 1    
   237  120  121 1    
   238  120  124 1    
   239  120  241 1    
   240  121  122 am   BACKBONE|DICT|INTERRES
   241  121  123 2    
   242  122  242 1    
   243  122  243 1    
   244  124  125 1    
   245  124  244 1    
   246  124  245 1    
   247  125  126 1    
   248  126  246 1    
   249  126  247 1    
@<TRIPOS>SUBSTRUCTURE
     1 UNK         1 GROUP             0       ****    0 ROOT    
