@<TRIPOS>MOLECULE
3R540
247   249    1
SMALL
USER_CHARGES


@<TRIPOS>ATOM
      1 CA          5.5527  -10.9024  -47.5781 C.3       0 UNK        -0.1800 
      2 C           4.4549  -11.9211  -47.3116 C.2       0 UNK         0.5000 
      3 O           4.3610  -12.4444  -46.2006 O.2       0 UNK        -0.5000 
      4 N           3.6090  -12.1943  -48.3155 N.am      1 UNK        -0.5000 
      5 CA          2.5099  -13.1675  -48.2453 C.3       1 UNK         0.1400 
      6 C6          1.8585  -13.4040  -49.6293 C.3       23 UNK        -0.0398 
      7 S7          0.9607  -14.9920  -49.7176 S.3       23 UNK        -0.2404 
      8 C8         -0.7582  -14.3995  -49.7998 C.3       23 UNK        -0.0205 
      9 C9         -1.7604  -15.5373  -49.6751 C.ar      23 UNK        -0.0193 
     10 C10        -1.8493  -16.5124  -50.6729 C.ar      23 UNK        -0.1150 
     11 C11        -2.7813  -17.5486  -50.5711 C.ar      23 UNK        -0.0193 
     12 C12        -3.6394  -17.5986  -49.4698 C.ar      23 UNK        -0.1150 
     13 C13        -3.5663  -16.6264  -48.4697 C.ar      23 UNK        -0.0193 
     14 C14        -2.6203  -15.6021  -48.5745 C.ar      23 UNK        -0.1150 
     15 C15        -4.5209  -16.6614  -47.2871 C.3       23 UNK        -0.0205 
     16 S16        -3.7524  -17.4287  -45.8293 S.3       23 UNK        -0.2404 
     17 C17        -4.1926  -19.1897  -46.0142 C.3       23 UNK        -0.0398 
     18 CA         -3.1299  -20.0450  -46.7490 C.3       11 UNK         0.1400 
     19 N          -1.7615  -19.7919  -46.2905 N.am      11 UNK        -0.5000 
     20 C          -0.6622  -20.2442  -46.9087 C.2       10 UNK         0.5000 
     21 O          -0.6879  -20.9105  -47.9428 O.2       10 UNK        -0.5000 
     22 CA          0.6922  -19.9463  -46.2381 C.3       10 UNK         0.1400 
     23 CB          1.2909  -18.6468  -46.7964 C.3       10 UNK        -0.1800 
     24 N           0.6517  -19.8865  -44.7718 N.am      10 UNK        -0.5000 
     25 C           0.2155  -20.8712  -43.9687 C.2       9 UNK         0.5000 
     26 O          -0.2979  -21.9115  -44.3857 O.2       9 UNK        -0.5000 
     27 CA          0.4006  -20.6519  -42.4523 C.3       9 UNK         0.1400 
     28 CB          0.1273  -21.9187  -41.6159 C.3       9 UNK        -0.1800 
     29 N           1.7153  -20.0874  -42.1368 N.am      9 UNK        -0.5000 
     30 C           2.9189  -20.6181  -42.4063 C.2       8 UNK         0.5000 
     31 O           3.0861  -21.7479  -42.8671 O.2       8 UNK        -0.5000 
     32 CA          4.1491  -19.7306  -42.1416 C.3       8 UNK         0.1400 
     33 CB          4.8827  -19.4215  -43.4582 C.3       8 UNK        -0.1800 
     34 N           3.7836  -18.4623  -41.5047 N.am      8 UNK        -0.5000 
     35 C           4.1277  -18.1051  -40.2618 C.2       7 UNK         0.5000 
     36 O           4.7972  -18.8092  -39.5048 O.2       7 UNK        -0.5000 
     37 CA          3.6525  -16.7248  -39.7762 C.3       7 UNK         0.1400 
     38 CB          4.6715  -15.6411  -40.1619 C.3       7 UNK        -0.1800 
     39 N           2.3283  -16.3374  -40.2679 N.am      7 UNK        -0.5000 
     40 C           1.1755  -16.8838  -39.8552 C.2       6 UNK         0.5000 
     41 O           1.1123  -17.8754  -39.1288 O.2       6 UNK        -0.5000 
     42 CA         -0.1242  -16.2027  -40.3138 C.3       6 UNK         0.1400 
     43 CB         -0.3595  -14.9069  -39.5214 C.3       6 UNK        -0.1800 
     44 N          -0.0838  -15.8871  -41.7384 N.am      6 UNK        -0.5000 
     45 C          -0.7397  -16.5646  -42.6899 C.2       5 UNK         0.5000 
     46 O          -1.4902  -17.5150  -42.4686 O.2       5 UNK        -0.5000 
     47 CA         -0.4870  -16.1306  -44.1472 C.3       5 UNK         0.1400 
     48 CB         -1.4480  -14.9959  -44.5334 C.3       5 UNK        -0.1800 
     49 N           0.8839  -15.6890  -44.4094 N.am      5 UNK        -0.5000 
     50 C           2.0067  -16.3513  -44.1013 C.2       4 UNK         0.5000 
     51 O           2.0222  -17.4905  -43.6350 O.2       4 UNK        -0.5000 
     52 CA          3.3358  -15.5968  -44.2830 C.3       4 UNK         0.1400 
     53 CB          3.9391  -15.9113  -45.6578 C.3       4 UNK        -0.1800 
     54 N           3.2255  -14.1436  -44.1058 N.am      4 UNK        -0.5000 
     55 C           2.7883  -13.5259  -42.9958 C.2       3 UNK         0.5000 
     56 O           2.3732  -14.1194  -41.9992 O.2       3 UNK        -0.5000 
     57 CA          2.7718  -11.9905  -43.0188 C.3       3 UNK         0.1400 
     58 CB          4.1899  -11.4200  -42.8630 C.3       3 UNK        -0.1800 
     59 N           2.1714  -11.5036  -44.2585 N.am      3 UNK        -0.5000 
     60 C           0.8522  -11.3499  -44.4431 C.2       2 UNK         0.5000 
     61 O           0.0162  -11.4936  -43.5508 O.2       2 UNK        -0.5000 
     62 CA          0.3779  -10.9948  -45.8674 C.3       2 UNK         0.1400 
     63 CB          0.2489   -9.4726  -46.0284 C.3       2 UNK        -0.1800 
     64 N           1.2512  -11.5147  -46.9221 N.am      2 UNK        -0.5000 
     65 C           1.4637  -12.8168  -47.1626 C.2       1 UNK         0.5000 
     66 O           0.9167  -13.7190  -46.5305 O.2       1 UNK        -0.5000 
     67 C          -3.4915  -21.5391  -46.6350 C.2       11 UNK         0.5000 
     68 O          -4.0594  -22.1051  -47.5696 O.2       11 UNK        -0.5000 
     69 N          -3.1316  -22.1521  -45.4977 N.am      12 UNK        -0.5000 
     70 CA         -3.3492  -23.5681  -45.2029 C.3       12 UNK         0.1400 
     71 CB         -3.1676  -23.8173  -43.6986 C.3       12 UNK        -0.1800 
     72 C          -2.4197  -24.4746  -46.0245 C.2       12 UNK         0.5000 
     73 O          -2.8592  -25.5269  -46.4877 O.2       12 UNK        -0.5000 
     74 N          -1.1758  -24.0244  -46.2464 N.am      13 UNK        -0.5000 
     75 CA         -0.2026  -24.6655  -47.1365 C.3       13 UNK         0.1400 
     76 CB          1.1498  -23.9486  -47.0167 C.3       13 UNK        -0.1800 
     77 C          -0.6747  -24.7031  -48.6051 C.2       13 UNK         0.5000 
     78 O          -0.3871  -25.6671  -49.3142 O.2       13 UNK        -0.5000 
     79 N          -1.4438  -23.6836  -49.0095 N.am      14 UNK        -0.5000 
     80 CA         -2.1425  -23.5872  -50.2904 C.3       14 UNK         0.1400 
     81 CB         -2.2393  -22.1053  -50.6848 C.3       14 UNK        -0.1800 
     82 C          -3.5345  -24.2581  -50.2731 C.2       14 UNK         0.5000 
     83 O          -4.3585  -23.9481  -51.1344 O.2       14 UNK        -0.5000 
     84 N          -3.7881  -25.1525  -49.3056 N.am      15 UNK        -0.5000 
     85 CA         -4.9997  -25.9629  -49.1403 C.3       15 UNK         0.1400 
     86 CB         -5.1443  -26.9612  -50.3093 C.3       15 UNK        -0.1800 
     87 C          -6.2665  -25.1145  -48.9093 C.2       15 UNK         0.5000 
     88 O          -7.3097  -25.3908  -49.5004 O.2       15 UNK        -0.5000 
     89 N          -6.1379  -24.0772  -48.0697 N.am      16 UNK        -0.5000 
     90 CA         -7.1380  -23.0398  -47.7879 C.3       16 UNK         0.1400 
     91 CB         -8.4131  -23.6305  -47.1495 C.3       16 UNK        -0.1800 
     92 C          -7.4104  -22.1717  -49.0333 C.2       16 UNK         0.5000 
     93 O          -8.5638  -21.8824  -49.3548 O.2       16 UNK        -0.5000 
     94 N          -6.3173  -21.7953  -49.7148 N.am      17 UNK        -0.5000 
     95 CA         -6.2511  -21.0089  -50.9535 C.3       17 UNK         0.1400 
     96 CB         -6.8455  -19.6012  -50.7351 C.3       17 UNK        -0.1800 
     97 C          -6.8580  -21.7102  -52.1910 C.2       17 UNK         0.5000 
     98 O          -7.1395  -21.0419  -53.1870 O.2       17 UNK        -0.5000 
     99 N          -7.0488  -23.0344  -52.1227 N.am      18 UNK        -0.5000 
    100 CA        -7.6110  -23.8470  -53.2013 C.3       18 UNK         0.1400 
    101 CB        -8.2894  -25.0859  -52.5992 C.3       18 UNK        -0.1800 
    102 C         -6.5628  -24.2712  -54.2457 C.2       18 UNK         0.5000 
    103 O         -6.9432  -24.5860  -55.3748 O.2       18 UNK        -0.5000 
    104 N         -5.2777  -24.3010  -53.8627 N.am      19 UNK        -0.5000 
    105 CA        -4.1628  -24.6736  -54.7336 C.3       19 UNK         0.1400 
    106 CB        -2.8801  -24.7953  -53.8972 C.3       19 UNK        -0.1800 
    107 C         -3.9531  -23.6662  -55.8778 C.2       19 UNK         0.5000 
    108 O         -4.0737  -22.4577  -55.6644 O.2       19 UNK        -0.5000 
    109 N         -3.5784  -24.1829  -57.0559 N.am      20 UNK        -0.5000 
    110 CA        -3.3404  -23.4194  -58.2876 C.3       20 UNK         0.1400 
    111 CB        -3.1274  -24.4061  -59.4465 C.3       20 UNK        -0.1800 
    112 C         -2.1680  -22.4191  -58.2077 C.2       20 UNK         0.5000 
    113 O         -2.0841  -21.5168  -59.0413 O.2       20 UNK        -0.5000 
    114 N         -1.2946  -22.5857  -57.2053 N.am      21 UNK        -0.5000 
    115 CA        -0.2233  -21.6530  -56.8586 C.3       21 UNK         0.1400 
    116 CB         0.7239  -22.3394  -55.8620 C.3       21 UNK        -0.1800 
    117 C         -0.7403  -20.3201  -56.2773 C.2       21 UNK         0.5000 
    118 O         -0.0259  -19.3194  -56.3527 O.2       21 UNK        -0.5000 
    119 N         -1.9521  -20.3236  -55.7037 N.am      22 UNK        -0.5000 
    120 CA        -2.6283  -19.1287  -55.1869 C.3       22 UNK         0.1400 
    121 C         -3.2052  -18.2510  -56.3329 C.2       22 UNK         0.5000 
    122 N         -3.0545  -16.9329  -56.2551 N.am      22 UNK        -0.7600 
    123 O         -3.8171  -18.7520  -57.2761 O.2       22 UNK        -0.5000 
    124 C124       -3.7152  -19.5121  -54.1496 C.3       23 UNK        -0.0398 
    125 S125       -4.0218  -18.1637  -52.9604 S.3       23 UNK        -0.2404 
    126 C126       -2.8541  -18.6181  -51.6455 C.3       23 UNK        -0.0205 
    127 H127        5.4620  -10.0652  -46.8861 H         1 UNK         0.0600 
    128 H128        6.5307  -11.3611  -47.4335 H         1 UNK         0.0600 
    129 H129        5.5058  -10.5117  -48.5947 H         1 UNK         0.0600 
    130 H130        3.7320  -11.7270  -49.2028 H         1 UNK         0.3000 
    131 H131        2.9745  -14.1059  -47.9437 H         1 UNK         0.0600 
    132 H132        2.6321  -13.4459  -50.3973 H         1 UNK         0.0800 
    133 H133        1.2081  -12.5736  -49.9100 H         1 UNK         0.0800 
    134 H134       -0.9179  -13.8817  -50.7466 H         1 UNK         0.0800 
    135 H135       -0.9215  -13.6638  -49.0106 H         1 UNK         0.0800 
    136 H136       -1.1882  -16.4652  -51.5270 H         1 UNK         0.1150 
    137 H137       -4.3645  -18.3944  -49.3930 H         1 UNK         0.1150 
    138 H138       -2.5626  -14.8493  -47.8010 H         1 UNK         0.1150 
    139 H139       -5.4471  -17.1751  -47.5485 H         1 UNK         0.0800 
    140 H140       -4.8081  -15.6411  -47.0288 H         1 UNK         0.0800 
    141 H141       -4.3536  -19.5690  -45.0032 H         1 UNK         0.0800 
    142 H142       -5.1576  -19.2718  -46.5172 H         1 UNK         0.0800 
    143 H143       -3.1652  -19.7881  -47.8084 H         1 UNK         0.0600 
    144 H144       -1.6591  -19.2426  -45.4505 H         1 UNK         0.3000 
    145 H145        1.3681  -20.7618  -46.4997 H         1 UNK         0.0600 
    146 H146        2.2884  -18.4687  -46.3957 H         1 UNK         0.0600 
    147 H147        1.3838  -18.6955  -47.8822 H         1 UNK         0.0600 
    148 H148        0.6713  -17.7807  -46.5647 H         1 UNK         0.0600 
    149 H149        1.0904  -19.0778  -44.3414 H         1 UNK         0.3000 
    150 H150       -0.3342  -19.9025  -42.1584 H         1 UNK         0.0600 
    151 H151       -0.9050  -22.2482  -41.7360 H         1 UNK         0.0600 
    152 H152        0.2848  -21.7309  -40.5538 H         1 UNK         0.0600 
    153 H153        0.7711  -22.7481  -41.9099 H         1 UNK         0.0600 
    154 H154        1.7051  -19.1466  -41.7715 H         1 UNK         0.3000 
    155 H155        4.8244  -20.3047  -41.5044 H         1 UNK         0.0600 
    156 H156        5.2437  -20.3368  -43.9286 H         1 UNK         0.0600 
    157 H157        5.7486  -18.7817  -43.2875 H         1 UNK         0.0600 
    158 H158        4.2319  -18.9220  -44.1759 H         1 UNK         0.0600 
    159 H159        3.2117  -17.8388  -42.0633 H         1 UNK         0.3000 
    160 H160        3.6035  -16.7625  -38.6857 H         1 UNK         0.0600 
    161 H161        4.7685  -15.5440  -41.2433 H         1 UNK         0.0600 
    162 H162        4.3824  -14.6682  -39.7641 H         1 UNK         0.0600 
    163 H163        5.6599  -15.8743  -39.7638 H         1 UNK         0.0600 
    164 H164        2.2992  -15.5155  -40.8680 H         1 UNK         0.3000 
    165 H165       -0.9509  -16.8820  -40.0953 H         1 UNK         0.0600 
    166 H166       -1.3121  -14.4507  -39.7910 H         1 UNK         0.0600 
    167 H167       -0.3851  -15.1033  -38.4487 H         1 UNK         0.0600 
    168 H168        0.4255  -14.1716  -39.7036 H         1 UNK         0.0600 
    169 H169        0.5509  -15.1487  -42.0193 H         1 UNK         0.3000 
    170 H170       -0.6918  -16.9907  -44.7860 H         1 UNK         0.0600 
    171 H171       -2.4784  -15.2414  -44.2751 H         1 UNK         0.0600 
    172 H172       -1.1972  -14.0660  -44.0217 H         1 UNK         0.0600 
    173 H173       -1.4191  -14.8065  -45.6062 H         1 UNK         0.0600 
    174 H174        0.9765  -14.7970  -44.8863 H         1 UNK         0.3000 
    175 H175        4.0270  -15.9603  -43.5210 H         1 UNK         0.0600 
    176 H176        3.2229  -15.7284  -46.4574 H         1 UNK         0.0600 
    177 H177        4.8304  -15.3147  -45.8528 H         1 UNK         0.0600 
    178 H178        4.2299  -16.9601  -45.7215 H         1 UNK         0.0600 
    179 H179        3.5609  -13.5699  -44.8750 H         1 UNK         0.3000 
    180 H180        2.1809  -11.6469  -42.1669 H         1 UNK         0.0600 
    181 H181        4.6427  -11.7570  -41.9296 H         1 UNK         0.0600 
    182 H182        4.8484  -11.7284  -43.6751 H         1 UNK         0.0600 
    183 H183        4.1742  -10.3303  -42.8415 H         1 UNK         0.0600 
    184 H184        2.7893  -11.4207  -45.0553 H         1 UNK         0.3000 
    185 H185       -0.6104  -11.4392  -46.0033 H         1 UNK         0.0600 
    186 H186       -0.4172   -9.0551  -45.2721 H         1 UNK         0.0600 
    187 H187        1.2138   -8.9740  -45.9274 H         1 UNK         0.0600 
    188 H188       -0.1647   -9.2121  -47.0028 H         1 UNK         0.0600 
    189 H189        1.7559  -10.8346  -47.4716 H         1 UNK         0.3000 
    190 H190       -2.5853  -21.6369  -44.8215 H         1 UNK         0.3000 
    191 H191       -4.3797  -23.8172  -45.4650 H         1 UNK         0.0600 
    192 H192       -3.3867  -24.8561  -43.4483 H         1 UNK         0.0600 
    193 H193       -3.8395  -23.1925  -43.1101 H         1 UNK         0.0600 
    194 H194       -2.1472  -23.6125  -43.3748 H         1 UNK         0.0600 
    195 H195       -0.8794  -23.1753  -45.7732 H         1 UNK         0.3000 
    196 H196       -0.0749  -25.6962  -46.7999 H         1 UNK         0.0600 
    197 H197        1.9189  -24.4740  -47.5840 H         1 UNK         0.0600 
    198 H198        1.4839  -23.8995  -45.9800 H         1 UNK         0.0600 
    199 H199        1.0990  -22.9311  -47.4026 H         1 UNK         0.0600 
    200 H200       -1.5845  -22.9096  -48.3717 H         1 UNK         0.3000 
    201 H201       -1.5553  -24.0982  -51.0555 H         1 UNK         0.0600 
    202 H202       -1.2528  -21.6433  -50.7273 H         1 UNK         0.0600 
    203 H203       -2.8384  -21.5444  -49.9672 H         1 UNK         0.0600 
    204 H204       -2.6947  -21.9841  -51.6682 H         1 UNK         0.0600 
    205 H205       -3.0785  -25.3031  -48.5991 H         1 UNK         0.3000 
    206 H206       -4.8569  -26.5450  -48.2289 H         1 UNK         0.0600 
    207 H207       -4.2463  -27.5687  -50.4204 H         1 UNK         0.0600 
    208 H208       -5.9777  -27.6440  -50.1406 H         1 UNK         0.0600 
    209 H209       -5.3240  -26.4551  -51.2582 H         1 UNK         0.0600 
    210 H210       -5.2131  -23.8793  -47.7074 H         1 UNK         0.3000 
    211 H211       -6.6904  -22.3753  -47.0479 H         1 UNK         0.0600 
    212 H212       -8.9788  -24.2434  -47.8514 H         1 UNK         0.0600 
    213 H213       -9.0772  -22.8363  -46.8069 H         1 UNK         0.0600 
    214 H214       -8.1711  -24.2469  -46.2838 H         1 UNK         0.0600 
    215 H215       -5.4245  -22.1017  -49.3472 H         1 UNK         0.3000 
    216 H216       -5.1897  -20.8904  -51.1713 H         1 UNK         0.0600 
    217 H217       -6.4677  -19.1437  -49.8221 H         1 UNK         0.0600 
    218 H218       -6.5940  -18.9369  -51.5619 H         1 UNK         0.0600 
    219 H219       -7.9331  -19.6295  -50.6645 H         1 UNK         0.0600 
    220 H220       -6.7493  -23.5233  -51.2896 H         1 UNK         0.3000 
    221 H221       -8.3776  -23.2659  -53.7183 H         1 UNK         0.0600 
    222 H222       -7.5646  -25.7535  -52.1330 H         1 UNK         0.0600 
    223 H223       -9.0253  -24.8080  -51.8441 H         1 UNK         0.0600 
    224 H224       -8.8106  -25.6571  -53.3682 H         1 UNK         0.0600 
    225 H225       -5.0421  -24.0363  -52.9099 H         1 UNK         0.3000 
    226 H226       -4.3890  -25.6521  -55.1622 H         1 UNK         0.0600 
    227 H227       -2.9959  -25.5336  -53.1035 H         1 UNK         0.0600 
    228 H228       -2.0373  -25.1123  -54.5125 H         1 UNK         0.0600 
    229 H229       -2.6112  -23.8436  -53.4376 H         1 UNK         0.0600 
    230 H230       -3.4816  -25.1852  -57.1355 H         1 UNK         0.3000 
    231 H231       -4.2415  -22.8382  -58.4942 H         1 UNK         0.0600 
    232 H232       -2.2503  -25.0337  -59.2836 H         1 UNK         0.0600 
    233 H233       -3.9908  -25.0596  -59.5732 H         1 UNK         0.0600 
    234 H234       -2.9821  -23.8778  -60.3897 H         1 UNK         0.0600 
    235 H235       -1.4337  -23.3672  -56.5830 H         1 UNK         0.3000 
    236 H236        0.3386  -21.4231  -57.7661 H         1 UNK         0.0600 
    237 H237        0.2105  -22.6067  -54.9375 H         1 UNK         0.0600 
    238 H238        1.1510  -23.2488  -56.2851 H         1 UNK         0.0600 
    239 H239        1.5549  -21.6839  -55.5983 H         1 UNK         0.0600 
    240 H240       -2.5165  -21.1659  -55.7404 H         1 UNK         0.3000 
    241 H241       -1.8649  -18.5448  -54.6680 H         1 UNK         0.0600 
    242 H242       -3.4356  -16.3519  -56.9856 H         1 UNK         0.3800 
    243 H243       -2.5791  -16.4994  -55.4761 H         1 UNK         0.3800 
    244 H244       -3.4140  -20.3982  -53.5888 H         1 UNK         0.0800 
    245 H245       -4.6536  -19.7851  -54.6366 H         1 UNK         0.0800 
    246 H246       -1.8636  -18.7888  -52.0705 H         1 UNK         0.0800 
    247 H247       -3.1692  -19.5602  -51.2018 H         1 UNK         0.0800 
@<TRIPOS>BOND
     1    1    2 1    
     2    1  127 1    
     3    1  128 1    
     4    1  129 1    
     5    2    3 2    
     6    2    4 am   BACKBONE|DICT|INTERRES
     7    4    5 1    
     8    4  130 1    
     9    5    6 1    
    10    5   65 1    
    11    5  131 1    
    12    6    7 1    
    13    6  132 1    
    14    6  133 1    
    15    7    8 1    
    16    8    9 1    
    17    8  134 1    
    18    8  135 1    
    19    9   10 ar   
    20    9   14 ar   
    21   10   11 ar   
    22   10  136 1    
    23   11   12 ar   
    24   11  126 1    
    25   12   13 ar   
    26   12  137 1    
    27   13   14 ar   
    28   13   15 1    
    29   14  138 1    
    30   15   16 1    
    31   15  139 1    
    32   15  140 1    
    33   16   17 1    
    34   17   18 1    
    35   17  141 1    
    36   17  142 1    
    37   18   19 1    
    38   18   67 1    
    39   18  143 1    
    40   19   20 am   BACKBONE|DICT|INTERRES
    41   19  144 1    
    42   20   21 2    
    43   20   22 1    
    44   22   23 1    
    45   22   24 1    
    46   22  145 1    
    47   23  146 1    
    48   23  147 1    
    49   23  148 1    
    50   24   25 am   BACKBONE|DICT|INTERRES
    51   24  149 1    
    52   25   26 2    
    53   25   27 1    
    54   27   28 1    
    55   27   29 1    
    56   27  150 1    
    57   28  151 1    
    58   28  152 1    
    59   28  153 1    
    60   29   30 am   BACKBONE|DICT|INTERRES
    61   29  154 1    
    62   30   31 2    
    63   30   32 1    
    64   32   33 1    
    65   32   34 1    
    66   32  155 1    
    67   33  156 1    
    68   33  157 1    
    69   33  158 1    
    70   34   35 am   BACKBONE|DICT|INTERRES
    71   34  159 1    
    72   35   36 2    
    73   35   37 1    
    74   37   38 1    
    75   37   39 1    
    76   37  160 1    
    77   38  161 1    
    78   38  162 1    
    79   38  163 1    
    80   39   40 am   BACKBONE|DICT|INTERRES
    81   39  164 1    
    82   40   41 2    
    83   40   42 1    
    84   42   43 1    
    85   42   44 1    
    86   42  165 1    
    87   43  166 1    
    88   43  167 1    
    89   43  168 1    
    90   44   45 am   BACKBONE|DICT|INTERRES
    91   44  169 1    
    92   45   46 2    
    93   45   47 1    
    94   47   48 1    
    95   47   49 1    
    96   47  170 1    
    97   48  171 1    
    98   48  172 1    
    99   48  173 1    
   100   49   50 am   BACKBONE|DICT|INTERRES
   101   49  174 1    
   102   50   51 2    
   103   50   52 1    
   104   52   53 1    
   105   52   54 1    
   106   52  175 1    
   107   53  176 1    
   108   53  177 1    
   109   53  178 1    
   110   54   55 am   BACKBONE|DICT|INTERRES
   111   54  179 1    
   112   55   56 2    
   113   55   57 1    
   114   57   58 1    
   115   57   59 1    
   116   57  180 1    
   117   58  181 1    
   118   58  182 1    
   119   58  183 1    
   120   59   60 am   BACKBONE|DICT|INTERRES
   121   59  184 1    
   122   60   61 2    
   123   60   62 1    
   124   62   63 1    
   125   62   64 1    
   126   62  185 1    
   127   63  186 1    
   128   63  187 1    
   129   63  188 1    
   130   64   65 am   BACKBONE|DICT|INTERRES
   131   64  189 1    
   132   65   66 2    
   133   67   68 2    
   134   67   69 am   BACKBONE|DICT|INTERRES
   135   69   70 1    
   136   69  190 1    
   137   70   71 1    
   138   70   72 1    
   139   70  191 1    
   140   71  192 1    
   141   71  193 1    
   142   71  194 1    
   143   72   73 2    
   144   72   74 am   BACKBONE|DICT|INTERRES
   145   74   75 1    
   146   74  195 1    
   147   75   76 1    
   148   75   77 1    
   149   75  196 1    
   150   76  197 1    
   151   76  198 1    
   152   76  199 1    
   153   77   78 2    
   154   77   79 am   BACKBONE|DICT|INTERRES
   155   79   80 1    
   156   79  200 1    
   157   80   81 1    
   158   80   82 1    
   159   80  201 1    
   160   81  202 1    
   161   81  203 1    
   162   81  204 1    
   163   82   83 2    
   164   82   84 am   BACKBONE|DICT|INTERRES
   165   84   85 1    
   166   84  205 1    
   167   85   86 1    
   168   85   87 1    
   169   85  206 1    
   170   86  207 1    
   171   86  208 1    
   172   86  209 1    
   173   87   88 2    
   174   87   89 am   BACKBONE|DICT|INTERRES
   175   89   90 1    
   176   89  210 1    
   177   90   91 1    
   178   90   92 1    
   179   90  211 1    
   180   91  212 1    
   181   91  213 1    
   182   91  214 1    
   183   92   93 2    
   184   92   94 am   BACKBONE|DICT|INTERRES
   185   94   95 1    
   186   94  215 1    
   187   95   96 1    
   188   95   97 1    
   189   95  216 1    
   190   96  217 1    
   191   96  218 1    
   192   96  219 1    
   193   97   98 2    
   194   97   99 am   BACKBONE|DICT|INTERRES
   195   99  100 1    
   196   99  220 1    
   197  100  101 1    
   198  100  102 1    
   199  100  221 1    
   200  101  222 1    
   201  101  223 1    
   202  101  224 1    
   203  102  103 2    
   204  102  104 am   BACKBONE|DICT|INTERRES
   205  104  105 1    
   206  104  225 1    
   207  105  106 1    
   208  105  107 1    
   209  105  226 1    
   210  106  227 1    
   211  106  228 1    
   212  106  229 1    
   213  107  108 2    
   214  107  109 am   BACKBONE|DICT|INTERRES
   215  109  110 1    
   216  109  230 1    
   217  110  111 1    
   218  110  112 1    
   219  110  231 1    
   220  111  232 1    
   221  111  233 1    
   222  111  234 1    
   223  112  113 2    
   224  112  114 am   BACKBONE|DICT|INTERRES
   225  114  115 1    
   226  114  235 1    
   227  115  116 1    
   228  115  117 1    
   229  115  236 1    
   230  116  237 1    
   231  116  238 1    
   232  116  239 1    
   233  117  118 2    
   234  117  119 am   BACKBONE|DICT|INTERRES
   235  119  120 1    
   236  119  240 1    
   237  120  121 1    
   238  120  124 1    
   239  120  241 1    
   240  121  122 am   BACKBONE|DICT|INTERRES
   241  121  123 2    
   242  122  242 1    
   243  122  243 1    
   244  124  125 1    
   245  124  244 1    
   246  124  245 1    
   247  125  126 1    
   248  126  246 1    
   249  126  247 1    
@<TRIPOS>SUBSTRUCTURE
     1 UNK         1 GROUP             0       ****    0 ROOT    
