@<TRIPOS>MOLECULE
3R540
247   249    1
SMALL
USER_CHARGES


@<TRIPOS>ATOM
      1 CA         -5.0093  -17.2367  -43.7824 C.3       0 UNK        -0.1800 
      2 C          -5.4921  -16.8256  -45.1667 C.2       0 UNK         0.5000 
      3 O          -6.2362  -15.8544  -45.2974 O.2       0 UNK        -0.5000 
      4 N          -5.0624  -17.5574  -46.2018 N.am      1 UNK        -0.5000 
      5 CA         -5.3737  -17.3060  -47.6150 C.3       1 UNK         0.1400 
      6 C6         -5.2437  -18.5971  -48.4618 C.3       23 UNK        -0.0398 
      7 S7         -3.6257  -19.4433  -48.3387 S.3       23 UNK        -0.2404 
      8 C8         -2.7641  -18.7452  -49.7748 C.3       23 UNK        -0.0205 
      9 C9         -1.4893  -19.5037  -50.1014 C.ar      23 UNK        -0.0193 
     10 C10        -1.4728  -20.4143  -51.1604 C.ar      23 UNK        -0.1150 
     11 C11        -0.3099  -21.1178  -51.4795 C.ar      23 UNK        -0.0193 
     12 C12         0.8521  -20.8905  -50.7385 C.ar      23 UNK        -0.1150 
     13 C13         0.8580  -19.9627  -49.6933 C.ar      23 UNK        -0.0193 
     14 C14        -0.3184  -19.2768  -49.3725 C.ar      23 UNK        -0.1150 
     15 C15         2.1488  -19.6753  -48.9419 C.3       23 UNK        -0.0205 
     16 S16         2.0829  -20.2012  -47.2053 S.3       23 UNK        -0.2404 
     17 C17         1.9572  -22.0151  -47.3318 C.3       23 UNK        -0.0398 
     18 CA          1.0795  -22.6581  -46.2287 C.3       11 UNK         0.1400 
     19 N           1.4642  -22.2291  -44.8813 N.am      11 UNK        -0.5000 
     20 C           1.2007  -22.8817  -43.7413 C.2       10 UNK         0.5000 
     21 O           0.5531  -23.9298  -43.7033 O.2       10 UNK        -0.5000 
     22 CA          1.7070  -22.2364  -42.4316 C.3       10 UNK         0.1400 
     23 CB          2.1499  -23.2849  -41.3909 C.3       10 UNK        -0.1800 
     24 N           2.7469  -21.2169  -42.6311 N.am      10 UNK        -0.5000 
     25 C           3.9862  -21.3849  -43.1199 C.2       9 UNK         0.5000 
     26 O           4.4469  -22.4755  -43.4584 O.2       9 UNK        -0.5000 
     27 CA          4.8553  -20.1221  -43.2821 C.3       9 UNK         0.1400 
     28 CB          5.1926  -19.8750  -44.7612 C.3       9 UNK        -0.1800 
     29 N           4.2074  -18.9249  -42.7401 N.am      9 UNK        -0.5000 
     30 C           4.4014  -18.4604  -41.4991 C.2       8 UNK         0.5000 
     31 O           5.1712  -18.9748  -40.6867 O.2       8 UNK        -0.5000 
     32 CA          3.5858  -17.2227  -41.0866 C.3       8 UNK         0.1400 
     33 CB          4.2061  -15.9438  -41.6697 C.3       8 UNK        -0.1800 
     34 N           2.1741  -17.2947  -41.4668 N.am      8 UNK        -0.5000 
     35 C           1.2902  -18.1825  -40.9886 C.2       7 UNK         0.5000 
     36 O           1.5857  -19.1065  -40.2314 O.2       7 UNK        -0.5000 
     37 CA         -0.1704  -18.0135  -41.4362 C.3       7 UNK         0.1400 
     38 CB         -0.8594  -16.8961  -40.6377 C.3       7 UNK        -0.1800 
     39 N          -0.2559  -17.7079  -42.8601 N.am      7 UNK        -0.5000 
     40 C          -0.2926  -18.6321  -43.8270 C.2       6 UNK         0.5000 
     41 O          -0.3014  -19.8466  -43.6238 O.2       6 UNK        -0.5000 
     42 CA         -0.2994  -18.1084  -45.2728 C.3       6 UNK         0.1400 
     43 CB         -1.7240  -17.7799  -45.7281 C.3       6 UNK        -0.1800 
     44 N           0.5421  -16.9308  -45.4813 N.am      6 UNK        -0.5000 
     45 C           1.8592  -16.8587  -45.2477 C.2       5 UNK         0.5000 
     46 O           2.5370  -17.7745  -44.7825 O.2       5 UNK        -0.5000 
     47 CA          2.5153  -15.4965  -45.5301 C.3       5 UNK         0.1400 
     48 CB          2.8071  -15.3533  -47.0325 C.3       5 UNK        -0.1800 
     49 N           1.7390  -14.3350  -45.0738 N.am      5 UNK        -0.5000 
     50 C           1.2344  -14.1589  -43.8408 C.2       4 UNK         0.5000 
     51 O           1.2452  -15.0185  -42.9590 O.2       4 UNK        -0.5000 
     52 CA          0.5968  -12.7973  -43.5471 C.3       4 UNK         0.1400 
     53 CB          1.6759  -11.7313  -43.2830 C.3       4 UNK        -0.1800 
     54 N          -0.2910  -12.3816  -44.6330 N.am      4 UNK        -0.5000 
     55 C          -1.3092  -11.5259  -44.4829 C.2       3 UNK         0.5000 
     56 O          -1.5718  -10.9586  -43.4211 O.2       3 UNK        -0.5000 
     57 CA         -2.1922  -11.2434  -45.7158 C.3       3 UNK         0.1400 
     58 CB         -1.7656   -9.9256  -46.3820 C.3       3 UNK        -0.1800 
     59 N          -2.2243  -12.2977  -46.7367 N.am      3 UNK        -0.5000 
     60 C          -2.6679  -13.5475  -46.5522 C.2       2 UNK         0.5000 
     61 O          -2.9562  -14.0228  -45.4504 O.2       2 UNK        -0.5000 
     62 CA         -2.8143  -14.4083  -47.8169 C.3       2 UNK         0.1400 
     63 CB         -1.4467  -14.8623  -48.3592 C.3       2 UNK        -0.1800 
     64 N          -3.6213  -15.5736  -47.4777 N.am      2 UNK        -0.5000 
     65 C          -4.5717  -16.1339  -48.2321 C.2       1 UNK         0.5000 
     66 O          -4.8202  -15.7748  -49.3834 O.2       1 UNK        -0.5000 
     67 C          -0.4379  -22.5565  -46.5064 C.2       11 UNK         0.5000 
     68 O          -0.8879  -23.0856  -47.5211 O.2       11 UNK        -0.5000 
     69 N          -1.2206  -21.9977  -45.5664 N.am      12 UNK        -0.5000 
     70 CA         -2.6858  -22.0950  -45.5115 C.3       12 UNK         0.1400 
     71 CB         -3.1993  -21.3605  -44.2628 C.3       12 UNK        -0.1800 
     72 C          -3.2176  -23.5454  -45.5040 C.2       12 UNK         0.5000 
     73 O          -4.3443  -23.7803  -45.9396 O.2       12 UNK        -0.5000 
     74 N          -2.3916  -24.4980  -45.0450 N.am      13 UNK        -0.5000 
     75 CA         -2.6483  -25.9382  -45.1097 C.3       13 UNK         0.1400 
     76 CB         -1.5922  -26.6608  -44.2594 C.3       13 UNK        -0.1800 
     77 C          -2.6652  -26.5085  -46.5464 C.2       13 UNK         0.5000 
     78 O          -3.1774  -27.6106  -46.7459 O.2       13 UNK        -0.5000 
     79 N          -2.1156  -25.7643  -47.5147 N.am      14 UNK        -0.5000 
     80 CA         -2.0573  -26.1069  -48.9323 C.3       14 UNK         0.1400 
     81 CB         -0.6542  -26.6486  -49.2633 C.3       14 UNK        -0.1800 
     82 C          -2.4414  -24.8700  -49.7640 C.2       14 UNK         0.5000 
     83 O          -1.7303  -24.5093  -50.7017 O.2       14 UNK        -0.5000 
     84 N          -3.5602  -24.2324  -49.3844 N.am      15 UNK        -0.5000 
     85 CA         -4.0510  -22.9584  -49.9221 C.3       15 UNK         0.1400 
     86 CB         -5.2790  -22.5163  -49.1107 C.3       15 UNK        -0.1800 
     87 C          -4.3974  -22.9535  -51.4241 C.2       15 UNK         0.5000 
     88 O          -4.4927  -21.8707  -52.0036 O.2       15 UNK        -0.5000 
     89 N          -4.6113  -24.1394  -52.0156 N.am      16 UNK        -0.5000 
     90 CA         -4.8631  -24.3822  -53.4424 C.3       16 UNK         0.1400 
     91 CB         -3.5760  -24.1310  -54.2551 C.3       16 UNK        -0.1800 
     92 C          -6.0846  -23.6059  -53.9814 C.2       16 UNK         0.5000 
     93 O          -6.0000  -22.9551  -55.0238 O.2       16 UNK        -0.5000 
     94 N          -7.1923  -23.6773  -53.2264 N.am      17 UNK        -0.5000 
     95 CA         -8.4559  -22.9584  -53.4402 C.3       17 UNK         0.1400 
     96 CB         -9.1362  -23.3961  -54.7551 C.3       17 UNK        -0.1800 
     97 C          -8.2969  -21.4269  -53.3117 C.2       17 UNK         0.5000 
     98 O          -8.9137  -20.6723  -54.0655 O.2       17 UNK        -0.5000 
     99 N          -7.4715  -21.0138  -52.3381 N.am      18 UNK        -0.5000 
    100 CA        -7.0916  -19.6404  -51.9992 C.3       18 UNK         0.1400 
    101 CB        -8.3009  -18.8333  -51.4841 C.3       18 UNK        -0.1800 
    102 C         -6.3332  -18.9497  -53.1488 C.2       18 UNK         0.5000 
    103 O         -6.7683  -17.9179  -53.6623 O.2       18 UNK        -0.5000 
    104 N         -5.1980  -19.5497  -53.5277 N.am      19 UNK        -0.5000 
    105 CA        -4.3221  -19.1013  -54.6144 C.3       19 UNK         0.1400 
    106 CB        -3.3827  -20.2547  -54.9855 C.3       19 UNK        -0.1800 
    107 C         -3.5253  -17.8118  -54.3148 C.2       19 UNK         0.5000 
    108 O         -2.9563  -17.2370  -55.2430 O.2       19 UNK        -0.5000 
    109 N         -3.5234  -17.3756  -53.0459 N.am      20 UNK        -0.5000 
    110 CA        -2.9653  -16.1240  -52.5236 C.3       20 UNK         0.1400 
    111 CB        -3.7462  -14.9131  -53.0752 C.3       20 UNK        -0.1800 
    112 C         -1.4414  -15.9996  -52.7283 C.2       20 UNK         0.5000 
    113 O         -0.9904  -15.2046  -53.5543 O.2       20 UNK        -0.5000 
    114 N         -0.6902  -16.7783  -51.9353 N.am      21 UNK        -0.5000 
    115 CA         0.7731  -16.8059  -51.8348 C.3       21 UNK         0.1400 
    116 CB         1.3366  -15.4399  -51.3883 C.3       21 UNK        -0.1800 
    117 C          1.4345  -17.3520  -53.1126 C.2       21 UNK         0.5000 
    118 O          1.9628  -16.5857  -53.9208 O.2       21 UNK        -0.5000 
    119 N          1.3777  -18.6812  -53.2633 N.am      22 UNK        -0.5000 
    120 CA         2.0241  -19.4521  -54.3376 C.3       22 UNK         0.1400 
    121 C          3.5625  -19.2311  -54.4141 C.2       22 UNK         0.5000 
    122 N          4.1247  -19.1378  -55.6115 N.am      22 UNK        -0.7600 
    123 O          4.2543  -19.1930  -53.3987 O.2       22 UNK        -0.5000 
    124 C124        1.7294  -20.9690  -54.2098 C.3       23 UNK        -0.0398 
    125 S125       -0.0515  -21.3620  -54.2414 S.3       23 UNK        -0.2404 
    126 C126       -0.3195  -22.1328  -52.6126 C.3       23 UNK        -0.0205 
    127 H127       -4.4088  -18.1461  -43.8143 H         1 UNK         0.0600 
    128 H128       -4.4007  -16.4432  -43.3484 H         1 UNK         0.0600 
    129 H129       -5.8600  -17.4149  -43.1248 H         1 UNK         0.0600 
    130 H130       -4.4644  -18.3543  -46.0378 H         1 UNK         0.3000 
    131 H131       -6.4208  -17.0006  -47.6693 H         1 UNK         0.0600 
    132 H132       -5.4805  -18.3953  -49.5064 H         1 UNK         0.0800 
    133 H133       -6.0010  -19.3099  -48.1326 H         1 UNK         0.0800 
    134 H134       -3.4363  -18.7652  -50.6318 H         1 UNK         0.0800 
    135 H135       -2.5280  -17.7003  -49.5775 H         1 UNK         0.0800 
    136 H136       -2.3682  -20.5824  -51.7382 H         1 UNK         0.1150 
    137 H137        1.7558  -21.4319  -50.9794 H         1 UNK         0.1150 
    138 H138       -0.3178  -18.5629  -48.5609 H         1 UNK         0.1150 
    139 H139        3.0011  -20.1536  -49.4271 H         1 UNK         0.0800 
    140 H140        2.3440  -18.6025  -48.9719 H         1 UNK         0.0800 
    141 H141        1.6031  -22.3038  -48.3224 H         1 UNK         0.0800 
    142 H142        2.9703  -22.4125  -47.2588 H         1 UNK         0.0800 
    143 H143        1.2882  -23.7293  -46.2746 H         1 UNK         0.0600 
    144 H144        1.9587  -21.3504  -44.8256 H         1 UNK         0.3000 
    145 H145        0.8510  -21.7071  -42.0113 H         1 UNK         0.0600 
    146 H146        2.4934  -22.8076  -40.4731 H         1 UNK         0.0600 
    147 H147        1.3225  -23.9427  -41.1224 H         1 UNK         0.0600 
    148 H148        2.9567  -23.9149  -41.7658 H         1 UNK         0.0600 
    149 H149        2.4803  -20.2765  -42.3753 H         1 UNK         0.3000 
    150 H150        5.7939  -20.3086  -42.7564 H         1 UNK         0.0600 
    151 H151        5.7173  -20.7277  -45.1938 H         1 UNK         0.0600 
    152 H152        5.8372  -19.0038  -44.8777 H         1 UNK         0.0600 
    153 H153        4.2958  -19.7073  -45.3554 H         1 UNK         0.0600 
    154 H154        3.5622  -18.4421  -43.3631 H         1 UNK         0.3000 
    155 H155        3.6279  -17.1495  -39.9979 H         1 UNK         0.0600 
    156 H156        4.1712  -15.9418  -42.7590 H         1 UNK         0.0600 
    157 H157        5.2513  -15.8455  -41.3737 H         1 UNK         0.0600 
    158 H158        3.6828  -15.0549  -41.3169 H         1 UNK         0.0600 
    159 H159        1.8363  -16.5534  -42.0756 H         1 UNK         0.3000 
    160 H160       -0.6981  -18.9477  -41.2309 H         1 UNK         0.0600 
    161 H161       -1.9102  -16.8070  -40.9141 H         1 UNK         0.0600 
    162 H162       -0.3866  -15.9273  -40.8047 H         1 UNK         0.0600 
    163 H163       -0.8207  -17.1009  -39.5671 H         1 UNK         0.0600 
    164 H164       -0.1724  -16.7340  -43.1202 H         1 UNK         0.3000 
    165 H165        0.0682  -18.9096  -45.9088 H         1 UNK         0.0600 
    166 H166       -1.7405  -17.5097  -46.7827 H         1 UNK         0.0600 
    167 H167       -2.3765  -18.6430  -45.6176 H         1 UNK         0.0600 
    168 H168       -2.1526  -16.9576  -45.1542 H         1 UNK         0.0600 
    169 H169        0.0811  -16.1016  -45.8202 H         1 UNK         0.3000 
    170 H170        3.4679  -15.4780  -44.9984 H         1 UNK         0.0600 
    171 H171        3.3883  -16.2003  -47.4005 H         1 UNK         0.0600 
    172 H172        1.8899  -15.3060  -47.6209 H         1 UNK         0.0600 
    173 H173        3.3849  -14.4522  -47.2388 H         1 UNK         0.0600 
    174 H174        1.7224  -13.5512  -45.7087 H         1 UNK         0.3000 
    175 H175        0.0042  -12.9203  -42.6375 H         1 UNK         0.0600 
    176 H176        2.2653  -11.5236  -44.1767 H         1 UNK         0.0600 
    177 H177        1.2330  -10.7926  -42.9503 H         1 UNK         0.0600 
    178 H178        2.3644  -12.0572  -42.5021 H         1 UNK         0.0600 
    179 H179       -0.1801  -12.8421  -45.5234 H         1 UNK         0.3000 
    180 H180       -3.2134  -11.1199  -45.3493 H         1 UNK         0.0600 
    181 H181       -0.7631   -9.9964  -46.8059 H         1 UNK         0.0600 
    182 H182       -1.7600   -9.1056  -45.6624 H         1 UNK         0.0600 
    183 H183       -2.4511   -9.6463  -47.1822 H         1 UNK         0.0600 
    184 H184       -1.9915  -12.0034  -47.6743 H         1 UNK         0.3000 
    185 H185       -3.3259  -13.8099  -48.5738 H         1 UNK         0.0600 
    186 H186       -0.8328  -14.0076  -48.6447 H         1 UNK         0.0600 
    187 H187       -0.8862  -15.4351  -47.6217 H         1 UNK         0.0600 
    188 H188       -1.5620  -15.4828  -49.2473 H         1 UNK         0.0600 
    189 H189       -3.5526  -15.8539  -46.5085 H         1 UNK         0.3000 
    190 H190       -0.7726  -21.5438  -44.7780 H         1 UNK         0.3000 
    191 H191       -3.0843  -21.6035  -46.3997 H         1 UNK         0.0600 
    192 H192       -2.8064  -21.8061  -43.3479 H         1 UNK         0.0600 
    193 H193       -4.2880  -21.3987  -44.2060 H         1 UNK         0.0600 
    194 H194       -2.9168  -20.3111  -44.2636 H         1 UNK         0.0600 
    195 H195       -1.4873  -24.2204  -44.6827 H         1 UNK         0.3000 
    196 H196       -3.6305  -26.1269  -44.6718 H         1 UNK         0.0600 
    197 H197       -1.7677  -27.7373  -44.2459 H         1 UNK         0.0600 
    198 H198       -1.6135  -26.3155  -43.2255 H         1 UNK         0.0600 
    199 H199       -0.5854  -26.4959  -44.6459 H         1 UNK         0.0600 
    200 H200       -1.7435  -24.8462  -47.2874 H         1 UNK         0.3000 
    201 H201       -2.7909  -26.8805  -49.1675 H         1 UNK         0.0600 
    202 H202       -0.4224  -27.5315  -48.6675 H         1 UNK         0.0600 
    203 H203        0.1173  -25.9019  -49.0708 H         1 UNK         0.0600 
    204 H204       -0.5819  -26.9369  -50.3126 H         1 UNK         0.0600 
    205 H205       -4.0611  -24.5955  -48.5856 H         1 UNK         0.3000 
    206 H206       -3.2603  -22.2204  -49.7752 H         1 UNK         0.0600 
    207 H207       -5.6923  -21.5831  -49.4948 H         1 UNK         0.0600 
    208 H208       -5.0185  -22.3393  -48.0681 H         1 UNK         0.0600 
    209 H209       -6.0726  -23.2637  -49.1385 H         1 UNK         0.0600 
    210 H210       -4.5318  -24.9633  -51.4376 H         1 UNK         0.3000 
    211 H211       -5.1097  -25.4403  -53.5400 H         1 UNK         0.0600 
    212 H212       -3.2606  -23.0897  -54.2010 H         1 UNK         0.0600 
    213 H213       -3.7187  -24.3778  -55.3077 H         1 UNK         0.0600 
    214 H214       -2.7535  -24.7440  -53.8862 H         1 UNK         0.0600 
    215 H215       -7.1496  -24.2420  -52.3895 H         1 UNK         0.3000 
    216 H216       -9.1144  -23.2574  -52.6233 H         1 UNK         0.0600 
    217 H217      -10.1408  -22.9786  -54.8311 H         1 UNK         0.0600 
    218 H218       -9.2323  -24.4806  -54.8076 H         1 UNK         0.0600 
    219 H219       -8.5805  -23.0650  -55.6326 H         1 UNK         0.0600 
    220 H220       -6.9716  -21.7302  -51.8325 H         1 UNK         0.3000 
    221 H221       -6.3836  -19.7250  -51.1751 H         1 UNK         0.0600 
    222 H222       -9.0539  -18.6849  -52.2585 H         1 UNK         0.0600 
    223 H223       -8.7793  -19.3348  -50.6429 H         1 UNK         0.0600 
    224 H224       -7.9897  -17.8464  -51.1394 H         1 UNK         0.0600 
    225 H225       -4.9280  -20.4132  -53.0588 H         1 UNK         0.3000 
    226 H226       -4.9476  -18.8872  -55.4834 H         1 UNK         0.0600 
    227 H227       -3.9419  -21.0965  -55.3930 H         1 UNK         0.0600 
    228 H228       -2.6544  -19.9546  -55.7400 H         1 UNK         0.0600 
    229 H229       -2.8335  -20.6084  -54.1143 H         1 UNK         0.0600 
    230 H230       -4.0404  -17.9339  -52.3852 H         1 UNK         0.3000 
    231 H231       -3.1328  -16.1374  -51.4464 H         1 UNK         0.0600 
    232 H232       -4.8080  -14.9929  -52.8415 H         1 UNK         0.0600 
    233 H233       -3.6475  -14.8194  -54.1570 H         1 UNK         0.0600 
    234 H234       -3.3856  -13.9841  -52.6321 H         1 UNK         0.0600 
    235 H235       -1.1644  -17.4438  -51.3444 H         1 UNK         0.3000 
    236 H236        1.0159  -17.5057  -51.0370 H         1 UNK         0.0600 
    237 H237        2.4142  -15.5007  -51.2319 H         1 UNK         0.0600 
    238 H238        1.1614  -14.6575  -52.1268 H         1 UNK         0.0600 
    239 H239        0.8906  -15.1189  -50.4471 H         1 UNK         0.0600 
    240 H240        0.9023  -19.2334  -52.5639 H         1 UNK         0.3000 
    241 H241        1.5879  -19.1010  -55.2747 H         1 UNK         0.0600 
    242 H242        5.1231  -19.0110  -55.6746 H         1 UNK         0.3800 
    243 H243        3.5784  -19.1745  -56.4586 H         1 UNK         0.3800 
    244 H244        2.1884  -21.5103  -55.0390 H         1 UNK         0.0800 
    245 H245        2.1838  -21.3745  -53.3053 H         1 UNK         0.0800 
    246 H246        0.4252  -22.9113  -52.4402 H         1 UNK         0.0800 
    247 H247       -1.2844  -22.6417  -52.6275 H         1 UNK         0.0800 
@<TRIPOS>BOND
     1    1    2 1    
     2    1  127 1    
     3    1  128 1    
     4    1  129 1    
     5    2    3 2    
     6    2    4 am   BACKBONE|DICT|INTERRES
     7    4    5 1    
     8    4  130 1    
     9    5    6 1    
    10    5   65 1    
    11    5  131 1    
    12    6    7 1    
    13    6  132 1    
    14    6  133 1    
    15    7    8 1    
    16    8    9 1    
    17    8  134 1    
    18    8  135 1    
    19    9   10 ar   
    20    9   14 ar   
    21   10   11 ar   
    22   10  136 1    
    23   11   12 ar   
    24   11  126 1    
    25   12   13 ar   
    26   12  137 1    
    27   13   14 ar   
    28   13   15 1    
    29   14  138 1    
    30   15   16 1    
    31   15  139 1    
    32   15  140 1    
    33   16   17 1    
    34   17   18 1    
    35   17  141 1    
    36   17  142 1    
    37   18   19 1    
    38   18   67 1    
    39   18  143 1    
    40   19   20 am   BACKBONE|DICT|INTERRES
    41   19  144 1    
    42   20   21 2    
    43   20   22 1    
    44   22   23 1    
    45   22   24 1    
    46   22  145 1    
    47   23  146 1    
    48   23  147 1    
    49   23  148 1    
    50   24   25 am   BACKBONE|DICT|INTERRES
    51   24  149 1    
    52   25   26 2    
    53   25   27 1    
    54   27   28 1    
    55   27   29 1    
    56   27  150 1    
    57   28  151 1    
    58   28  152 1    
    59   28  153 1    
    60   29   30 am   BACKBONE|DICT|INTERRES
    61   29  154 1    
    62   30   31 2    
    63   30   32 1    
    64   32   33 1    
    65   32   34 1    
    66   32  155 1    
    67   33  156 1    
    68   33  157 1    
    69   33  158 1    
    70   34   35 am   BACKBONE|DICT|INTERRES
    71   34  159 1    
    72   35   36 2    
    73   35   37 1    
    74   37   38 1    
    75   37   39 1    
    76   37  160 1    
    77   38  161 1    
    78   38  162 1    
    79   38  163 1    
    80   39   40 am   BACKBONE|DICT|INTERRES
    81   39  164 1    
    82   40   41 2    
    83   40   42 1    
    84   42   43 1    
    85   42   44 1    
    86   42  165 1    
    87   43  166 1    
    88   43  167 1    
    89   43  168 1    
    90   44   45 am   BACKBONE|DICT|INTERRES
    91   44  169 1    
    92   45   46 2    
    93   45   47 1    
    94   47   48 1    
    95   47   49 1    
    96   47  170 1    
    97   48  171 1    
    98   48  172 1    
    99   48  173 1    
   100   49   50 am   BACKBONE|DICT|INTERRES
   101   49  174 1    
   102   50   51 2    
   103   50   52 1    
   104   52   53 1    
   105   52   54 1    
   106   52  175 1    
   107   53  176 1    
   108   53  177 1    
   109   53  178 1    
   110   54   55 am   BACKBONE|DICT|INTERRES
   111   54  179 1    
   112   55   56 2    
   113   55   57 1    
   114   57   58 1    
   115   57   59 1    
   116   57  180 1    
   117   58  181 1    
   118   58  182 1    
   119   58  183 1    
   120   59   60 am   BACKBONE|DICT|INTERRES
   121   59  184 1    
   122   60   61 2    
   123   60   62 1    
   124   62   63 1    
   125   62   64 1    
   126   62  185 1    
   127   63  186 1    
   128   63  187 1    
   129   63  188 1    
   130   64   65 am   BACKBONE|DICT|INTERRES
   131   64  189 1    
   132   65   66 2    
   133   67   68 2    
   134   67   69 am   BACKBONE|DICT|INTERRES
   135   69   70 1    
   136   69  190 1    
   137   70   71 1    
   138   70   72 1    
   139   70  191 1    
   140   71  192 1    
   141   71  193 1    
   142   71  194 1    
   143   72   73 2    
   144   72   74 am   BACKBONE|DICT|INTERRES
   145   74   75 1    
   146   74  195 1    
   147   75   76 1    
   148   75   77 1    
   149   75  196 1    
   150   76  197 1    
   151   76  198 1    
   152   76  199 1    
   153   77   78 2    
   154   77   79 am   BACKBONE|DICT|INTERRES
   155   79   80 1    
   156   79  200 1    
   157   80   81 1    
   158   80   82 1    
   159   80  201 1    
   160   81  202 1    
   161   81  203 1    
   162   81  204 1    
   163   82   83 2    
   164   82   84 am   BACKBONE|DICT|INTERRES
   165   84   85 1    
   166   84  205 1    
   167   85   86 1    
   168   85   87 1    
   169   85  206 1    
   170   86  207 1    
   171   86  208 1    
   172   86  209 1    
   173   87   88 2    
   174   87   89 am   BACKBONE|DICT|INTERRES
   175   89   90 1    
   176   89  210 1    
   177   90   91 1    
   178   90   92 1    
   179   90  211 1    
   180   91  212 1    
   181   91  213 1    
   182   91  214 1    
   183   92   93 2    
   184   92   94 am   BACKBONE|DICT|INTERRES
   185   94   95 1    
   186   94  215 1    
   187   95   96 1    
   188   95   97 1    
   189   95  216 1    
   190   96  217 1    
   191   96  218 1    
   192   96  219 1    
   193   97   98 2    
   194   97   99 am   BACKBONE|DICT|INTERRES
   195   99  100 1    
   196   99  220 1    
   197  100  101 1    
   198  100  102 1    
   199  100  221 1    
   200  101  222 1    
   201  101  223 1    
   202  101  224 1    
   203  102  103 2    
   204  102  104 am   BACKBONE|DICT|INTERRES
   205  104  105 1    
   206  104  225 1    
   207  105  106 1    
   208  105  107 1    
   209  105  226 1    
   210  106  227 1    
   211  106  228 1    
   212  106  229 1    
   213  107  108 2    
   214  107  109 am   BACKBONE|DICT|INTERRES
   215  109  110 1    
   216  109  230 1    
   217  110  111 1    
   218  110  112 1    
   219  110  231 1    
   220  111  232 1    
   221  111  233 1    
   222  111  234 1    
   223  112  113 2    
   224  112  114 am   BACKBONE|DICT|INTERRES
   225  114  115 1    
   226  114  235 1    
   227  115  116 1    
   228  115  117 1    
   229  115  236 1    
   230  116  237 1    
   231  116  238 1    
   232  116  239 1    
   233  117  118 2    
   234  117  119 am   BACKBONE|DICT|INTERRES
   235  119  120 1    
   236  119  240 1    
   237  120  121 1    
   238  120  124 1    
   239  120  241 1    
   240  121  122 am   BACKBONE|DICT|INTERRES
   241  121  123 2    
   242  122  242 1    
   243  122  243 1    
   244  124  125 1    
   245  124  244 1    
   246  124  245 1    
   247  125  126 1    
   248  126  246 1    
   249  126  247 1    
@<TRIPOS>SUBSTRUCTURE
     1 UNK         1 GROUP             0       ****    0 ROOT    
