@<TRIPOS>MOLECULE
3R540
247   249    1
SMALL
USER_CHARGES


@<TRIPOS>ATOM
      1 CA          4.4360  -16.0720  -49.9405 C.3       0 UNK        -0.1800 
      2 C           3.6075  -15.4864  -48.8066 C.2       0 UNK         0.5000 
      3 O           4.0900  -15.3845  -47.6787 O.2       0 UNK        -0.5000 
      4 N           2.3667  -15.0800  -49.1005 N.am      1 UNK        -0.5000 
      5 CA          1.3832  -14.5500  -48.1455 C.3       1 UNK         0.1400 
      6 C6         -0.0753  -14.8167  -48.6046 C.3       23 UNK        -0.0398 
      7 S7         -0.4319  -16.5976  -48.7803 S.3       23 UNK        -0.2404 
      8 C8         -0.2940  -16.7911  -50.5859 C.3       23 UNK        -0.0205 
      9 C9         -0.0004  -18.2333  -50.9577 C.ar      23 UNK        -0.0193 
     10 C10        -0.9823  -19.0293  -51.5497 C.ar      23 UNK        -0.1150 
     11 C11        -0.7132  -20.3591  -51.8833 C.ar      23 UNK        -0.0193 
     12 C12         0.5481  -20.8920  -51.5977 C.ar      23 UNK        -0.1150 
     13 C13         1.5382  -20.1134  -50.9886 C.ar      23 UNK        -0.0193 
     14 C14         1.2623  -18.7722  -50.7019 C.ar      23 UNK        -0.1150 
     15 C15         2.8880  -20.7562  -50.6684 C.3       23 UNK        -0.0205 
     16 S16         3.8329  -20.0146  -49.2852 S.3       23 UNK        -0.2404 
     17 C17         2.6727  -20.0176  -47.8721 C.3       23 UNK        -0.0398 
     18 CA          2.3395  -21.4300  -47.3156 C.3       11 UNK         0.1400 
     19 N           2.2164  -21.4229  -45.8590 N.am      11 UNK        -0.5000 
     20 C           2.4662  -22.4722  -45.0652 C.2       10 UNK         0.5000 
     21 O           2.7317  -23.5998  -45.4806 O.2       10 UNK        -0.5000 
     22 CA          2.4393  -22.2106  -43.5514 C.3       10 UNK         0.1400 
     23 CB          3.6129  -21.3104  -43.1293 C.3       10 UNK        -0.1800 
     24 N           1.1856  -21.5798  -43.1515 N.am      10 UNK        -0.5000 
     25 C           0.1538  -22.2217  -42.5879 C.2       9 UNK         0.5000 
     26 O           0.1653  -23.4205  -42.3069 O.2       9 UNK        -0.5000 
     27 CA         -1.1090  -21.3920  -42.2775 C.3       9 UNK         0.1400 
     28 CB         -1.1908  -21.0693  -40.7778 C.3       9 UNK        -0.1800 
     29 N          -1.1820  -20.1458  -43.0433 N.am      9 UNK        -0.5000 
     30 C          -1.4475  -20.0912  -44.3557 C.2       8 UNK         0.5000 
     31 O          -1.6822  -21.0866  -45.0381 O.2       8 UNK        -0.5000 
     32 CA         -1.3886  -18.7098  -45.0360 C.3       8 UNK         0.1400 
     33 CB         -2.7890  -18.0874  -45.1133 C.3       8 UNK        -0.1800 
     34 N          -0.4558  -17.7828  -44.3872 N.am      8 UNK        -0.5000 
     35 C           0.8715  -17.9773  -44.3524 C.2       7 UNK         0.5000 
     36 O           1.4219  -18.9487  -44.8718 O.2       7 UNK        -0.5000 
     37 CA          1.7365  -16.9630  -43.5867 C.3       7 UNK         0.1400 
     38 CB          2.2777  -15.8875  -44.5366 C.3       7 UNK        -0.1800 
     39 N           1.0643  -16.3193  -42.4590 N.am      7 UNK        -0.5000 
     40 C           0.6607  -16.9463  -41.3454 C.2       6 UNK         0.5000 
     41 O           0.6956  -18.1683  -41.2026 O.2       6 UNK        -0.5000 
     42 CA          0.1336  -16.0622  -40.2039 C.3       6 UNK         0.1400 
     43 CB          1.3025  -15.4106  -39.4483 C.3       6 UNK        -0.1800 
     44 N          -0.7431  -15.0141  -40.7208 N.am      6 UNK        -0.5000 
     45 C          -2.0721  -14.9794  -40.5603 C.2       5 UNK         0.5000 
     46 O          -2.7022  -15.7822  -39.8706 O.2       5 UNK        -0.5000 
     47 CA         -2.8399  -13.8688  -41.3087 C.3       5 UNK         0.1400 
     48 CB         -3.0608  -12.6578  -40.3894 C.3       5 UNK        -0.1800 
     49 N          -2.1963  -13.4149  -42.5453 N.am      5 UNK        -0.5000 
     50 C          -1.9110  -14.1938  -43.5978 C.2       4 UNK         0.5000 
     51 O          -2.1496  -15.3991  -43.6447 O.2       4 UNK        -0.5000 
     52 CA         -1.1857  -13.5319  -44.7821 C.3       4 UNK         0.1400 
     53 CB         -2.2089  -12.8925  -45.7327 C.3       4 UNK        -0.1800 
     54 N          -0.1602  -12.5368  -44.4414 N.am      4 UNK        -0.5000 
     55 C           0.7997  -12.6325  -43.5084 C.2       3 UNK         0.5000 
     56 O           0.8702  -13.5372  -42.6749 O.2       3 UNK        -0.5000 
     57 CA          1.9144  -11.5822  -43.6007 C.3       3 UNK         0.1400 
     58 CB          2.9485  -11.6998  -42.4662 C.3       3 UNK        -0.1800 
     59 N           2.5786  -11.7882  -44.8831 N.am      3 UNK        -0.5000 
     60 C           2.7943  -10.8575  -45.8183 C.2       2 UNK         0.5000 
     61 O           2.5500   -9.6599  -45.6694 O.2       2 UNK        -0.5000 
     62 CA          3.3509  -11.3652  -47.1627 C.3       2 UNK         0.1400 
     63 CB          4.8867  -11.3388  -47.1568 C.3       2 UNK        -0.1800 
     64 N           2.8974  -12.7196  -47.4969 N.am      2 UNK        -0.5000 
     65 C           1.6424  -13.0581  -47.8238 C.2       1 UNK         0.5000 
     66 O           0.7209  -12.2430  -47.8803 O.2       1 UNK        -0.5000 
     67 C           1.0778  -22.0251  -47.9642 C.2       11 UNK         0.5000 
     68 O           1.1609  -23.0726  -48.6066 O.2       11 UNK        -0.5000 
     69 N          -0.0641  -21.3393  -47.7978 N.am      12 UNK        -0.5000 
     70 CA         -1.3085  -21.6533  -48.5001 C.3       12 UNK         0.1400 
     71 CB         -2.3361  -20.5227  -48.3444 C.3       12 UNK        -0.1800 
     72 C          -1.8932  -23.0101  -48.1010 C.2       12 UNK         0.5000 
     73 O          -2.1930  -23.8095  -48.9824 O.2       12 UNK        -0.5000 
     74 N          -1.9794  -23.2826  -46.7941 N.am      13 UNK        -0.5000 
     75 CA         -2.5082  -24.5253  -46.2219 C.3       13 UNK         0.1400 
     76 CB         -2.4786  -24.4163  -44.6912 C.3       13 UNK        -0.1800 
     77 C          -1.7958  -25.8146  -46.6854 C.2       13 UNK         0.5000 
     78 O          -2.4026  -26.8851  -46.6417 O.2       13 UNK        -0.5000 
     79 N          -0.5396  -25.6934  -47.1334 N.am      14 UNK        -0.5000 
     80 CA          0.2611  -26.7881  -47.6782 C.3       14 UNK         0.1400 
     81 CB          1.7416  -26.4932  -47.3877 C.3       14 UNK        -0.1800 
     82 C           0.0449  -27.0159  -49.1898 C.2       14 UNK         0.5000 
     83 O           0.5180  -28.0312  -49.7033 O.2       14 UNK        -0.5000 
     84 N          -0.6248  -26.0834  -49.8823 N.am      15 UNK        -0.5000 
     85 CA         -0.7652  -26.0678  -51.3397 C.3       15 UNK         0.1400 
     86 CB         -0.0207  -24.8413  -51.8927 C.3       15 UNK        -0.1800 
     87 C          -2.2378  -26.0559  -51.7799 C.2       15 UNK         0.5000 
     88 O          -2.6451  -26.9166  -52.5611 O.2       15 UNK        -0.5000 
     89 N          -3.0055  -25.0853  -51.2758 N.am      16 UNK        -0.5000 
     90 CA         -4.4049  -24.8243  -51.5863 C.3       16 UNK         0.1400 
     91 CB         -4.5699  -24.3236  -53.0347 C.3       16 UNK        -0.1800 
     92 C          -4.8884  -23.7845  -50.5679 C.2       16 UNK         0.5000 
     93 O          -4.6077  -22.5935  -50.7257 O.2       16 UNK        -0.5000 
     94 N          -5.5582  -24.2602  -49.5094 N.am      17 UNK        -0.5000 
     95 CA         -5.9251  -23.5022  -48.3050 C.3       17 UNK         0.1400 
     96 CB         -6.5730  -24.4638  -47.2967 C.3       17 UNK        -0.1800 
     97 C          -6.8232  -22.2679  -48.5307 C.2       17 UNK         0.5000 
     98 O          -6.9046  -21.4144  -47.6472 O.2       17 UNK        -0.5000 
     99 N          -7.4582  -22.1768  -49.7069 N.am      18 UNK        -0.5000 
    100 CA        -8.2016  -21.0056  -50.1741 C.3       18 UNK         0.1400 
    101 CB        -8.9735  -21.3887  -51.4466 C.3       18 UNK        -0.1800 
    102 C         -7.3096  -19.7752  -50.4465 C.2       18 UNK         0.5000 
    103 O         -7.8311  -18.6602  -50.4892 O.2       18 UNK        -0.5000 
    104 N         -6.0005  -19.9958  -50.6528 N.am      19 UNK        -0.5000 
    105 CA        -4.9307  -19.0325  -50.9429 C.3       19 UNK         0.1400 
    106 CB        -4.7757  -17.9830  -49.8266 C.3       19 UNK        -0.1800 
    107 C         -5.0428  -18.3783  -52.3325 C.2       19 UNK         0.5000 
    108 O         -4.0821  -18.4184  -53.1008 O.2       19 UNK        -0.5000 
    109 N         -6.2253  -17.8436  -52.6626 N.am      20 UNK        -0.5000 
    110 CA        -6.5649  -17.2344  -53.9530 C.3       20 UNK         0.1400 
    111 CB        -7.9872  -16.6608  -53.8733 C.3       20 UNK        -0.1800 
    112 C         -6.4396  -18.2036  -55.1457 C.2       20 UNK         0.5000 
    113 O         -6.1886  -17.7624  -56.2677 O.2       20 UNK        -0.5000 
    114 N         -6.5622  -19.5093  -54.8693 N.am      21 UNK        -0.5000 
    115 CA        -6.3512  -20.6157  -55.8032 C.3       21 UNK         0.1400 
    116 CB        -6.6821  -21.9276  -55.0781 C.3       21 UNK        -0.1800 
    117 C         -4.9308  -20.6742  -56.4053 C.2       21 UNK         0.5000 
    118 O         -4.7739  -21.1930  -57.5114 O.2       21 UNK        -0.5000 
    119 N         -3.9352  -20.1263  -55.6941 N.am      22 UNK        -0.5000 
    120 CA        -2.5628  -19.9416  -56.1942 C.3       22 UNK         0.1400 
    121 C         -2.3784  -18.6632  -57.0680 C.2       22 UNK         0.5000 
    122 N         -3.3858  -17.8195  -57.2648 N.am      22 UNK        -0.7600 
    123 O         -1.2946  -18.4364  -57.5991 O.2       22 UNK        -0.5000 
    124 C124       -1.5169  -19.9946  -55.0511 C.3       23 UNK        -0.0398 
    125 S125       -1.4275  -21.6352  -54.2513 S.3       23 UNK        -0.2404 
    126 C126       -1.7932  -21.2289  -52.5168 C.3       23 UNK        -0.0205 
    127 H127        5.2878  -15.4268  -50.1550 H         1 UNK         0.0600 
    128 H128        3.8515  -16.1838  -50.8540 H         1 UNK         0.0600 
    129 H129        4.8138  -17.0547  -49.6586 H         1 UNK         0.0600 
    130 H130        2.0500  -15.1398  -50.0563 H         1 UNK         0.3000 
    131 H131        1.5147  -15.0854  -47.2055 H         1 UNK         0.0600 
    132 H132       -0.7830  -14.4265  -47.8726 H         1 UNK         0.0800 
    133 H133       -0.2928  -14.2970  -49.5392 H         1 UNK         0.0800 
    134 H134       -1.2171  -16.4463  -51.0545 H         1 UNK         0.0800 
    135 H135        0.5047  -16.1610  -50.9771 H         1 UNK         0.0800 
    136 H136       -1.9549  -18.6084  -51.7499 H         1 UNK         0.1150 
    137 H137        0.7560  -21.9234  -51.8426 H         1 UNK         0.1150 
    138 H138        2.0168  -18.1451  -50.2500 H         1 UNK         0.1150 
    139 H139        2.7522  -21.8178  -50.4579 H         1 UNK         0.0800 
    140 H140        3.5060  -20.7052  -51.5655 H         1 UNK         0.0800 
    141 H141        3.1756  -19.4348  -47.0987 H         1 UNK         0.0800 
    142 H142        1.7827  -19.4342  -48.1097 H         1 UNK         0.0800 
    143 H143        3.1735  -22.0901  -47.5655 H         1 UNK         0.0600 
    144 H144        1.9779  -20.5273  -45.4366 H         1 UNK         0.3000 
    145 H145        2.5612  -23.1703  -43.0447 H         1 UNK         0.0600 
    146 H146        3.6384  -21.1839  -42.0468 H         1 UNK         0.0600 
    147 H147        4.5667  -21.7471  -43.4279 H         1 UNK         0.0600 
    148 H148        3.5504  -20.3183  -43.5778 H         1 UNK         0.0600 
    149 H149        1.0794  -20.5996  -43.3747 H         1 UNK         0.3000 
    150 H150       -1.9749  -22.0043  -42.5377 H         1 UNK         0.0600 
    151 H151       -1.2267  -21.9840  -40.1848 H         1 UNK         0.0600 
    152 H152       -2.0876  -20.4954  -40.5438 H         1 UNK         0.0600 
    153 H153       -0.3266  -20.4968  -40.4404 H         1 UNK         0.0600 
    154 H154       -0.9469  -19.2939  -42.5513 H         1 UNK         0.3000 
    155 H155       -1.0390  -18.8642  -46.0586 H         1 UNK         0.0600 
    156 H156       -2.7744  -17.1571  -45.6815 H         1 UNK         0.0600 
    157 H157       -3.1883  -17.8726  -44.1214 H         1 UNK         0.0600 
    158 H158       -3.4907  -18.7581  -45.6107 H         1 UNK         0.0600 
    159 H159       -0.8609  -16.9658  -43.9414 H         1 UNK         0.3000 
    160 H160        2.5902  -17.5138  -43.1863 H         1 UNK         0.0600 
    161 H161        1.4753  -15.2612  -44.9214 H         1 UNK         0.0600 
    162 H162        2.7891  -16.3374  -45.3887 H         1 UNK         0.0600 
    163 H163        2.9954  -15.2406  -44.0317 H         1 UNK         0.0600 
    164 H164        1.0015  -15.3045  -42.4976 H         1 UNK         0.3000 
    165 H165       -0.4021  -16.7081  -39.5053 H         1 UNK         0.0600 
    166 H166        1.8777  -14.7421  -40.0906 H         1 UNK         0.0600 
    167 H167        0.9440  -14.8295  -38.5986 H         1 UNK         0.0600 
    168 H168        1.9873  -16.1659  -39.0605 H         1 UNK         0.0600 
    169 H169       -0.3123  -14.3281  -41.3326 H         1 UNK         0.3000 
    170 H170       -3.8162  -14.2763  -41.5788 H         1 UNK         0.0600 
    171 H171       -3.5638  -12.9530  -39.4675 H         1 UNK         0.0600 
    172 H172       -2.1166  -12.1871  -40.1122 H         1 UNK         0.0600 
    173 H173       -3.6846  -11.9044  -40.8708 H         1 UNK         0.0600 
    174 H174       -1.9362  -12.4407  -42.5892 H         1 UNK         0.3000 
    175 H175       -0.6787  -14.3295  -45.3269 H         1 UNK         0.0600 
    176 H176       -2.7395  -12.0682  -45.2548 H         1 UNK         0.0600 
    177 H177       -1.7307  -12.5031  -46.6311 H         1 UNK         0.0600 
    178 H178       -2.9543  -13.6216  -46.0537 H         1 UNK         0.0600 
    179 H179       -0.0996  -11.7552  -45.0789 H         1 UNK         0.3000 
    180 H180        1.4466  -10.5969  -43.5504 H         1 UNK         0.0600 
    181 H181        3.4444  -12.6714  -42.4693 H         1 UNK         0.0600 
    182 H182        2.4750  -11.5741  -41.4917 H         1 UNK         0.0600 
    183 H183        3.7176  -10.9326  -42.5565 H         1 UNK         0.0600 
    184 H184        2.7981  -12.7464  -45.1140 H         1 UNK         0.3000 
    185 H185        2.9998  -10.6872  -47.9434 H         1 UNK         0.0600 
    186 H186        5.2597  -10.3386  -46.9321 H         1 UNK         0.0600 
    187 H187        5.2983  -12.0190  -46.4101 H         1 UNK         0.0600 
    188 H188        5.2894  -11.6243  -48.1288 H         1 UNK         0.0600 
    189 H189        3.5914  -13.4606  -47.4767 H         1 UNK         0.3000 
    190 H190       -0.0672  -20.5224  -47.2076 H         1 UNK         0.3000 
    191 H191       -1.0682  -21.7263  -49.5591 H         1 UNK         0.0600 
    192 H192       -3.2265  -20.7345  -48.9372 H         1 UNK         0.0600 
    193 H193       -1.9342  -19.5699  -48.6895 H         1 UNK         0.0600 
    194 H194       -2.6627  -20.4001  -47.3139 H         1 UNK         0.0600 
    195 H195       -1.7315  -22.5468  -46.1343 H         1 UNK         0.3000 
    196 H196       -3.5495  -24.6086  -46.5358 H         1 UNK         0.0600 
    197 H197       -2.9032  -25.3059  -44.2244 H         1 UNK         0.0600 
    198 H198       -3.0569  -23.5597  -44.3446 H         1 UNK         0.0600 
    199 H199       -1.4588  -24.3057  -44.3224 H         1 UNK         0.0600 
    200 H200       -0.1228  -24.7728  -47.1663 H         1 UNK         0.3000 
    201 H201       -0.0021  -27.7167  -47.1676 H         1 UNK         0.0600 
    202 H202        1.9185  -26.3760  -46.3183 H         1 UNK         0.0600 
    203 H203        2.0745  -25.5798  -47.8822 H         1 UNK         0.0600 
    204 H204        2.3805  -27.3061  -47.7348 H         1 UNK         0.0600 
    205 H205       -1.0340  -25.2996  -49.3834 H         1 UNK         0.3000 
    206 H206       -0.3107  -26.9565  -51.7822 H         1 UNK         0.0600 
    207 H207        1.0514  -24.9195  -51.7122 H         1 UNK         0.0600 
    208 H208       -0.1659  -24.7388  -52.9690 H         1 UNK         0.0600 
    209 H209       -0.3674  -23.9218  -51.4217 H         1 UNK         0.0600 
    210 H210       -2.6181  -24.4705  -50.5602 H         1 UNK         0.3000 
    211 H211       -4.9749  -25.7471  -51.4621 H         1 UNK         0.0600 
    212 H212       -4.2334  -25.0649  -53.7589 H         1 UNK         0.0600 
    213 H213       -4.0096  -23.4053  -53.2156 H         1 UNK         0.0600 
    214 H214       -5.6194  -24.1239  -53.2494 H         1 UNK         0.0600 
    215 H215       -5.7393  -25.2528  -49.4691 H         1 UNK         0.3000 
    216 H216       -4.9969  -23.1286  -47.8690 H         1 UNK         0.0600 
    217 H217       -6.8094  -23.9526  -46.3624 H         1 UNK         0.0600 
    218 H218       -5.9067  -25.2909  -47.0513 H         1 UNK         0.0600 
    219 H219       -7.5015  -24.8842  -47.6849 H         1 UNK         0.0600 
    220 H220       -7.3370  -22.9303  -50.3669 H         1 UNK         0.3000 
    221 H221       -8.9216  -20.7262  -49.4022 H         1 UNK         0.0600 
    222 H222       -8.3009  -21.6984  -52.2473 H         1 UNK         0.0600 
    223 H223       -9.6677  -22.2072  -51.2555 H         1 UNK         0.0600 
    224 H224       -9.5606  -20.5474  -51.8178 H         1 UNK         0.0600 
    225 H225       -5.6830  -20.9614  -50.6251 H         1 UNK         0.3000 
    226 H226       -4.0157  -19.6228  -50.9463 H         1 UNK         0.0600 
    227 H227       -4.6549  -18.4589  -48.8533 H         1 UNK         0.0600 
    228 H228       -3.8926  -17.3655  -49.9966 H         1 UNK         0.0600 
    229 H229       -5.6346  -17.3142  -49.7681 H         1 UNK         0.0600 
    230 H230       -6.9635  -17.8912  -51.9646 H         1 UNK         0.3000 
    231 H231       -5.8682  -16.4118  -54.1256 H         1 UNK         0.0600 
    232 H232       -8.2687  -16.1791  -54.8107 H         1 UNK         0.0600 
    233 H233       -8.0660  -15.9102  -53.0866 H         1 UNK         0.0600 
    234 H234       -8.7231  -17.4396  -53.6687 H         1 UNK         0.0600 
    235 H235       -6.7634  -19.7631  -53.9143 H         1 UNK         0.3000 
    236 H236       -7.0513  -20.4912  -56.6317 H         1 UNK         0.0600 
    237 H237       -7.7306  -21.9617  -54.7821 H         1 UNK         0.0600 
    238 H238       -6.4967  -22.7920  -55.7171 H         1 UNK         0.0600 
    239 H239       -6.0751  -22.0419  -54.1801 H         1 UNK         0.0600 
    240 H240       -4.1412  -19.6896  -54.8034 H         1 UNK         0.3000 
    241 H241       -2.3342  -20.7722  -56.8648 H         1 UNK         0.0600 
    242 H242       -3.2363  -17.0069  -57.8414 H         1 UNK         0.3800 
    243 H243       -4.3025  -17.9776  -56.8613 H         1 UNK         0.3800 
    244 H244       -0.5164  -19.7783  -55.4293 H         1 UNK         0.0800 
    245 H245       -1.7315  -19.2208  -54.3135 H         1 UNK         0.0800 
    246 H246       -2.7677  -20.7451  -52.4738 H         1 UNK         0.0800 
    247 H247       -1.8945  -22.1536  -51.9480 H         1 UNK         0.0800 
@<TRIPOS>BOND
     1    1    2 1    
     2    1  127 1    
     3    1  128 1    
     4    1  129 1    
     5    2    3 2    
     6    2    4 am   BACKBONE|DICT|INTERRES
     7    4    5 1    
     8    4  130 1    
     9    5    6 1    
    10    5   65 1    
    11    5  131 1    
    12    6    7 1    
    13    6  132 1    
    14    6  133 1    
    15    7    8 1    
    16    8    9 1    
    17    8  134 1    
    18    8  135 1    
    19    9   10 ar   
    20    9   14 ar   
    21   10   11 ar   
    22   10  136 1    
    23   11   12 ar   
    24   11  126 1    
    25   12   13 ar   
    26   12  137 1    
    27   13   14 ar   
    28   13   15 1    
    29   14  138 1    
    30   15   16 1    
    31   15  139 1    
    32   15  140 1    
    33   16   17 1    
    34   17   18 1    
    35   17  141 1    
    36   17  142 1    
    37   18   19 1    
    38   18   67 1    
    39   18  143 1    
    40   19   20 am   BACKBONE|DICT|INTERRES
    41   19  144 1    
    42   20   21 2    
    43   20   22 1    
    44   22   23 1    
    45   22   24 1    
    46   22  145 1    
    47   23  146 1    
    48   23  147 1    
    49   23  148 1    
    50   24   25 am   BACKBONE|DICT|INTERRES
    51   24  149 1    
    52   25   26 2    
    53   25   27 1    
    54   27   28 1    
    55   27   29 1    
    56   27  150 1    
    57   28  151 1    
    58   28  152 1    
    59   28  153 1    
    60   29   30 am   BACKBONE|DICT|INTERRES
    61   29  154 1    
    62   30   31 2    
    63   30   32 1    
    64   32   33 1    
    65   32   34 1    
    66   32  155 1    
    67   33  156 1    
    68   33  157 1    
    69   33  158 1    
    70   34   35 am   BACKBONE|DICT|INTERRES
    71   34  159 1    
    72   35   36 2    
    73   35   37 1    
    74   37   38 1    
    75   37   39 1    
    76   37  160 1    
    77   38  161 1    
    78   38  162 1    
    79   38  163 1    
    80   39   40 am   BACKBONE|DICT|INTERRES
    81   39  164 1    
    82   40   41 2    
    83   40   42 1    
    84   42   43 1    
    85   42   44 1    
    86   42  165 1    
    87   43  166 1    
    88   43  167 1    
    89   43  168 1    
    90   44   45 am   BACKBONE|DICT|INTERRES
    91   44  169 1    
    92   45   46 2    
    93   45   47 1    
    94   47   48 1    
    95   47   49 1    
    96   47  170 1    
    97   48  171 1    
    98   48  172 1    
    99   48  173 1    
   100   49   50 am   BACKBONE|DICT|INTERRES
   101   49  174 1    
   102   50   51 2    
   103   50   52 1    
   104   52   53 1    
   105   52   54 1    
   106   52  175 1    
   107   53  176 1    
   108   53  177 1    
   109   53  178 1    
   110   54   55 am   BACKBONE|DICT|INTERRES
   111   54  179 1    
   112   55   56 2    
   113   55   57 1    
   114   57   58 1    
   115   57   59 1    
   116   57  180 1    
   117   58  181 1    
   118   58  182 1    
   119   58  183 1    
   120   59   60 am   BACKBONE|DICT|INTERRES
   121   59  184 1    
   122   60   61 2    
   123   60   62 1    
   124   62   63 1    
   125   62   64 1    
   126   62  185 1    
   127   63  186 1    
   128   63  187 1    
   129   63  188 1    
   130   64   65 am   BACKBONE|DICT|INTERRES
   131   64  189 1    
   132   65   66 2    
   133   67   68 2    
   134   67   69 am   BACKBONE|DICT|INTERRES
   135   69   70 1    
   136   69  190 1    
   137   70   71 1    
   138   70   72 1    
   139   70  191 1    
   140   71  192 1    
   141   71  193 1    
   142   71  194 1    
   143   72   73 2    
   144   72   74 am   BACKBONE|DICT|INTERRES
   145   74   75 1    
   146   74  195 1    
   147   75   76 1    
   148   75   77 1    
   149   75  196 1    
   150   76  197 1    
   151   76  198 1    
   152   76  199 1    
   153   77   78 2    
   154   77   79 am   BACKBONE|DICT|INTERRES
   155   79   80 1    
   156   79  200 1    
   157   80   81 1    
   158   80   82 1    
   159   80  201 1    
   160   81  202 1    
   161   81  203 1    
   162   81  204 1    
   163   82   83 2    
   164   82   84 am   BACKBONE|DICT|INTERRES
   165   84   85 1    
   166   84  205 1    
   167   85   86 1    
   168   85   87 1    
   169   85  206 1    
   170   86  207 1    
   171   86  208 1    
   172   86  209 1    
   173   87   88 2    
   174   87   89 am   BACKBONE|DICT|INTERRES
   175   89   90 1    
   176   89  210 1    
   177   90   91 1    
   178   90   92 1    
   179   90  211 1    
   180   91  212 1    
   181   91  213 1    
   182   91  214 1    
   183   92   93 2    
   184   92   94 am   BACKBONE|DICT|INTERRES
   185   94   95 1    
   186   94  215 1    
   187   95   96 1    
   188   95   97 1    
   189   95  216 1    
   190   96  217 1    
   191   96  218 1    
   192   96  219 1    
   193   97   98 2    
   194   97   99 am   BACKBONE|DICT|INTERRES
   195   99  100 1    
   196   99  220 1    
   197  100  101 1    
   198  100  102 1    
   199  100  221 1    
   200  101  222 1    
   201  101  223 1    
   202  101  224 1    
   203  102  103 2    
   204  102  104 am   BACKBONE|DICT|INTERRES
   205  104  105 1    
   206  104  225 1    
   207  105  106 1    
   208  105  107 1    
   209  105  226 1    
   210  106  227 1    
   211  106  228 1    
   212  106  229 1    
   213  107  108 2    
   214  107  109 am   BACKBONE|DICT|INTERRES
   215  109  110 1    
   216  109  230 1    
   217  110  111 1    
   218  110  112 1    
   219  110  231 1    
   220  111  232 1    
   221  111  233 1    
   222  111  234 1    
   223  112  113 2    
   224  112  114 am   BACKBONE|DICT|INTERRES
   225  114  115 1    
   226  114  235 1    
   227  115  116 1    
   228  115  117 1    
   229  115  236 1    
   230  116  237 1    
   231  116  238 1    
   232  116  239 1    
   233  117  118 2    
   234  117  119 am   BACKBONE|DICT|INTERRES
   235  119  120 1    
   236  119  240 1    
   237  120  121 1    
   238  120  124 1    
   239  120  241 1    
   240  121  122 am   BACKBONE|DICT|INTERRES
   241  121  123 2    
   242  122  242 1    
   243  122  243 1    
   244  124  125 1    
   245  124  244 1    
   246  124  245 1    
   247  125  126 1    
   248  126  246 1    
   249  126  247 1    
@<TRIPOS>SUBSTRUCTURE
     1 UNK         1 GROUP             0       ****    0 ROOT    
