@<TRIPOS>MOLECULE
3R540
247   249    1
SMALL
USER_CHARGES


@<TRIPOS>ATOM
      1 CA          3.1087  -12.9056  -46.2508 C.3       0 UNK        -0.1800 
      2 C           1.7335  -13.0583  -46.8840 C.2       0 UNK         0.5000 
      3 O           1.4390  -12.3843  -47.8702 O.2       0 UNK        -0.5000 
      4 N           0.8854  -13.9186  -46.3061 N.am      1 UNK        -0.5000 
      5 CA         -0.4879  -14.2658  -46.7107 C.3       1 UNK         0.1400 
      6 C6         -0.6435  -14.7406  -48.1809 C.3       23 UNK        -0.0398 
      7 S7          0.1008  -16.3763  -48.4733 S.3       23 UNK        -0.2404 
      8 C8          1.4809  -16.0100  -49.5948 C.3       23 UNK        -0.0205 
      9 C9          1.9034  -17.2682  -50.3397 C.ar      23 UNK        -0.0193 
     10 C10         1.4197  -17.5132  -51.6288 C.ar      23 UNK        -0.1150 
     11 C11         1.7912  -18.6691  -52.3224 C.ar      23 UNK        -0.0193 
     12 C12         2.6537  -19.5844  -51.7143 C.ar      23 UNK        -0.1150 
     13 C13         3.1281  -19.3633  -50.4185 C.ar      23 UNK        -0.0193 
     14 C14         2.7588  -18.1973  -49.7387 C.ar      23 UNK        -0.1150 
     15 C15         4.0360  -20.3935  -49.7632 C.3       23 UNK        -0.0205 
     16 S16         3.1144  -21.8782  -49.2455 S.3       23 UNK        -0.2404 
     17 C17         2.2653  -21.2533  -47.7606 C.3       23 UNK        -0.0398 
     18 CA          1.0713  -22.1355  -47.3199 C.3       11 UNK         0.1400 
     19 N           0.8075  -22.0170  -45.8824 N.am      11 UNK        -0.5000 
     20 C          -0.0564  -22.7721  -45.1897 C.2       10 UNK         0.5000 
     21 O          -0.6797  -23.7144  -45.6772 O.2       10 UNK        -0.5000 
     22 CA         -0.3036  -22.3806  -43.7194 C.3       10 UNK         0.1400 
     23 CB          0.7599  -22.9982  -42.7999 C.3       10 UNK        -0.1800 
     24 N          -0.3451  -20.9301  -43.5230 N.am      10 UNK        -0.5000 
     25 C          -1.2842  -20.1236  -44.0391 C.2       9 UNK         0.5000 
     26 O          -2.2647  -20.5351  -44.6595 O.2       9 UNK        -0.5000 
     27 CA         -1.0551  -18.6039  -43.8994 C.3       9 UNK         0.1400 
     28 CB         -1.5221  -18.0937  -42.5289 C.3       9 UNK        -0.1800 
     29 N           0.3424  -18.2225  -44.1219 N.am      9 UNK        -0.5000 
     30 C           0.9978  -18.4220  -45.2743 C.2       8 UNK         0.5000 
     31 O           0.4691  -18.8890  -46.2792 O.2       8 UNK        -0.5000 
     32 CA          2.5068  -18.1300  -45.2895 C.3       8 UNK         0.1400 
     33 CB          2.7858  -16.6474  -45.5626 C.3       8 UNK        -0.1800 
     34 N           3.1425  -18.5403  -44.0381 N.am      8 UNK        -0.5000 
     35 C           3.3701  -19.8179  -43.7012 C.2       7 UNK         0.5000 
     36 O           3.1078  -20.7696  -44.4348 O.2       7 UNK        -0.5000 
     37 CA          3.9482  -20.0818  -42.2984 C.3       7 UNK         0.1400 
     38 CB          5.4791  -19.9618  -42.3141 C.3       7 UNK        -0.1800 
     39 N           3.4019  -19.1790  -41.2852 N.am      7 UNK        -0.5000 
     40 C           2.1208  -19.1665  -40.8896 C.2       6 UNK         0.5000 
     41 O           1.2767  -19.9670  -41.2903 O.2       6 UNK        -0.5000 
     42 CA          1.7029  -18.0333  -39.9304 C.3       6 UNK         0.1400 
     43 CB          1.8675  -18.4763  -38.4693 C.3       6 UNK        -0.1800 
     44 N           2.4447  -16.7856  -40.1476 N.am      6 UNK        -0.5000 
     45 C           2.4374  -16.0860  -41.2907 C.2       5 UNK         0.5000 
     46 O           1.7797  -16.4185  -42.2777 O.2       5 UNK        -0.5000 
     47 CA          3.3837  -14.8719  -41.3513 C.3       5 UNK         0.1400 
     48 CB          4.3638  -14.9748  -42.5354 C.3       5 UNK        -0.1800 
     49 N           2.6935  -13.5793  -41.3458 N.am      5 UNK        -0.5000 
     50 C           1.8413  -13.0698  -42.2472 C.2       4 UNK         0.5000 
     51 O           1.4718  -13.6338  -43.2803 O.2       4 UNK        -0.5000 
     52 CA          1.3892  -11.6248  -41.9646 C.3       4 UNK         0.1400 
     53 CB          2.3034  -10.6317  -42.6991 C.3       4 UNK        -0.1800 
     54 N           0.0117  -11.3752  -42.3749 N.am      4 UNK        -0.5000 
     55 C          -1.0829  -11.8998  -41.8150 C.2       3 UNK         0.5000 
     56 O          -1.0537  -12.6413  -40.8318 O.2       3 UNK        -0.5000 
     57 CA         -2.4443  -11.5451  -42.4511 C.3       3 UNK         0.1400 
     58 CB         -3.0724  -10.3137  -41.7709 C.3       3 UNK        -0.1800 
     59 N          -2.4202  -11.3983  -43.9142 N.am      3 UNK        -0.5000 
     60 C          -1.8303  -10.4662  -44.6756 C.2       2 UNK         0.5000 
     61 O          -1.1906   -9.5153  -44.2235 O.2       2 UNK        -0.5000 
     62 CA         -1.9037  -10.6995  -46.1988 C.3       2 UNK         0.1400 
     63 CB         -1.3798   -9.5008  -47.0094 C.3       2 UNK        -0.1800 
     64 N          -1.1384  -11.8880  -46.5758 N.am      2 UNK        -0.5000 
     65 C          -1.5095  -13.1589  -46.3802 C.2       1 UNK         0.5000 
     66 O          -2.6084  -13.4737  -45.9196 O.2       1 UNK        -0.5000 
     67 C          -0.1966  -21.8572  -48.1574 C.2       11 UNK         0.5000 
     68 O          -0.5125  -22.6396  -49.0517 O.2       11 UNK        -0.5000 
     69 N          -0.9364  -20.7927  -47.8122 N.am      12 UNK        -0.5000 
     70 CA         -2.2265  -20.4444  -48.4103 C.3       12 UNK         0.1400 
     71 CB         -2.7008  -19.0807  -47.8892 C.3       12 UNK        -0.1800 
     72 C          -3.3037  -21.5154  -48.1681 C.2       12 UNK         0.5000 
     73 O          -4.0470  -21.8443  -49.0923 O.2       12 UNK        -0.5000 
     74 N          -3.3538  -22.0664  -46.9471 N.am      13 UNK        -0.5000 
     75 CA         -4.2412  -23.1718  -46.5828 C.3       13 UNK         0.1400 
     76 CB         -4.1633  -23.4350  -45.0720 C.3       13 UNK        -0.1800 
     77 C          -3.9469  -24.4503  -47.3905 C.2       13 UNK         0.5000 
     78 O          -4.8791  -25.0699  -47.9063 O.2       13 UNK        -0.5000 
     79 N          -2.6558  -24.7848  -47.5323 N.am      14 UNK        -0.5000 
     80 CA         -2.1621  -25.8849  -48.3628 C.3       14 UNK         0.1400 
     81 CB         -0.6609  -26.0878  -48.1096 C.3       14 UNK        -0.1800 
     82 C          -2.4435  -25.6814  -49.8644 C.2       14 UNK         0.5000 
     83 O          -2.7346  -26.6537  -50.5620 O.2       14 UNK        -0.5000 
     84 N          -2.4150  -24.4245  -50.3287 N.am      15 UNK        -0.5000 
     85 CA         -2.7579  -23.9809  -51.6829 C.3       15 UNK         0.1400 
     86 CB         -2.1248  -22.6021  -51.9292 C.3       15 UNK        -0.1800 
     87 C          -4.2796  -23.9851  -51.9593 C.2       15 UNK         0.5000 
     88 O          -4.8164  -23.0133  -52.5007 O.2       15 UNK        -0.5000 
     89 N          -4.9285  -25.1026  -51.6067 N.am      16 UNK        -0.5000 
     90 CA         -6.3432  -25.4287  -51.7784 C.3       16 UNK         0.1400 
     91 CB         -6.6737  -25.6182  -53.2728 C.3       16 UNK        -0.1800 
     92 C          -7.2832  -24.4440  -51.0558 C.2       16 UNK         0.5000 
     93 O          -8.2296  -23.9401  -51.6602 O.2       16 UNK        -0.5000 
     94 N          -7.0067  -24.2010  -49.7652 N.am      17 UNK        -0.5000 
     95 CA         -7.7971  -23.3793  -48.8409 C.3       17 UNK         0.1400 
     96 CB         -9.1570  -24.0475  -48.5471 C.3       17 UNK        -0.1800 
     97 C          -7.9278  -21.9138  -49.3038 C.2       17 UNK         0.5000 
     98 O          -9.0363  -21.3820  -49.3893 O.2       17 UNK        -0.5000 
     99 N          -6.7759  -21.2980  -49.6028 N.am      18 UNK        -0.5000 
    100 CA        -6.5945  -19.9159  -50.0559 C.3       18 UNK         0.1400 
    101 CB        -7.0714  -18.9074  -48.9901 C.3       18 UNK        -0.1800 
    102 C         -7.1623  -19.6319  -51.4622 C.2       18 UNK         0.5000 
    103 O         -7.4027  -18.4715  -51.7991 O.2       18 UNK        -0.5000 
    104 N         -7.3136  -20.6805  -52.2848 N.am      19 UNK        -0.5000 
    105 CA        -7.6435  -20.5710  -53.7098 C.3       19 UNK         0.1400 
    106 CB        -8.2361  -21.8995  -54.1974 C.3       19 UNK        -0.1800 
    107 C         -6.4264  -20.1743  -54.5714 C.2       19 UNK         0.5000 
    108 O         -6.6050  -19.8252  -55.7388 O.2       19 UNK        -0.5000 
    109 N         -5.2241  -20.2323  -53.9787 N.am      20 UNK        -0.5000 
    110 CA        -3.9216  -19.8956  -54.5541 C.3       20 UNK         0.1400 
    111 CB        -3.8577  -18.4210  -55.0037 C.3       20 UNK        -0.1800 
    112 C         -3.4853  -20.8919  -55.6435 C.2       20 UNK         0.5000 
    113 O         -2.9165  -20.4950  -56.6631 O.2       20 UNK        -0.5000 
    114 N         -3.6982  -22.1904  -55.3746 N.am      21 UNK        -0.5000 
    115 CA        -3.2248  -23.3099  -56.2032 C.3       21 UNK         0.1400 
    116 CB        -3.8151  -24.6216  -55.6650 C.3       21 UNK        -0.1800 
    117 C         -1.6841  -23.4043  -56.3098 C.2       21 UNK         0.5000 
    118 O         -1.1732  -24.0885  -57.1968 O.2       21 UNK        -0.5000 
    119 N         -0.9818  -22.6893  -55.4229 N.am      22 UNK        -0.5000 
    120 CA         0.4519  -22.3781  -55.4757 C.3       22 UNK         0.1400 
    121 C          0.8960  -21.5247  -56.7038 C.2       22 UNK         0.5000 
    122 N         -0.0005  -20.8345  -57.4015 N.am      22 UNK        -0.7600 
    123 O          2.0791  -21.4953  -57.0306 O.2       22 UNK        -0.5000 
    124 C124        0.9148  -21.7262  -54.1446 C.3       23 UNK        -0.0398 
    125 S125       -0.0337  -20.2156  -53.7121 S.3       23 UNK        -0.2404 
    126 C126        1.2544  -18.9293  -53.7225 C.3       23 UNK        -0.0205 
    127 H127        3.2370  -13.5683  -45.3960 H         1 UNK         0.0600 
    128 H128        3.2542  -11.8805  -45.9107 H         1 UNK         0.0600 
    129 H129        3.8846  -13.1393  -46.9795 H         1 UNK         0.0600 
    130 H130        1.1701  -14.3256  -45.4227 H         1 UNK         0.3000 
    131 H131       -0.7599  -15.1067  -46.0698 H         1 UNK         0.0600 
    132 H132       -1.7005  -14.8467  -48.4329 H         1 UNK         0.0800 
    133 H133       -0.2504  -14.0087  -48.8861 H         1 UNK         0.0800 
    134 H134        1.1868  -15.2375  -50.3068 H         1 UNK         0.0800 
    135 H135        2.3179  -15.6052  -49.0242 H         1 UNK         0.0800 
    136 H136        0.7463  -16.8045  -52.0901 H         1 UNK         0.1150 
    137 H137        2.9401  -20.4841  -52.2394 H         1 UNK         0.1150 
    138 H138        3.1208  -18.0181  -48.7361 H         1 UNK         0.1150 
    139 H139        4.8105  -20.6898  -50.4721 H         1 UNK         0.0800 
    140 H140        4.5563  -19.9661  -48.9045 H         1 UNK         0.0800 
    141 H141        1.9532  -20.2216  -47.9215 H         1 UNK         0.0800 
    142 H142        3.0190  -21.2211  -46.9743 H         1 UNK         0.0800 
    143 H143        1.3446  -23.1797  -47.4867 H         1 UNK         0.0600 
    144 H144        1.3196  -21.2958  -45.3885 H         1 UNK         0.3000 
    145 H145       -1.2754  -22.7841  -43.4281 H         1 UNK         0.0600 
    146 H146        0.5517  -22.7765  -41.7531 H         1 UNK         0.0600 
    147 H147        0.7830  -24.0836  -42.9050 H         1 UNK         0.0600 
    148 H148        1.7582  -22.6252  -43.0275 H         1 UNK         0.0600 
    149 H149        0.3932  -20.5222  -42.9575 H         1 UNK         0.3000 
    150 H150       -1.6543  -18.1076  -44.6656 H         1 UNK         0.0600 
    151 H151       -2.5875  -18.2804  -42.3891 H         1 UNK         0.0600 
    152 H152       -1.3625  -17.0196  -42.4310 H         1 UNK         0.0600 
    153 H153       -0.9956  -18.5874  -41.7132 H         1 UNK         0.0600 
    154 H154        0.8347  -17.7794  -43.3520 H         1 UNK         0.3000 
    155 H155        2.9527  -18.7043  -46.1040 H         1 UNK         0.0600 
    156 H156        2.2867  -16.0047  -44.8385 H         1 UNK         0.0600 
    157 H157        3.8535  -16.4307  -45.5324 H         1 UNK         0.0600 
    158 H158        2.4274  -16.3656  -46.5522 H         1 UNK         0.0600 
    159 H159        3.3057  -17.8148  -43.3553 H         1 UNK         0.3000 
    160 H160        3.6875  -21.1046  -42.0179 H         1 UNK         0.0600 
    161 H161        5.8029  -18.9510  -42.5655 H         1 UNK         0.0600 
    162 H162        5.9155  -20.6389  -43.0498 H         1 UNK         0.0600 
    163 H163        5.9049  -20.2199  -41.3443 H         1 UNK         0.0600 
    164 H164        4.0315  -18.4925  -40.8973 H         1 UNK         0.3000 
    165 H165        0.6460  -17.8250  -40.1063 H         1 UNK         0.0600 
    166 H166        1.4954  -17.7162  -37.7820 H         1 UNK         0.0600 
    167 H167        1.3066  -19.3913  -38.2737 H         1 UNK         0.0600 
    168 H168        2.9116  -18.6720  -38.2220 H         1 UNK         0.0600 
    169 H169        3.0103  -16.4612  -39.3762 H         1 UNK         0.3000 
    170 H170        3.9895  -14.8833  -40.4438 H         1 UNK         0.0600 
    171 H171        3.8547  -14.8980  -43.4938 H         1 UNK         0.0600 
    172 H172        5.1112  -14.1825  -42.4949 H         1 UNK         0.0600 
    173 H173        4.8973  -15.9259  -42.5233 H         1 UNK         0.0600 
    174 H174        2.9025  -13.0053  -40.5410 H         1 UNK         0.3000 
    175 H175        1.4580  -11.4340  -40.8916 H         1 UNK         0.0600 
    176 H176        2.0340   -9.6011  -42.4672 H         1 UNK         0.0600 
    177 H177        2.2440  -10.7580  -43.7810 H         1 UNK         0.0600 
    178 H178        3.3460  -10.7684  -42.4091 H         1 UNK         0.0600 
    179 H179       -0.1262  -10.7473  -43.1592 H         1 UNK         0.3000 
    180 H180       -3.1019  -12.3939  -42.2575 H         1 UNK         0.0600 
    181 H181       -2.4549   -9.4227  -41.8865 H         1 UNK         0.0600 
    182 H182       -3.1967  -10.4840  -40.7008 H         1 UNK         0.0600 
    183 H183       -4.0581  -10.0957  -42.1818 H         1 UNK         0.0600 
    184 H184       -2.8271  -12.1795  -44.4205 H         1 UNK         0.3000 
    185 H185       -2.9526  -10.8509  -46.4624 H         1 UNK         0.0600 
    186 H186       -0.3228   -9.3131  -46.8159 H         1 UNK         0.0600 
    187 H187       -1.4983   -9.6685  -48.0800 H         1 UNK         0.0600 
    188 H188       -1.9278   -8.5911  -46.7608 H         1 UNK         0.0600 
    189 H189       -0.2158  -11.7319  -46.9686 H         1 UNK         0.3000 
    190 H190       -0.5723  -20.1587  -47.1037 H         1 UNK         0.3000 
    191 H191       -2.0761  -20.3582  -49.4878 H         1 UNK         0.0600 
    192 H192       -1.9818  -18.3000  -48.1275 H         1 UNK         0.0600 
    193 H193       -3.6505  -18.7968  -48.3444 H         1 UNK         0.0600 
    194 H194       -2.8425  -19.0840  -46.8089 H         1 UNK         0.0600 
    195 H195       -2.7506  -21.6979  -46.2182 H         1 UNK         0.3000 
    196 H196       -5.2600  -22.8577  -46.8123 H         1 UNK         0.0600 
    197 H197       -4.8681  -24.2130  -44.7767 H         1 UNK         0.0600 
    198 H198       -4.4097  -22.5386  -44.5025 H         1 UNK         0.0600 
    199 H199       -3.1700  -23.7618  -44.7668 H         1 UNK         0.0600 
    200 H200       -1.9543  -24.2407  -47.0369 H         1 UNK         0.3000 
    201 H201       -2.6831  -26.7926  -48.0516 H         1 UNK         0.0600 
    202 H202       -0.4638  -26.3000  -47.0586 H         1 UNK         0.0600 
    203 H203       -0.0818  -25.2066  -48.3858 H         1 UNK         0.0600 
    204 H204       -0.2770  -26.9280  -48.6894 H         1 UNK         0.0600 
    205 H205       -2.1117  -23.6946  -49.6922 H         1 UNK         0.3000 
    206 H206       -2.3063  -24.6792  -52.3899 H         1 UNK         0.0600 
    207 H207       -1.0516  -22.6198  -51.7422 H         1 UNK         0.0600 
    208 H208       -2.2689  -22.2827  -52.9585 H         1 UNK         0.0600 
    209 H209       -2.5622  -21.8370  -51.2900 H         1 UNK         0.0600 
    210 H210       -4.3623  -25.8302  -51.1800 H         1 UNK         0.3000 
    211 H211       -6.4939  -26.3929  -51.2910 H         1 UNK         0.0600 
    212 H212       -6.5127  -24.7048  -53.8418 H         1 UNK         0.0600 
    213 H213       -7.7137  -25.9150  -53.4126 H         1 UNK         0.0600 
    214 H214       -6.0527  -26.3971  -53.7152 H         1 UNK         0.0600 
    215 H215       -6.1859  -24.6365  -49.3538 H         1 UNK         0.3000 
    216 H216       -7.2452  -23.3546  -47.9018 H         1 UNK         0.0600 
    217 H217       -9.7026  -23.4992  -47.7783 H         1 UNK         0.0600 
    218 H218       -9.0243  -25.0669  -48.1848 H         1 UNK         0.0600 
    219 H219       -9.7922  -24.0863  -49.4326 H         1 UNK         0.0600 
    220 H220       -5.9053  -21.8152  -49.5010 H         1 UNK         0.3000 
    221 H221       -5.5163  -19.7841  -50.1545 H         1 UNK         0.0600 
    222 H222       -8.1561  -18.9128  -48.8810 H         1 UNK         0.0600 
    223 H223       -6.6332  -19.1274  -48.0165 H         1 UNK         0.0600 
    224 H224       -6.7764  -17.8911  -49.2533 H         1 UNK         0.0600 
    225 H225       -7.1136  -21.6089  -51.9357 H         1 UNK         0.3000 
    226 H226       -8.4027  -19.7966  -53.8376 H         1 UNK         0.0600 
    227 H227       -9.1183  -22.1751  -53.6195 H         1 UNK         0.0600 
    228 H228       -8.5391  -21.8352  -55.2432 H         1 UNK         0.0600 
    229 H229       -7.5120  -22.7081  -54.1149 H         1 UNK         0.0600 
    230 H230       -5.2011  -20.6088  -53.0407 H         1 UNK         0.3000 
    231 H231       -3.2027  -20.0098  -53.7417 H         1 UNK         0.0600 
    232 H232       -4.4873  -18.2304  -55.8730 H         1 UNK         0.0600 
    233 H233       -2.8382  -18.1431  -55.2742 H         1 UNK         0.0600 
    234 H234       -4.1745  -17.7509  -54.2046 H         1 UNK         0.0600 
    235 H235       -4.1866  -22.4316  -54.5195 H         1 UNK         0.3000 
    236 H236       -3.6068  -23.1553  -57.2142 H         1 UNK         0.0600 
    237 H237       -4.9038  -24.5821  -55.6404 H         1 UNK         0.0600 
    238 H238       -3.5377  -25.4637  -56.3003 H         1 UNK         0.0600 
    239 H239       -3.4598  -24.8425  -54.6593 H         1 UNK         0.0600 
    240 H240       -1.5011  -22.1531  -54.7460 H         1 UNK         0.3000 
    241 H241        0.9744  -23.3315  -55.5720 H         1 UNK         0.0600 
    242 H242       -0.9780  -20.8164  -57.1311 H         1 UNK         0.3800 
    243 H243        0.3038  -20.2922  -58.1940 H         1 UNK         0.3800 
    244 H244        0.7912  -22.4400  -53.3297 H         1 UNK         0.0800 
    245 H245        1.9839  -21.5125  -54.1762 H         1 UNK         0.0800 
    246 H246        2.0689  -19.2014  -54.3950 H         1 UNK         0.0800 
    247 H247        0.8211  -18.0164  -54.1336 H         1 UNK         0.0800 
@<TRIPOS>BOND
     1    1    2 1    
     2    1  127 1    
     3    1  128 1    
     4    1  129 1    
     5    2    3 2    
     6    2    4 am   BACKBONE|DICT|INTERRES
     7    4    5 1    
     8    4  130 1    
     9    5    6 1    
    10    5   65 1    
    11    5  131 1    
    12    6    7 1    
    13    6  132 1    
    14    6  133 1    
    15    7    8 1    
    16    8    9 1    
    17    8  134 1    
    18    8  135 1    
    19    9   10 ar   
    20    9   14 ar   
    21   10   11 ar   
    22   10  136 1    
    23   11   12 ar   
    24   11  126 1    
    25   12   13 ar   
    26   12  137 1    
    27   13   14 ar   
    28   13   15 1    
    29   14  138 1    
    30   15   16 1    
    31   15  139 1    
    32   15  140 1    
    33   16   17 1    
    34   17   18 1    
    35   17  141 1    
    36   17  142 1    
    37   18   19 1    
    38   18   67 1    
    39   18  143 1    
    40   19   20 am   BACKBONE|DICT|INTERRES
    41   19  144 1    
    42   20   21 2    
    43   20   22 1    
    44   22   23 1    
    45   22   24 1    
    46   22  145 1    
    47   23  146 1    
    48   23  147 1    
    49   23  148 1    
    50   24   25 am   BACKBONE|DICT|INTERRES
    51   24  149 1    
    52   25   26 2    
    53   25   27 1    
    54   27   28 1    
    55   27   29 1    
    56   27  150 1    
    57   28  151 1    
    58   28  152 1    
    59   28  153 1    
    60   29   30 am   BACKBONE|DICT|INTERRES
    61   29  154 1    
    62   30   31 2    
    63   30   32 1    
    64   32   33 1    
    65   32   34 1    
    66   32  155 1    
    67   33  156 1    
    68   33  157 1    
    69   33  158 1    
    70   34   35 am   BACKBONE|DICT|INTERRES
    71   34  159 1    
    72   35   36 2    
    73   35   37 1    
    74   37   38 1    
    75   37   39 1    
    76   37  160 1    
    77   38  161 1    
    78   38  162 1    
    79   38  163 1    
    80   39   40 am   BACKBONE|DICT|INTERRES
    81   39  164 1    
    82   40   41 2    
    83   40   42 1    
    84   42   43 1    
    85   42   44 1    
    86   42  165 1    
    87   43  166 1    
    88   43  167 1    
    89   43  168 1    
    90   44   45 am   BACKBONE|DICT|INTERRES
    91   44  169 1    
    92   45   46 2    
    93   45   47 1    
    94   47   48 1    
    95   47   49 1    
    96   47  170 1    
    97   48  171 1    
    98   48  172 1    
    99   48  173 1    
   100   49   50 am   BACKBONE|DICT|INTERRES
   101   49  174 1    
   102   50   51 2    
   103   50   52 1    
   104   52   53 1    
   105   52   54 1    
   106   52  175 1    
   107   53  176 1    
   108   53  177 1    
   109   53  178 1    
   110   54   55 am   BACKBONE|DICT|INTERRES
   111   54  179 1    
   112   55   56 2    
   113   55   57 1    
   114   57   58 1    
   115   57   59 1    
   116   57  180 1    
   117   58  181 1    
   118   58  182 1    
   119   58  183 1    
   120   59   60 am   BACKBONE|DICT|INTERRES
   121   59  184 1    
   122   60   61 2    
   123   60   62 1    
   124   62   63 1    
   125   62   64 1    
   126   62  185 1    
   127   63  186 1    
   128   63  187 1    
   129   63  188 1    
   130   64   65 am   BACKBONE|DICT|INTERRES
   131   64  189 1    
   132   65   66 2    
   133   67   68 2    
   134   67   69 am   BACKBONE|DICT|INTERRES
   135   69   70 1    
   136   69  190 1    
   137   70   71 1    
   138   70   72 1    
   139   70  191 1    
   140   71  192 1    
   141   71  193 1    
   142   71  194 1    
   143   72   73 2    
   144   72   74 am   BACKBONE|DICT|INTERRES
   145   74   75 1    
   146   74  195 1    
   147   75   76 1    
   148   75   77 1    
   149   75  196 1    
   150   76  197 1    
   151   76  198 1    
   152   76  199 1    
   153   77   78 2    
   154   77   79 am   BACKBONE|DICT|INTERRES
   155   79   80 1    
   156   79  200 1    
   157   80   81 1    
   158   80   82 1    
   159   80  201 1    
   160   81  202 1    
   161   81  203 1    
   162   81  204 1    
   163   82   83 2    
   164   82   84 am   BACKBONE|DICT|INTERRES
   165   84   85 1    
   166   84  205 1    
   167   85   86 1    
   168   85   87 1    
   169   85  206 1    
   170   86  207 1    
   171   86  208 1    
   172   86  209 1    
   173   87   88 2    
   174   87   89 am   BACKBONE|DICT|INTERRES
   175   89   90 1    
   176   89  210 1    
   177   90   91 1    
   178   90   92 1    
   179   90  211 1    
   180   91  212 1    
   181   91  213 1    
   182   91  214 1    
   183   92   93 2    
   184   92   94 am   BACKBONE|DICT|INTERRES
   185   94   95 1    
   186   94  215 1    
   187   95   96 1    
   188   95   97 1    
   189   95  216 1    
   190   96  217 1    
   191   96  218 1    
   192   96  219 1    
   193   97   98 2    
   194   97   99 am   BACKBONE|DICT|INTERRES
   195   99  100 1    
   196   99  220 1    
   197  100  101 1    
   198  100  102 1    
   199  100  221 1    
   200  101  222 1    
   201  101  223 1    
   202  101  224 1    
   203  102  103 2    
   204  102  104 am   BACKBONE|DICT|INTERRES
   205  104  105 1    
   206  104  225 1    
   207  105  106 1    
   208  105  107 1    
   209  105  226 1    
   210  106  227 1    
   211  106  228 1    
   212  106  229 1    
   213  107  108 2    
   214  107  109 am   BACKBONE|DICT|INTERRES
   215  109  110 1    
   216  109  230 1    
   217  110  111 1    
   218  110  112 1    
   219  110  231 1    
   220  111  232 1    
   221  111  233 1    
   222  111  234 1    
   223  112  113 2    
   224  112  114 am   BACKBONE|DICT|INTERRES
   225  114  115 1    
   226  114  235 1    
   227  115  116 1    
   228  115  117 1    
   229  115  236 1    
   230  116  237 1    
   231  116  238 1    
   232  116  239 1    
   233  117  118 2    
   234  117  119 am   BACKBONE|DICT|INTERRES
   235  119  120 1    
   236  119  240 1    
   237  120  121 1    
   238  120  124 1    
   239  120  241 1    
   240  121  122 am   BACKBONE|DICT|INTERRES
   241  121  123 2    
   242  122  242 1    
   243  122  243 1    
   244  124  125 1    
   245  124  244 1    
   246  124  245 1    
   247  125  126 1    
   248  126  246 1    
   249  126  247 1    
@<TRIPOS>SUBSTRUCTURE
     1 UNK         1 GROUP             0       ****    0 ROOT    
