@<TRIPOS>MOLECULE
3R540
247   249    1
SMALL
USER_CHARGES


@<TRIPOS>ATOM
      1 CA         -1.8180  -16.0301  -47.0693 C.3       0 UNK        -0.1800 
      2 C          -1.7305  -14.7392  -47.8696 C.2       0 UNK         0.5000 
      3 O          -2.6916  -13.9716  -47.9018 O.2       0 UNK        -0.5000 
      4 N          -0.5863  -14.5077  -48.5265 N.am      1 UNK        -0.5000 
      5 CA         -0.3169  -13.3029  -49.3245 C.3       1 UNK         0.1400 
      6 C6          0.8300  -13.5162  -50.3427 C.3       23 UNK        -0.0398 
      7 S7          0.4554  -14.8413  -51.5396 S.3       23 UNK        -0.2404 
      8 C8          1.6364  -16.1284  -51.0248 C.3       23 UNK        -0.0205 
      9 C9          1.4093  -17.4424  -51.7600 C.ar      23 UNK        -0.0193 
     10 C10         1.6142  -17.5196  -53.1415 C.ar      23 UNK        -0.1150 
     11 C11         1.4395  -18.7284  -53.8219 C.ar      23 UNK        -0.0193 
     12 C12         1.0824  -19.8712  -53.1037 C.ar      23 UNK        -0.1150 
     13 C13         0.8539  -19.8055  -51.7274 C.ar      23 UNK        -0.0193 
     14 C14         1.0177  -18.5884  -51.0589 C.ar      23 UNK        -0.1150 
     15 C15         0.4296  -21.0558  -50.9762 C.3       23 UNK        -0.0205 
     16 S16         1.8724  -21.9345  -50.3002 S.3       23 UNK        -0.2404 
     17 C17         1.9057  -21.3356  -48.5740 C.3       23 UNK        -0.0398 
     18 CA          1.4925  -22.4417  -47.5680 C.3       11 UNK         0.1400 
     19 N           1.7953  -22.0904  -46.1806 N.am      11 UNK        -0.5000 
     20 C           2.9846  -22.3306  -45.6096 C.2       10 UNK         0.5000 
     21 O           3.9024  -22.9154  -46.1877 O.2       10 UNK        -0.5000 
     22 CA          3.2374  -21.8271  -44.1751 C.3       10 UNK         0.1400 
     23 CB          4.2730  -20.6909  -44.1918 C.3       10 UNK        -0.1800 
     24 N           2.0423  -21.3639  -43.4721 N.am      10 UNK        -0.5000 
     25 C           1.1317  -22.1615  -42.8994 C.2       9 UNK         0.5000 
     26 O           1.1807  -23.3911  -42.9311 O.2       9 UNK        -0.5000 
     27 CA         -0.0442  -21.4621  -42.1883 C.3       9 UNK         0.1400 
     28 CB          0.3457  -21.0643  -40.7572 C.3       9 UNK        -0.1800 
     29 N          -0.5306  -20.2799  -42.9024 N.am      9 UNK        -0.5000 
     30 C          -1.0407  -20.2979  -44.1409 C.2       8 UNK         0.5000 
     31 O          -1.1589  -21.3197  -44.8139 O.2       8 UNK        -0.5000 
     32 CA         -1.4300  -18.9444  -44.7520 C.3       8 UNK         0.1400 
     33 CB         -2.7891  -18.4635  -44.2222 C.3       8 UNK        -0.1800 
     34 N          -0.3997  -17.9420  -44.4957 N.am      8 UNK        -0.5000 
     35 C           0.7683  -17.8914  -45.1517 C.2       7 UNK         0.5000 
     36 O           1.0561  -18.6329  -46.0921 O.2       7 UNK        -0.5000 
     37 CA          1.7901  -16.8467  -44.6670 C.3       7 UNK         0.1400 
     38 CB          1.5998  -15.5193  -45.4156 C.3       7 UNK        -0.1800 
     39 N           1.7219  -16.6068  -43.2232 N.am      7 UNK        -0.5000 
     40 C           2.0752  -17.5102  -42.2962 C.2       6 UNK         0.5000 
     41 O           2.5075  -18.6284  -42.5674 O.2       6 UNK        -0.5000 
     42 CA          1.8599  -17.1280  -40.8197 C.3       6 UNK         0.1400 
     43 CB          3.0786  -16.3663  -40.2783 C.3       6 UNK        -0.1800 
     44 N           0.6554  -16.3292  -40.5936 N.am      6 UNK        -0.5000 
     45 C          -0.5931  -16.6877  -40.9253 C.2       5 UNK         0.5000 
     46 O          -0.8751  -17.7747  -41.4302 O.2       5 UNK        -0.5000 
     47 CA         -1.7096  -15.6510  -40.6882 C.3       5 UNK         0.1400 
     48 CB         -2.5573  -16.0483  -39.4707 C.3       5 UNK        -0.1800 
     49 N          -1.2221  -14.2787  -40.5049 N.am      5 UNK        -0.5000 
     50 C          -0.6174  -13.5439  -41.4478 C.2       4 UNK         0.5000 
     51 O          -0.3703  -13.9537  -42.5849 O.2       4 UNK        -0.5000 
     52 CA         -0.1416  -12.1459  -41.0180 C.3       4 UNK         0.1400 
     53 CB          1.3589  -12.1760  -40.6870 C.3       4 UNK        -0.1800 
     54 N          -0.3737  -11.1640  -42.0725 N.am      4 UNK        -0.5000 
     55 C          -1.5662  -10.6354  -42.3800 C.2       3 UNK         0.5000 
     56 O          -2.5963  -10.8549  -41.7412 O.2       3 UNK        -0.5000 
     57 CA         -1.6164   -9.7020  -43.6080 C.3       3 UNK         0.1400 
     58 CB         -1.5020   -8.2327  -43.1730 C.3       3 UNK        -0.1800 
     59 N          -0.5667   -9.9942  -44.5890 N.am      3 UNK        -0.5000 
     60 C          -0.5445  -11.0914  -45.3563 C.2       2 UNK         0.5000 
     61 O          -1.4489  -11.9293  -45.3735 O.2       2 UNK        -0.5000 
     62 CA          0.7274  -11.3021  -46.1967 C.3       2 UNK         0.1400 
     63 CB          1.8855  -11.7619  -45.2948 C.3       2 UNK        -0.1800 
     64 N           0.5061  -12.3140  -47.2276 N.am      2 UNK        -0.5000 
     65 C          -0.0253  -12.0749  -48.4340 C.2       1 UNK         0.5000 
     66 O          -0.2857  -10.9461  -48.8535 O.2       1 UNK        -0.5000 
     67 C           0.0339  -22.8997  -47.7107 C.2       11 UNK         0.5000 
     68 O          -0.1984  -24.0999  -47.8450 O.2       11 UNK        -0.5000 
     69 N          -0.9174  -21.9551  -47.7027 N.am      12 UNK        -0.5000 
     70 CA         -2.3334  -22.1690  -48.0328 C.3       12 UNK         0.1400 
     71 CB         -3.0952  -20.8451  -47.8664 C.3       12 UNK        -0.1800 
     72 C          -3.0249  -23.2930  -47.2360 C.2       12 UNK         0.5000 
     73 O          -3.7808  -24.0765  -47.8120 O.2       12 UNK        -0.5000 
     74 N          -2.7156  -23.3777  -45.9366 N.am      13 UNK        -0.5000 
     75 CA         -3.2207  -24.3985  -45.0191 C.3       13 UNK         0.1400 
     76 CB         -2.8604  -23.9955  -43.5817 C.3       13 UNK        -0.1800 
     77 C          -2.6931  -25.8140  -45.3243 C.2       13 UNK         0.5000 
     78 O          -3.4063  -26.7878  -45.0806 O.2       13 UNK        -0.5000 
     79 N          -1.4642  -25.9053  -45.8493 N.am      14 UNK        -0.5000 
     80 CA         -0.8257  -27.1589  -46.2498 C.3       14 UNK         0.1400 
     81 CB          0.6996  -27.0140  -46.1281 C.3       14 UNK        -0.1800 
     82 C          -1.2261  -27.5595  -47.6798 C.2       14 UNK         0.5000 
     83 O          -1.4532  -28.7412  -47.9412 O.2       14 UNK        -0.5000 
     84 N          -1.3164  -26.5652  -48.5735 N.am      15 UNK        -0.5000 
     85 CA         -1.7224  -26.7140  -49.9709 C.3       15 UNK         0.1400 
     86 CB         -1.4128  -25.4070  -50.7200 C.3       15 UNK        -0.1800 
     87 C          -3.2089  -27.0793  -50.1367 C.2       15 UNK         0.5000 
     88 O          -3.5601  -27.7288  -51.1223 O.2       15 UNK        -0.5000 
     89 N          -4.0434  -26.6426  -49.1803 N.am      16 UNK        -0.5000 
     90 CA         -5.5059  -26.7466  -49.1580 C.3       16 UNK         0.1400 
     91 CB         -5.9615  -28.2181  -49.0678 C.3       16 UNK        -0.1800 
     92 C          -6.1532  -25.9696  -50.3237 C.2       16 UNK         0.5000 
     93 O          -7.1075  -26.4442  -50.9430 O.2       16 UNK        -0.5000 
     94 N          -5.6030  -24.7840  -50.6024 N.am      17 UNK        -0.5000 
     95 CA         -6.0122  -23.8693  -51.6598 C.3       17 UNK         0.1400 
     96 CB         -5.3015  -24.2427  -52.9722 C.3       17 UNK        -0.1800 
     97 C          -5.6475  -22.4462  -51.2235 C.2       17 UNK         0.5000 
     98 O          -4.7278  -22.2741  -50.4206 O.2       17 UNK        -0.5000 
     99 N          -6.3696  -21.4531  -51.7548 N.am      18 UNK        -0.5000 
    100 CA        -6.1497  -20.0345  -51.4753 C.3       18 UNK         0.1400 
    101 CB        -7.2820  -19.2164  -52.1156 C.3       18 UNK        -0.1800 
    102 C         -4.7874  -19.5494  -51.9990 C.2       18 UNK         0.5000 
    103 O         -4.3909  -19.9213  -53.1045 O.2       18 UNK        -0.5000 
    104 N         -4.1240  -18.6782  -51.2301 N.am      19 UNK        -0.5000 
    105 CA        -2.8208  -18.0949  -51.5657 C.3       19 UNK         0.1400 
    106 CB        -2.3255  -17.2820  -50.3628 C.3       19 UNK        -0.1800 
    107 C         -2.8362  -17.2314  -52.8448 C.2       19 UNK         0.5000 
    108 O         -1.8200  -17.1388  -53.5282 O.2       19 UNK        -0.5000 
    109 N         -3.9998  -16.6491  -53.1683 N.am      20 UNK        -0.5000 
    110 CA        -4.2373  -15.9073  -54.4075 C.3       20 UNK         0.1400 
    111 CB        -5.5296  -15.0899  -54.2573 C.3       20 UNK        -0.1800 
    112 C         -4.3159  -16.8141  -55.6536 C.2       20 UNK         0.5000 
    113 O         -3.9972  -16.3556  -56.7514 O.2       20 UNK        -0.5000 
    114 N         -4.7459  -18.0702  -55.4690 N.am      21 UNK        -0.5000 
    115 CA        -4.8320  -19.0833  -56.5226 C.3       21 UNK         0.1400 
    116 CB        -6.0237  -20.0089  -56.2281 C.3       21 UNK        -0.1800 
    117 C         -3.5328  -19.9014  -56.6422 C.2       21 UNK         0.5000 
    118 O         -3.2159  -20.3698  -57.7366 O.2       21 UNK        -0.5000 
    119 N         -2.8190  -20.0485  -55.5187 N.am      22 UNK        -0.5000 
    120 CA        -1.6168  -20.8705  -55.3149 C.3       22 UNK         0.1400 
    121 C         -1.9173  -22.4009  -55.2875 C.2       22 UNK         0.5000 
    122 N         -0.9279  -23.2320  -54.9841 N.am      22 UNK        -0.7600 
    123 O         -3.0349  -22.8581  -55.5167 O.2       22 UNK        -0.5000 
    124 C124       -0.4329  -20.5177  -56.2660 C.3       23 UNK        -0.0398 
    125 S125        0.0605  -18.7563  -56.2335 S.3       23 UNK        -0.2404 
    126 C126        1.6439  -18.7996  -55.3282 C.3       23 UNK        -0.0205 
    127 H127       -1.0147  -16.7202  -47.3277 H         1 UNK         0.0600 
    128 H128       -2.7667  -16.5316  -47.2601 H         1 UNK         0.0600 
    129 H129       -1.7562  -15.8097  -46.0038 H         1 UNK         0.0600 
    130 H130        0.1538  -15.1918  -48.4970 H         1 UNK         0.3000 
    131 H131       -1.2197  -13.0693  -49.8937 H         1 UNK         0.0600 
    132 H132        1.0004  -12.6034  -50.9167 H         1 UNK         0.0800 
    133 H133        1.7703  -13.7299  -49.8312 H         1 UNK         0.0800 
    134 H134        1.5594  -16.2793  -49.9474 H         1 UNK         0.0800 
    135 H135        2.6527  -15.7821  -51.2178 H         1 UNK         0.0800 
    136 H136        1.9015  -16.6319  -53.6871 H         1 UNK         0.1150 
    137 H137        0.9717  -20.8137  -53.6187 H         1 UNK         0.1150 
    138 H138        0.8508  -18.5372  -49.9924 H         1 UNK         0.1150 
    139 H139       -0.2814  -20.8015  -50.1898 H         1 UNK         0.0800 
    140 H140       -0.1029  -21.7300  -51.6491 H         1 UNK         0.0800 
    141 H141        1.2989  -20.4372  -48.4562 H         1 UNK         0.0800 
    142 H142        2.9300  -21.0220  -48.3688 H         1 UNK         0.0800 
    143 H143        2.0791  -23.3281  -47.8220 H         1 UNK         0.0600 
    144 H144        1.0626  -21.6428  -45.6451 H         1 UNK         0.3000 
    145 H145        3.6649  -22.6608  -43.6141 H         1 UNK         0.0600 
    146 H146        4.5362  -20.3829  -43.1797 H         1 UNK         0.0600 
    147 H147        5.1959  -21.0027  -44.6825 H         1 UNK         0.0600 
    148 H148        3.8973  -19.8154  -44.7231 H         1 UNK         0.0600 
    149 H149        1.9630  -20.3601  -43.3385 H         1 UNK         0.3000 
    150 H150       -0.8693  -22.1734  -42.1279 H         1 UNK         0.0600 
    151 H151        0.6513  -21.9374  -40.1794 H         1 UNK         0.0600 
    152 H152       -0.4913  -20.6024  -40.2330 H         1 UNK         0.0600 
    153 H153        1.1764  -20.3588  -40.7492 H         1 UNK         0.0600 
    154 H154       -0.5000  -19.3959  -42.4021 H         1 UNK         0.3000 
    155 H155       -1.5202  -19.0742  -45.8320 H         1 UNK         0.0600 
    156 H156       -2.7844  -18.3291  -43.1408 H         1 UNK         0.0600 
    157 H157       -3.5721  -19.1858  -44.4564 H         1 UNK         0.0600 
    158 H158       -3.0777  -17.5154  -44.6753 H         1 UNK         0.0600 
    159 H159       -0.5383  -17.3388  -43.6973 H         1 UNK         0.3000 
    160 H160        2.7852  -17.2303  -44.9025 H         1 UNK         0.0600 
    161 H161        0.6501  -15.0455  -45.1629 H         1 UNK         0.0600 
    162 H162        1.6194  -15.6720  -46.4953 H         1 UNK         0.0600 
    163 H163        2.4015  -14.8218  -45.1744 H         1 UNK         0.0600 
    164 H164        1.3378  -15.7207  -42.9227 H         1 UNK         0.3000 
    165 H165        1.7533  -18.0528  -40.2500 H         1 UNK         0.0600 
    166 H166        2.9793  -16.1700  -39.2106 H         1 UNK         0.0600 
    167 H167        3.9934  -16.9441  -40.4173 H         1 UNK         0.0600 
    168 H168        3.2138  -15.4097  -40.7850 H         1 UNK         0.0600 
    169 H169        0.7885  -15.4205  -40.1771 H         1 UNK         0.3000 
    170 H170       -2.3518  -15.6641  -41.5713 H         1 UNK         0.0600 
    171 H171       -2.9628  -17.0544  -39.5877 H         1 UNK         0.0600 
    172 H172       -1.9714  -16.0356  -38.5507 H         1 UNK         0.0600 
    173 H173       -3.4032  -15.3729  -39.3410 H         1 UNK         0.0600 
    174 H174       -1.3717  -13.8731  -39.5919 H         1 UNK         0.3000 
    175 H175       -0.6886  -11.8366  -40.1246 H         1 UNK         0.0600 
    176 H176        1.9567  -12.4770  -41.5487 H         1 UNK         0.0600 
    177 H177        1.7104  -11.1969  -40.3610 H         1 UNK         0.0600 
    178 H178        1.5686  -12.8797  -39.8803 H         1 UNK         0.0600 
    179 H179        0.4082  -10.9573  -42.6744 H         1 UNK         0.3000 
    180 H180       -2.5871   -9.8406  -44.0889 H         1 UNK         0.0600 
    181 H181       -0.5439   -8.0273  -42.6938 H         1 UNK         0.0600 
    182 H182       -2.2870   -7.9744  -42.4609 H         1 UNK         0.0600 
    183 H183       -1.6039   -7.5598  -44.0246 H         1 UNK         0.0600 
    184 H184        0.2053   -9.3441  -44.6317 H         1 UNK         0.3000 
    185 H185        1.0026  -10.3560  -46.6678 H         1 UNK         0.0600 
    186 H186        2.7649  -12.0297  -45.8808 H         1 UNK         0.0600 
    187 H187        2.1857  -10.9695  -44.6085 H         1 UNK         0.0600 
    188 H188        1.6063  -12.6251  -44.6895 H         1 UNK         0.0600 
    189 H189        0.6157  -13.2740  -46.9402 H         1 UNK         0.3000 
    190 H190       -0.6488  -21.0020  -47.5116 H         1 UNK         0.3000 
    191 H191       -2.3717  -22.4500  -49.0866 H         1 UNK         0.0600 
    192 H192       -3.0914  -20.5065  -46.8310 H         1 UNK         0.0600 
    193 H193       -4.1383  -20.9552  -48.1644 H         1 UNK         0.0600 
    194 H194       -2.6639  -20.0597  -48.4858 H         1 UNK         0.0600 
    195 H195       -2.0835  -22.6803  -45.5459 H         1 UNK         0.3000 
    196 H196       -4.3088  -24.4219  -45.1075 H         1 UNK         0.0600 
    197 H197       -3.2741  -24.7022  -42.8613 H         1 UNK         0.0600 
    198 H198       -3.2542  -23.0091  -43.3356 H         1 UNK         0.0600 
    199 H199       -1.7797  -23.9720  -43.4363 H         1 UNK         0.0600 
    200 H200       -0.9742  -25.0526  -46.0888 H         1 UNK         0.3000 
    201 H201       -1.1411  -27.9574  -45.5747 H         1 UNK         0.0600 
    202 H202        0.9907  -26.7657  -45.1073 H         1 UNK         0.0600 
    203 H203        1.0889  -26.2352  -46.7847 H         1 UNK         0.0600 
    204 H204        1.2011  -27.9459  -46.3922 H         1 UNK         0.0600 
    205 H205       -1.0446  -25.6290  -48.2797 H         1 UNK         0.3000 
    206 H206       -1.1286  -27.5159  -50.4143 H         1 UNK         0.0600 
    207 H207       -0.3538  -25.1554  -50.6573 H         1 UNK         0.0600 
    208 H208       -1.6662  -25.4915  -51.7775 H         1 UNK         0.0600 
    209 H209       -1.9796  -24.5684  -50.3138 H         1 UNK         0.0600 
    210 H210       -3.6510  -26.0470  -48.4597 H         1 UNK         0.3000 
    211 H211       -5.8296  -26.2471  -48.2438 H         1 UNK         0.0600 
    212 H212       -5.7348  -28.7724  -49.9787 H         1 UNK         0.0600 
    213 H213       -7.0382  -28.2825  -48.9072 H         1 UNK         0.0600 
    214 H214       -5.4781  -28.7288  -48.2348 H         1 UNK         0.0600 
    215 H215       -4.8671  -24.4243  -50.0036 H         1 UNK         0.3000 
    216 H216       -7.0943  -23.9260  -51.7954 H         1 UNK         0.0600 
    217 H217       -5.5770  -23.5601  -53.7772 H         1 UNK         0.0600 
    218 H218       -5.5666  -25.2500  -53.2937 H         1 UNK         0.0600 
    219 H219       -4.2165  -24.2006  -52.8660 H         1 UNK         0.0600 
    220 H220       -7.0836  -21.6719  -52.4336 H         1 UNK         0.3000 
    221 H221       -6.1843  -19.8938  -50.3929 H         1 UNK         0.0600 
    222 H222       -7.3025  -19.3355  -53.2000 H         1 UNK         0.0600 
    223 H223       -8.2550  -19.5177  -51.7270 H         1 UNK         0.0600 
    224 H224       -7.1657  -18.1525  -51.9048 H         1 UNK         0.0600 
    225 H225       -4.5216  -18.4051  -50.3432 H         1 UNK         0.3000 
    226 H226       -2.1211  -18.9161  -51.7360 H         1 UNK         0.0600 
    227 H227       -2.2415  -17.9025  -49.4716 H         1 UNK         0.0600 
    228 H228       -1.3384  -16.8661  -50.5552 H         1 UNK         0.0600 
    229 H229       -2.9935  -16.4501  -50.1371 H         1 UNK         0.0600 
    230 H230       -4.7846  -16.7615  -52.5446 H         1 UNK         0.3000 
    231 H231       -3.4086  -15.2116  -54.5561 H         1 UNK         0.0600 
    232 H232       -5.4607  -14.3923  -53.4224 H         1 UNK         0.0600 
    233 H233       -6.3954  -15.7319  -54.0896 H         1 UNK         0.0600 
    234 H234       -5.7260  -14.5019  -55.1549 H         1 UNK         0.0600 
    235 H235       -4.9314  -18.3898  -54.5278 H         1 UNK         0.3000 
    236 H236       -5.0130  -18.5988  -57.4845 H         1 UNK         0.0600 
    237 H237       -6.1412  -20.7534  -57.0166 H         1 UNK         0.0600 
    238 H238       -5.8959  -20.5473  -55.2883 H         1 UNK         0.0600 
    239 H239       -6.9558  -19.4467  -56.1694 H         1 UNK         0.0600 
    240 H240       -3.2422  -19.7096  -54.6619 H         1 UNK         0.3000 
    241 H241       -1.3123  -20.6290  -54.2975 H         1 UNK         0.0600 
    242 H242       -1.1232  -24.2206  -54.9636 H         1 UNK         0.3800 
    243 H243        0.0042  -22.9127  -54.7775 H         1 UNK         0.3800 
    244 H244       -0.6858  -20.7735  -57.2953 H         1 UNK         0.0800 
    245 H245        0.4415  -21.1242  -56.0310 H         1 UNK         0.0800 
    246 H246        2.2483  -17.9534  -55.6581 H         1 UNK         0.0800 
    247 H247        2.2137  -19.6914  -55.5919 H         1 UNK         0.0800 
@<TRIPOS>BOND
     1    1    2 1    
     2    1  127 1    
     3    1  128 1    
     4    1  129 1    
     5    2    3 2    
     6    2    4 am   BACKBONE|DICT|INTERRES
     7    4    5 1    
     8    4  130 1    
     9    5    6 1    
    10    5   65 1    
    11    5  131 1    
    12    6    7 1    
    13    6  132 1    
    14    6  133 1    
    15    7    8 1    
    16    8    9 1    
    17    8  134 1    
    18    8  135 1    
    19    9   10 ar   
    20    9   14 ar   
    21   10   11 ar   
    22   10  136 1    
    23   11   12 ar   
    24   11  126 1    
    25   12   13 ar   
    26   12  137 1    
    27   13   14 ar   
    28   13   15 1    
    29   14  138 1    
    30   15   16 1    
    31   15  139 1    
    32   15  140 1    
    33   16   17 1    
    34   17   18 1    
    35   17  141 1    
    36   17  142 1    
    37   18   19 1    
    38   18   67 1    
    39   18  143 1    
    40   19   20 am   BACKBONE|DICT|INTERRES
    41   19  144 1    
    42   20   21 2    
    43   20   22 1    
    44   22   23 1    
    45   22   24 1    
    46   22  145 1    
    47   23  146 1    
    48   23  147 1    
    49   23  148 1    
    50   24   25 am   BACKBONE|DICT|INTERRES
    51   24  149 1    
    52   25   26 2    
    53   25   27 1    
    54   27   28 1    
    55   27   29 1    
    56   27  150 1    
    57   28  151 1    
    58   28  152 1    
    59   28  153 1    
    60   29   30 am   BACKBONE|DICT|INTERRES
    61   29  154 1    
    62   30   31 2    
    63   30   32 1    
    64   32   33 1    
    65   32   34 1    
    66   32  155 1    
    67   33  156 1    
    68   33  157 1    
    69   33  158 1    
    70   34   35 am   BACKBONE|DICT|INTERRES
    71   34  159 1    
    72   35   36 2    
    73   35   37 1    
    74   37   38 1    
    75   37   39 1    
    76   37  160 1    
    77   38  161 1    
    78   38  162 1    
    79   38  163 1    
    80   39   40 am   BACKBONE|DICT|INTERRES
    81   39  164 1    
    82   40   41 2    
    83   40   42 1    
    84   42   43 1    
    85   42   44 1    
    86   42  165 1    
    87   43  166 1    
    88   43  167 1    
    89   43  168 1    
    90   44   45 am   BACKBONE|DICT|INTERRES
    91   44  169 1    
    92   45   46 2    
    93   45   47 1    
    94   47   48 1    
    95   47   49 1    
    96   47  170 1    
    97   48  171 1    
    98   48  172 1    
    99   48  173 1    
   100   49   50 am   BACKBONE|DICT|INTERRES
   101   49  174 1    
   102   50   51 2    
   103   50   52 1    
   104   52   53 1    
   105   52   54 1    
   106   52  175 1    
   107   53  176 1    
   108   53  177 1    
   109   53  178 1    
   110   54   55 am   BACKBONE|DICT|INTERRES
   111   54  179 1    
   112   55   56 2    
   113   55   57 1    
   114   57   58 1    
   115   57   59 1    
   116   57  180 1    
   117   58  181 1    
   118   58  182 1    
   119   58  183 1    
   120   59   60 am   BACKBONE|DICT|INTERRES
   121   59  184 1    
   122   60   61 2    
   123   60   62 1    
   124   62   63 1    
   125   62   64 1    
   126   62  185 1    
   127   63  186 1    
   128   63  187 1    
   129   63  188 1    
   130   64   65 am   BACKBONE|DICT|INTERRES
   131   64  189 1    
   132   65   66 2    
   133   67   68 2    
   134   67   69 am   BACKBONE|DICT|INTERRES
   135   69   70 1    
   136   69  190 1    
   137   70   71 1    
   138   70   72 1    
   139   70  191 1    
   140   71  192 1    
   141   71  193 1    
   142   71  194 1    
   143   72   73 2    
   144   72   74 am   BACKBONE|DICT|INTERRES
   145   74   75 1    
   146   74  195 1    
   147   75   76 1    
   148   75   77 1    
   149   75  196 1    
   150   76  197 1    
   151   76  198 1    
   152   76  199 1    
   153   77   78 2    
   154   77   79 am   BACKBONE|DICT|INTERRES
   155   79   80 1    
   156   79  200 1    
   157   80   81 1    
   158   80   82 1    
   159   80  201 1    
   160   81  202 1    
   161   81  203 1    
   162   81  204 1    
   163   82   83 2    
   164   82   84 am   BACKBONE|DICT|INTERRES
   165   84   85 1    
   166   84  205 1    
   167   85   86 1    
   168   85   87 1    
   169   85  206 1    
   170   86  207 1    
   171   86  208 1    
   172   86  209 1    
   173   87   88 2    
   174   87   89 am   BACKBONE|DICT|INTERRES
   175   89   90 1    
   176   89  210 1    
   177   90   91 1    
   178   90   92 1    
   179   90  211 1    
   180   91  212 1    
   181   91  213 1    
   182   91  214 1    
   183   92   93 2    
   184   92   94 am   BACKBONE|DICT|INTERRES
   185   94   95 1    
   186   94  215 1    
   187   95   96 1    
   188   95   97 1    
   189   95  216 1    
   190   96  217 1    
   191   96  218 1    
   192   96  219 1    
   193   97   98 2    
   194   97   99 am   BACKBONE|DICT|INTERRES
   195   99  100 1    
   196   99  220 1    
   197  100  101 1    
   198  100  102 1    
   199  100  221 1    
   200  101  222 1    
   201  101  223 1    
   202  101  224 1    
   203  102  103 2    
   204  102  104 am   BACKBONE|DICT|INTERRES
   205  104  105 1    
   206  104  225 1    
   207  105  106 1    
   208  105  107 1    
   209  105  226 1    
   210  106  227 1    
   211  106  228 1    
   212  106  229 1    
   213  107  108 2    
   214  107  109 am   BACKBONE|DICT|INTERRES
   215  109  110 1    
   216  109  230 1    
   217  110  111 1    
   218  110  112 1    
   219  110  231 1    
   220  111  232 1    
   221  111  233 1    
   222  111  234 1    
   223  112  113 2    
   224  112  114 am   BACKBONE|DICT|INTERRES
   225  114  115 1    
   226  114  235 1    
   227  115  116 1    
   228  115  117 1    
   229  115  236 1    
   230  116  237 1    
   231  116  238 1    
   232  116  239 1    
   233  117  118 2    
   234  117  119 am   BACKBONE|DICT|INTERRES
   235  119  120 1    
   236  119  240 1    
   237  120  121 1    
   238  120  124 1    
   239  120  241 1    
   240  121  122 am   BACKBONE|DICT|INTERRES
   241  121  123 2    
   242  122  242 1    
   243  122  243 1    
   244  124  125 1    
   245  124  244 1    
   246  124  245 1    
   247  125  126 1    
   248  126  246 1    
   249  126  247 1    
@<TRIPOS>SUBSTRUCTURE
     1 UNK         1 GROUP             0       ****    0 ROOT    
