@<TRIPOS>MOLECULE
3R540
247   249    1
SMALL
USER_CHARGES


@<TRIPOS>ATOM
      1 CA          3.4322  -12.9528  -48.6363 C.3       0 UNK        -0.1800 
      2 C           2.8723  -14.3161  -48.2348 C.2       0 UNK         0.5000 
      3 O           3.4645  -15.3248  -48.6097 O.2       0 UNK        -0.5000 
      4 N           1.7623  -14.4276  -47.4873 N.am      1 UNK        -0.5000 
      5 CA          0.8584  -13.3871  -46.9668 C.3       1 UNK         0.1400 
      6 C6         -0.0697  -12.7572  -48.0407 C.3       23 UNK        -0.0398 
      7 S7         -1.1613  -14.0088  -48.7878 S.3       23 UNK        -0.2404 
      8 C8         -0.3879  -14.2740  -50.4118 C.3       23 UNK        -0.0205 
      9 C9         -0.5066  -15.7275  -50.8419 C.ar      23 UNK        -0.0193 
     10 C10        -1.7194  -16.2264  -51.3287 C.ar      23 UNK        -0.1150 
     11 C11        -1.8247  -17.5618  -51.7286 C.ar      23 UNK        -0.0193 
     12 C12        -0.7042  -18.3917  -51.6533 C.ar      23 UNK        -0.1150 
     13 C13         0.5119  -17.9079  -51.1669 C.ar      23 UNK        -0.0193 
     14 C14         0.6024  -16.5747  -50.7580 C.ar      23 UNK        -0.1150 
     15 C15         1.7325  -18.8170  -51.0990 C.3       23 UNK        -0.0205 
     16 S16         1.4576  -20.3141  -50.0956 S.3       23 UNK        -0.2404 
     17 C17         1.1081  -19.5992  -48.4540 C.3       23 UNK        -0.0398 
     18 CA         -0.1041  -20.2601  -47.7562 C.3       11 UNK         0.1400 
     19 N          -0.0803  -19.9972  -46.3160 N.am      11 UNK        -0.5000 
     20 C          -0.8815  -20.5797  -45.4119 C.2       10 UNK         0.5000 
     21 O          -1.7035  -21.4483  -45.6958 O.2       10 UNK        -0.5000 
     22 CA         -0.7822  -20.0834  -43.9570 C.3       10 UNK         0.1400 
     23 CB          0.0842  -21.0489  -43.1353 C.3       10 UNK        -0.1800 
     24 N          -0.2584  -18.7165  -43.8583 N.am      10 UNK        -0.5000 
     25 C          -0.9033  -17.6348  -44.3268 C.2       9 UNK         0.5000 
     26 O          -2.0271  -17.6930  -44.8285 O.2       9 UNK        -0.5000 
     27 CA         -0.1683  -16.2771  -44.3123 C.3       9 UNK         0.1400 
     28 CB         -0.7507  -15.3318  -43.2547 C.3       9 UNK        -0.1800 
     29 N           1.2802  -16.3806  -44.1240 N.am      9 UNK        -0.5000 
     30 C           2.1237  -16.9137  -45.0185 C.2       8 UNK         0.5000 
     31 O           1.7683  -17.2758  -46.1405 O.2       8 UNK        -0.5000 
     32 CA          3.5862  -17.1236  -44.5751 C.3       8 UNK         0.1400 
     33 CB          4.4937  -16.0029  -45.1003 C.3       8 UNK        -0.1800 
     34 N           3.7572  -17.2456  -43.1226 N.am      8 UNK        -0.5000 
     35 C           3.2513  -18.2415  -42.3813 C.2       7 UNK         0.5000 
     36 O           2.5425  -19.1259  -42.8610 O.2       7 UNK        -0.5000 
     37 CA          3.5800  -18.2671  -40.8747 C.3       7 UNK         0.1400 
     38 CB          4.1607  -16.9432  -40.3425 C.3       7 UNK        -0.1800 
     39 N           2.3804  -18.6046  -40.1085 N.am      7 UNK        -0.5000 
     40 C           2.0358  -19.8402  -39.7159 C.2       6 UNK         0.5000 
     41 O           2.7302  -20.8360  -39.9256 O.2       6 UNK        -0.5000 
     42 CA          0.7151  -20.0105  -38.9334 C.3       6 UNK         0.1400 
     43 CB          0.9988  -20.4805  -37.4969 C.3       6 UNK        -0.1800 
     44 N          -0.0749  -18.7812  -38.8637 N.am      6 UNK        -0.5000 
     45 C          -1.0234  -18.4168  -39.7366 C.2       5 UNK         0.5000 
     46 O          -1.4000  -19.1189  -40.6731 O.2       5 UNK        -0.5000 
     47 CA         -1.6555  -17.0226  -39.5354 C.3       5 UNK         0.1400 
     48 CB         -3.0057  -17.1481  -38.8135 C.3       5 UNK        -0.1800 
     49 N          -0.8088  -16.0740  -38.8000 N.am      5 UNK        -0.5000 
     50 C           0.4048  -15.6603  -39.1883 C.2       4 UNK         0.5000 
     51 O           0.9589  -16.0548  -40.2155 O.2       4 UNK        -0.5000 
     52 CA          1.1493  -14.7304  -38.2130 C.3       4 UNK         0.1400 
     53 CB          1.7360  -15.5499  -37.0516 C.3       4 UNK        -0.1800 
     54 N           2.2411  -13.9965  -38.8521 N.am      4 UNK        -0.5000 
     55 C           2.0944  -13.0131  -39.7482 C.2       3 UNK         0.5000 
     56 O           0.9973  -12.5811  -40.1113 O.2       3 UNK        -0.5000 
     57 CA          3.3856  -12.3508  -40.2824 C.3       3 UNK         0.1400 
     58 CB          4.6777  -13.1679  -40.0547 C.3       3 UNK        -0.1800 
     59 N           3.2807  -11.9461  -41.6864 N.am      3 UNK        -0.5000 
     60 C           3.0460  -12.7353  -42.7429 C.2       2 UNK         0.5000 
     61 O           2.8869  -13.9589  -42.6894 O.2       2 UNK        -0.5000 
     62 CA          3.0195  -12.0215  -44.1007 C.3       2 UNK         0.1400 
     63 CB          4.4444  -11.7748  -44.6285 C.3       2 UNK        -0.1800 
     64 N           2.2753  -12.8292  -45.0587 N.am      2 UNK        -0.5000 
     65 C           1.5878  -12.3446  -46.0972 C.2       1 UNK         0.5000 
     66 O           1.5406  -11.1483  -46.3883 O.2       1 UNK        -0.5000 
     67 C          -1.4519  -19.8537  -48.3967 C.2       11 UNK         0.5000 
     68 O          -1.9480  -20.5640  -49.2739 O.2       11 UNK        -0.5000 
     69 N          -2.0518  -18.7581  -47.9062 N.am      12 UNK        -0.5000 
     70 CA         -3.3814  -18.3062  -48.3120 C.3       12 UNK         0.1400 
     71 CB         -3.5905  -16.8456  -47.8976 C.3       12 UNK        -0.1800 
     72 C          -4.4931  -19.1988  -47.7423 C.2       12 UNK         0.5000 
     73 O          -5.4342  -19.5206  -48.4666 O.2       12 UNK        -0.5000 
     74 N          -4.3458  -19.6216  -46.4778 N.am      13 UNK        -0.5000 
     75 CA         -5.2623  -20.5451  -45.8005 C.3       13 UNK         0.1400 
     76 CB         -4.8933  -20.6378  -44.3121 C.3       13 UNK        -0.1800 
     77 C          -5.2834  -21.9423  -46.4519 C.2       13 UNK         0.5000 
     78 O          -6.3503  -22.5433  -46.5785 O.2       13 UNK        -0.5000 
     79 N          -4.1084  -22.4061  -46.8966 N.am      14 UNK        -0.5000 
     80 CA         -3.9148  -23.6328  -47.6696 C.3       14 UNK         0.1400 
     81 CB         -2.4430  -24.0592  -47.5452 C.3       14 UNK        -0.1800 
     82 C          -4.3028  -23.4921  -49.1561 C.2       14 UNK         0.5000 
     83 O          -4.2820  -24.4942  -49.8707 O.2       14 UNK        -0.5000 
     84 N          -4.6075  -22.2666  -49.6101 N.am      15 UNK        -0.5000 
     85 CA         -4.9662  -21.8863  -50.9797 C.3       15 UNK         0.1400 
     86 CB         -6.3593  -22.4416  -51.3393 C.3       15 UNK        -0.1800 
     87 C          -3.8771  -22.2744  -52.0007 C.2       15 UNK         0.5000 
     88 O          -4.1799  -22.9037  -53.0152 O.2       15 UNK        -0.5000 
     89 N          -2.6218  -21.9271  -51.6745 N.am      16 UNK        -0.5000 
     90 CA         -1.3931  -22.2647  -52.4042 C.3       16 UNK         0.1400 
     91 CB         -1.3949  -21.6400  -53.8172 C.3       16 UNK        -0.1800 
     92 C          -1.1206  -23.7830  -52.4272 C.2       16 UNK         0.5000 
     93 O          -0.6586  -24.3101  -53.4379 O.2       16 UNK        -0.5000 
     94 N          -1.4541  -24.4690  -51.3224 N.am      17 UNK        -0.5000 
     95 CA         -1.4802  -25.9321  -51.1763 C.3       17 UNK         0.1400 
     96 CB         -0.0559  -26.5229  -51.2238 C.3       17 UNK        -0.1800 
     97 C          -2.4515  -26.5861  -52.1844 C.2       17 UNK         0.5000 
     98 O          -2.1322  -27.6047  -52.7992 O.2       17 UNK        -0.5000 
     99 N          -3.6111  -25.9358  -52.3497 N.am      18 UNK        -0.5000 
    100 CA        -4.7074  -26.2178  -53.2771 C.3       18 UNK         0.1400 
    101 CB        -5.3395  -27.5916  -52.9757 C.3       18 UNK        -0.1800 
    102 C         -4.3677  -26.0511  -54.7751 C.2       18 UNK         0.5000 
    103 O         -5.2211  -26.3722  -55.6041 O.2       18 UNK        -0.5000 
    104 N         -3.1743  -25.5404  -55.1220 N.am      19 UNK        -0.5000 
    105 CA        -2.7180  -25.3254  -56.4994 C.3       19 UNK         0.1400 
    106 CB        -1.2338  -24.9288  -56.5039 C.3       19 UNK        -0.1800 
    107 C         -3.5820  -24.2723  -57.2153 C.2       19 UNK         0.5000 
    108 O         -3.4360  -23.0756  -56.9553 O.2       19 UNK        -0.5000 
    109 N         -4.5278  -24.7565  -58.0355 N.am      20 UNK        -0.5000 
    110 CA        -5.5885  -24.0040  -58.7206 C.3       20 UNK         0.1400 
    111 CB        -4.9832  -23.1143  -59.8261 C.3       20 UNK        -0.1800 
    112 C         -6.4960  -23.2031  -57.7578 C.2       20 UNK         0.5000 
    113 O         -7.0982  -22.2106  -58.1704 O.2       20 UNK        -0.5000 
    114 N         -6.5285  -23.6110  -56.4782 N.am      21 UNK        -0.5000 
    115 CA        -7.1148  -22.9051  -55.3325 C.3       21 UNK         0.1400 
    116 CB        -8.6518  -23.0177  -55.3684 C.3       21 UNK        -0.1800 
    117 C         -6.6204  -21.4441  -55.1918 C.2       21 UNK         0.5000 
    118 O         -7.3894  -20.5722  -54.7836 O.2       21 UNK        -0.5000 
    119 N         -5.3524  -21.2014  -55.5549 N.am      22 UNK        -0.5000 
    120 CA        -4.7122  -19.8797  -55.6592 C.3       22 UNK         0.1400 
    121 C         -5.1699  -19.0311  -56.8892 C.2       22 UNK         0.5000 
    122 N         -5.9426  -19.5623  -57.8297 N.am      22 UNK        -0.7600 
    123 O         -4.7977  -17.8683  -57.0182 O.2       22 UNK        -0.5000 
    124 C124       -4.7493  -19.0798  -54.3225 C.3       23 UNK        -0.0398 
    125 S125       -3.2381  -18.0965  -54.0380 S.3       23 UNK        -0.2404 
    126 C126       -3.1462  -18.1237  -52.2239 C.3       23 UNK        -0.0205 
    127 H127        4.0464  -12.5485  -47.8319 H         1 UNK         0.0600 
    128 H128        2.6576  -12.2300  -48.8776 H         1 UNK         0.0600 
    129 H129        4.0648  -13.0522  -49.5185 H         1 UNK         0.0600 
    130 H130        1.4827  -15.3714  -47.2501 H         1 UNK         0.3000 
    131 H131        0.2001  -13.9000  -46.2670 H         1 UNK         0.0600 
    132 H132        0.4836  -12.2291  -48.8152 H         1 UNK         0.0800 
    133 H133       -0.7194  -12.0095  -47.5825 H         1 UNK         0.0800 
    134 H134        0.6625  -13.9818  -50.3819 H         1 UNK         0.0800 
    135 H135       -0.8656  -13.6271  -51.1488 H         1 UNK         0.0800 
    136 H136       -2.5812  -15.5765  -51.3868 H         1 UNK         0.1150 
    137 H137       -0.7803  -19.4229  -51.9608 H         1 UNK         0.1150 
    138 H138        1.5404  -16.1932  -50.3798 H         1 UNK         0.1150 
    139 H139        2.0013  -19.1181  -52.1123 H         1 UNK         0.0800 
    140 H140        2.5944  -18.2804  -50.6988 H         1 UNK         0.0800 
    141 H141        0.9761  -18.5180  -48.5185 H         1 UNK         0.0800 
    142 H142        2.0071  -19.7473  -47.8538 H         1 UNK         0.0800 
    143 H143       -0.0103  -21.3420  -47.8729 H         1 UNK         0.0600 
    144 H144        0.5572  -19.2771  -46.0020 H         1 UNK         0.3000 
    145 H145       -1.7869  -20.0840  -43.5301 H         1 UNK         0.0600 
    146 H146        0.2154  -20.6976  -42.1129 H         1 UNK         0.0600 
    147 H147       -0.3789  -22.0349  -43.0833 H         1 UNK         0.0600 
    148 H148        1.0735  -21.1779  -43.5753 H         1 UNK         0.0600 
    149 H149        0.6747  -18.6217  -43.4708 H         1 UNK         0.3000 
    150 H150       -0.3487  -15.8329  -45.2912 H         1 UNK         0.0600 
    151 H151       -1.8254  -15.2037  -43.3894 H         1 UNK         0.0600 
    152 H152       -0.2931  -14.3438  -43.3117 H         1 UNK         0.0600 
    153 H153       -0.5882  -15.7156  -42.2503 H         1 UNK         0.0600 
    154 H154        1.6474  -16.0911  -43.2256 H         1 UNK         0.3000 
    155 H155        3.9214  -18.0611  -45.0237 H         1 UNK         0.0600 
    156 H156        5.5346  -16.1766  -44.8274 H         1 UNK         0.0600 
    157 H157        4.4530  -15.9483  -46.1876 H         1 UNK         0.0600 
    158 H158        4.2038  -15.0291  -44.7104 H         1 UNK         0.0600 
    159 H159        4.2886  -16.5175  -42.6672 H         1 UNK         0.3000 
    160 H160        4.3388  -19.0383  -40.7300 H         1 UNK         0.0600 
    161 H161        3.5047  -16.1014  -40.5604 H         1 UNK         0.0600 
    162 H162        5.1353  -16.7314  -40.7836 H         1 UNK         0.0600 
    163 H163        4.3024  -16.9826  -39.2624 H         1 UNK         0.0600 
    164 H164        1.7230  -17.8428  -39.9784 H         1 UNK         0.3000 
    165 H165        0.1375  -20.7887  -39.4366 H         1 UNK         0.0600 
    166 H166        0.0726  -20.6469  -36.9466 H         1 UNK         0.0600 
    167 H167        1.5497  -21.4219  -37.4927 H         1 UNK         0.0600 
    168 H168        1.5918  -19.7505  -36.9443 H         1 UNK         0.0600 
    169 H169        0.1546  -18.1421  -38.1176 H         1 UNK         0.3000 
    170 H170       -1.8417  -16.6060  -40.5261 H         1 UNK         0.0600 
    171 H171       -3.6737  -17.8249  -39.3483 H         1 UNK         0.0600 
    172 H172       -2.8861  -17.5368  -37.8015 H         1 UNK         0.0600 
    173 H173       -3.5096  -16.1836  -38.7470 H         1 UNK         0.0600 
    174 H174       -1.1884  -15.7217  -37.9328 H         1 UNK         0.3000 
    175 H175        0.4366  -14.0065  -37.8126 H         1 UNK         0.0600 
    176 H176        2.4486  -16.2966  -37.4053 H         1 UNK         0.0600 
    177 H177        2.2512  -14.9079  -36.3368 H         1 UNK         0.0600 
    178 H178        0.9542  -16.0765  -36.5029 H         1 UNK         0.0600 
    179 H179        3.1757  -14.3015  -38.6267 H         1 UNK         0.3000 
    180 H180        3.4887  -11.4257  -39.7135 H         1 UNK         0.0600 
    181 H181        4.6627  -14.1130  -40.5944 H         1 UNK         0.0600 
    182 H182        4.8428  -13.3826  -38.9985 H         1 UNK         0.0600 
    183 H183        5.5497  -12.6124  -40.4002 H         1 UNK         0.0600 
    184 H184        3.3691  -10.9530  -41.8486 H         1 UNK         0.3000 
    185 H185        2.5133  -11.0631  -43.9643 H         1 UNK         0.0600 
    186 H186        4.4269  -11.2300  -45.5724 H         1 UNK         0.0600 
    187 H187        5.0280  -11.1809  -43.9242 H         1 UNK         0.0600 
    188 H188        4.9807  -12.7098  -44.7925 H         1 UNK         0.0600 
    189 H189        2.2433  -13.8154  -44.8365 H         1 UNK         0.3000 
    190 H190       -1.6110  -18.2503  -47.1525 H         1 UNK         0.3000 
    191 H191       -3.4436  -18.3567  -49.3995 H         1 UNK         0.0600 
    192 H192       -3.5101  -16.7081  -46.8193 H         1 UNK         0.0600 
    193 H193       -4.5748  -16.4890  -48.2033 H         1 UNK         0.0600 
    194 H194       -2.8537  -16.2057  -48.3761 H         1 UNK         0.0600 
    195 H195       -3.5451  -19.3008  -45.9506 H         1 UNK         0.3000 
    196 H196       -6.2686  -20.1278  -45.8753 H         1 UNK         0.0600 
    197 H197       -5.6184  -21.2465  -43.7708 H         1 UNK         0.0600 
    198 H198       -4.8807  -19.6532  -43.8440 H         1 UNK         0.0600 
    199 H199       -3.9140  -21.0926  -44.1651 H         1 UNK         0.0600 
    200 H200       -3.2656  -21.8856  -46.6658 H         1 UNK         0.3000 
    201 H201       -4.5385  -24.4195  -47.2407 H         1 UNK         0.0600 
    202 H202       -2.1573  -24.1865  -46.5009 H         1 UNK         0.0600 
    203 H203       -1.7724  -23.3205  -47.9863 H         1 UNK         0.0600 
    204 H204       -2.2639  -25.0111  -48.0453 H         1 UNK         0.0600 
    205 H205       -4.5897  -21.5036  -48.9460 H         1 UNK         0.3000 
    206 H206       -5.0302  -20.7976  -50.9921 H         1 UNK         0.0600 
    207 H207       -7.0993  -22.1593  -50.5905 H         1 UNK         0.0600 
    208 H208       -6.7014  -22.0446  -52.2941 H         1 UNK         0.0600 
    209 H209       -6.3577  -23.5295  -51.4150 H         1 UNK         0.0600 
    210 H210       -2.4745  -21.4333  -50.7943 H         1 UNK         0.3000 
    211 H211       -0.5716  -21.8185  -51.8435 H         1 UNK         0.0600 
    212 H212       -0.4198  -21.7496  -54.2925 H         1 UNK         0.0600 
    213 H213       -1.6196  -20.5758  -53.7842 H         1 UNK         0.0600 
    214 H214       -2.1285  -22.1124  -54.4715 H         1 UNK         0.0600 
    215 H215       -1.8603  -23.9489  -50.5587 H         1 UNK         0.3000 
    216 H216       -1.8881  -26.1384  -50.1863 H         1 UNK         0.0600 
    217 H217       -0.0687  -27.5872  -50.9862 H         1 UNK         0.0600 
    218 H218        0.5962  -26.0366  -50.4985 H         1 UNK         0.0600 
    219 H219        0.3986  -26.4155  -52.2089 H         1 UNK         0.0600 
    220 H220       -3.7671  -25.1284  -51.7546 H         1 UNK         0.3000 
    221 H221       -5.4632  -25.4604  -53.0653 H         1 UNK         0.0600 
    222 H222       -4.6662  -28.4116  -53.2262 H         1 UNK         0.0600 
    223 H223       -5.6022  -27.6817  -51.9216 H         1 UNK         0.0600 
    224 H224       -6.2558  -27.7369  -53.5490 H         1 UNK         0.0600 
    225 H225       -2.5374  -25.2526  -54.3900 H         1 UNK         0.3000 
    226 H226       -2.8058  -26.2751  -57.0312 H         1 UNK         0.0600 
    227 H227       -0.6234  -25.6721  -55.9907 H         1 UNK         0.0600 
    228 H228       -0.8580  -24.8453  -57.5242 H         1 UNK         0.0600 
    229 H229       -1.0702  -23.9665  -56.0181 H         1 UNK         0.0600 
    230 H230       -4.5995  -25.7617  -58.1188 H         1 UNK         0.3000 
    231 H231       -6.2317  -24.7429  -59.2002 H         1 UNK         0.0600 
    232 H232       -4.3452  -23.6934  -60.4936 H         1 UNK         0.0600 
    233 H233       -4.3848  -22.3031  -59.4097 H         1 UNK         0.0600 
    234 H234       -5.7642  -22.6623  -60.4386 H         1 UNK         0.0600 
    235 H235       -6.0118  -24.4534  -56.2531 H         1 UNK         0.3000 
    236 H236       -6.7637  -23.4283  -54.4419 H         1 UNK         0.0600 
    237 H237       -9.0968  -22.6086  -54.4606 H         1 UNK         0.0600 
    238 H238       -9.0753  -22.4764  -56.2151 H         1 UNK         0.0600 
    239 H239       -8.9688  -24.0579  -55.4426 H         1 UNK         0.0600 
    240 H240       -4.7872  -21.9742  -55.8933 H         1 UNK         0.3000 
    241 H241       -3.6705  -20.1246  -55.8697 H         1 UNK         0.0600 
    242 H242       -6.2132  -18.9935  -58.6158 H         1 UNK         0.3800 
    243 H243       -6.2836  -20.5169  -57.7695 H         1 UNK         0.3800 
    244 H244       -5.6219  -18.4261  -54.2738 H         1 UNK         0.0800 
    245 H245       -4.8545  -19.7714  -53.4868 H         1 UNK         0.0800 
    246 H246       -3.2552  -19.1466  -51.8635 H         1 UNK         0.0800 
    247 H247       -3.9821  -17.5573  -51.8105 H         1 UNK         0.0800 
@<TRIPOS>BOND
     1    1    2 1    
     2    1  127 1    
     3    1  128 1    
     4    1  129 1    
     5    2    3 2    
     6    2    4 am   BACKBONE|DICT|INTERRES
     7    4    5 1    
     8    4  130 1    
     9    5    6 1    
    10    5   65 1    
    11    5  131 1    
    12    6    7 1    
    13    6  132 1    
    14    6  133 1    
    15    7    8 1    
    16    8    9 1    
    17    8  134 1    
    18    8  135 1    
    19    9   10 ar   
    20    9   14 ar   
    21   10   11 ar   
    22   10  136 1    
    23   11   12 ar   
    24   11  126 1    
    25   12   13 ar   
    26   12  137 1    
    27   13   14 ar   
    28   13   15 1    
    29   14  138 1    
    30   15   16 1    
    31   15  139 1    
    32   15  140 1    
    33   16   17 1    
    34   17   18 1    
    35   17  141 1    
    36   17  142 1    
    37   18   19 1    
    38   18   67 1    
    39   18  143 1    
    40   19   20 am   BACKBONE|DICT|INTERRES
    41   19  144 1    
    42   20   21 2    
    43   20   22 1    
    44   22   23 1    
    45   22   24 1    
    46   22  145 1    
    47   23  146 1    
    48   23  147 1    
    49   23  148 1    
    50   24   25 am   BACKBONE|DICT|INTERRES
    51   24  149 1    
    52   25   26 2    
    53   25   27 1    
    54   27   28 1    
    55   27   29 1    
    56   27  150 1    
    57   28  151 1    
    58   28  152 1    
    59   28  153 1    
    60   29   30 am   BACKBONE|DICT|INTERRES
    61   29  154 1    
    62   30   31 2    
    63   30   32 1    
    64   32   33 1    
    65   32   34 1    
    66   32  155 1    
    67   33  156 1    
    68   33  157 1    
    69   33  158 1    
    70   34   35 am   BACKBONE|DICT|INTERRES
    71   34  159 1    
    72   35   36 2    
    73   35   37 1    
    74   37   38 1    
    75   37   39 1    
    76   37  160 1    
    77   38  161 1    
    78   38  162 1    
    79   38  163 1    
    80   39   40 am   BACKBONE|DICT|INTERRES
    81   39  164 1    
    82   40   41 2    
    83   40   42 1    
    84   42   43 1    
    85   42   44 1    
    86   42  165 1    
    87   43  166 1    
    88   43  167 1    
    89   43  168 1    
    90   44   45 am   BACKBONE|DICT|INTERRES
    91   44  169 1    
    92   45   46 2    
    93   45   47 1    
    94   47   48 1    
    95   47   49 1    
    96   47  170 1    
    97   48  171 1    
    98   48  172 1    
    99   48  173 1    
   100   49   50 am   BACKBONE|DICT|INTERRES
   101   49  174 1    
   102   50   51 2    
   103   50   52 1    
   104   52   53 1    
   105   52   54 1    
   106   52  175 1    
   107   53  176 1    
   108   53  177 1    
   109   53  178 1    
   110   54   55 am   BACKBONE|DICT|INTERRES
   111   54  179 1    
   112   55   56 2    
   113   55   57 1    
   114   57   58 1    
   115   57   59 1    
   116   57  180 1    
   117   58  181 1    
   118   58  182 1    
   119   58  183 1    
   120   59   60 am   BACKBONE|DICT|INTERRES
   121   59  184 1    
   122   60   61 2    
   123   60   62 1    
   124   62   63 1    
   125   62   64 1    
   126   62  185 1    
   127   63  186 1    
   128   63  187 1    
   129   63  188 1    
   130   64   65 am   BACKBONE|DICT|INTERRES
   131   64  189 1    
   132   65   66 2    
   133   67   68 2    
   134   67   69 am   BACKBONE|DICT|INTERRES
   135   69   70 1    
   136   69  190 1    
   137   70   71 1    
   138   70   72 1    
   139   70  191 1    
   140   71  192 1    
   141   71  193 1    
   142   71  194 1    
   143   72   73 2    
   144   72   74 am   BACKBONE|DICT|INTERRES
   145   74   75 1    
   146   74  195 1    
   147   75   76 1    
   148   75   77 1    
   149   75  196 1    
   150   76  197 1    
   151   76  198 1    
   152   76  199 1    
   153   77   78 2    
   154   77   79 am   BACKBONE|DICT|INTERRES
   155   79   80 1    
   156   79  200 1    
   157   80   81 1    
   158   80   82 1    
   159   80  201 1    
   160   81  202 1    
   161   81  203 1    
   162   81  204 1    
   163   82   83 2    
   164   82   84 am   BACKBONE|DICT|INTERRES
   165   84   85 1    
   166   84  205 1    
   167   85   86 1    
   168   85   87 1    
   169   85  206 1    
   170   86  207 1    
   171   86  208 1    
   172   86  209 1    
   173   87   88 2    
   174   87   89 am   BACKBONE|DICT|INTERRES
   175   89   90 1    
   176   89  210 1    
   177   90   91 1    
   178   90   92 1    
   179   90  211 1    
   180   91  212 1    
   181   91  213 1    
   182   91  214 1    
   183   92   93 2    
   184   92   94 am   BACKBONE|DICT|INTERRES
   185   94   95 1    
   186   94  215 1    
   187   95   96 1    
   188   95   97 1    
   189   95  216 1    
   190   96  217 1    
   191   96  218 1    
   192   96  219 1    
   193   97   98 2    
   194   97   99 am   BACKBONE|DICT|INTERRES
   195   99  100 1    
   196   99  220 1    
   197  100  101 1    
   198  100  102 1    
   199  100  221 1    
   200  101  222 1    
   201  101  223 1    
   202  101  224 1    
   203  102  103 2    
   204  102  104 am   BACKBONE|DICT|INTERRES
   205  104  105 1    
   206  104  225 1    
   207  105  106 1    
   208  105  107 1    
   209  105  226 1    
   210  106  227 1    
   211  106  228 1    
   212  106  229 1    
   213  107  108 2    
   214  107  109 am   BACKBONE|DICT|INTERRES
   215  109  110 1    
   216  109  230 1    
   217  110  111 1    
   218  110  112 1    
   219  110  231 1    
   220  111  232 1    
   221  111  233 1    
   222  111  234 1    
   223  112  113 2    
   224  112  114 am   BACKBONE|DICT|INTERRES
   225  114  115 1    
   226  114  235 1    
   227  115  116 1    
   228  115  117 1    
   229  115  236 1    
   230  116  237 1    
   231  116  238 1    
   232  116  239 1    
   233  117  118 2    
   234  117  119 am   BACKBONE|DICT|INTERRES
   235  119  120 1    
   236  119  240 1    
   237  120  121 1    
   238  120  124 1    
   239  120  241 1    
   240  121  122 am   BACKBONE|DICT|INTERRES
   241  121  123 2    
   242  122  242 1    
   243  122  243 1    
   244  124  125 1    
   245  124  244 1    
   246  124  245 1    
   247  125  126 1    
   248  126  246 1    
   249  126  247 1    
@<TRIPOS>SUBSTRUCTURE
     1 UNK         1 GROUP             0       ****    0 ROOT    
