@<TRIPOS>MOLECULE
3R540
247   249    1
SMALL
USER_CHARGES


@<TRIPOS>ATOM
      1 CA         -2.8202  -15.4418  -45.9432 C.3       0 UNK        -0.1800 
      2 C          -3.2743  -14.0823  -46.4434 C.2       0 UNK         0.5000 
      3 O          -3.6710  -13.2374  -45.6418 O.2       0 UNK        -0.5000 
      4 N          -3.1907  -13.8499  -47.7584 N.am      1 UNK        -0.5000 
      5 CA         -3.5521  -12.5873  -48.4205 C.3       1 UNK         0.1400 
      6 C6         -4.1102  -12.8067  -49.8510 C.3       23 UNK        -0.0398 
      7 S7         -5.5342  -13.9512  -49.8959 S.3       23 UNK        -0.2404 
      8 C8         -4.9168  -15.2868  -50.9690 C.3       23 UNK        -0.0205 
      9 C9         -3.8761  -16.1549  -50.2772 C.ar      23 UNK        -0.0193 
     10 C10        -2.5122  -15.9144  -50.4720 C.ar      23 UNK        -0.1150 
     11 C11        -1.5549  -16.7305  -49.8652 C.ar      23 UNK        -0.0193 
     12 C12        -1.9705  -17.8022  -49.0719 C.ar      23 UNK        -0.1150 
     13 C13        -3.3292  -18.0534  -48.8666 C.ar      23 UNK        -0.0193 
     14 C14        -4.2783  -17.2192  -49.4639 C.ar      23 UNK        -0.1150 
     15 C15        -3.7562  -19.2441  -48.0231 C.3       23 UNK        -0.0205 
     16 S16        -3.5070  -18.9258  -46.2504 S.3       23 UNK        -0.2404 
     17 C17        -3.8364  -20.5536  -45.4936 C.3       23 UNK        -0.0398 
     18 CA         -2.9543  -21.7146  -46.0212 C.3       11 UNK         0.1400 
     19 N          -1.5258  -21.3797  -46.0650 N.am      11 UNK        -0.5000 
     20 C          -0.6055  -22.0509  -46.7718 C.2       10 UNK         0.5000 
     21 O          -0.8762  -23.0274  -47.4686 O.2       10 UNK        -0.5000 
     22 CA          0.8645  -21.6075  -46.6332 C.3       10 UNK         0.1400 
     23 CB          1.2760  -20.6932  -47.7963 C.3       10 UNK        -0.1800 
     24 N           1.1526  -20.9488  -45.3563 N.am      10 UNK        -0.5000 
     25 C           1.0997  -21.5623  -44.1645 C.2       9 UNK         0.5000 
     26 O           0.8193  -22.7528  -44.0297 O.2       9 UNK        -0.5000 
     27 CA          1.3587  -20.7048  -42.9118 C.3       9 UNK         0.1400 
     28 CB          2.8569  -20.6771  -42.5769 C.3       9 UNK        -0.1800 
     29 N           0.8605  -19.3351  -43.0387 N.am      9 UNK        -0.5000 
     30 C          -0.4301  -19.0003  -43.1789 C.2       8 UNK         0.5000 
     31 O          -1.3522  -19.8158  -43.1692 O.2       8 UNK        -0.5000 
     32 CA         -0.7357  -17.5097  -43.4156 C.3       8 UNK         0.1400 
     33 CB         -0.8128  -16.7424  -42.0876 C.3       8 UNK        -0.1800 
     34 N           0.2442  -16.8674  -44.2933 N.am      8 UNK        -0.5000 
     35 C           0.4189  -17.1839  -45.5842 C.2       7 UNK         0.5000 
     36 O          -0.2385  -18.0353  -46.1764 O.2       7 UNK        -0.5000 
     37 CA          1.5587  -16.4658  -46.3205 C.3       7 UNK         0.1400 
     38 CB          1.1402  -15.0463  -46.7358 C.3       7 UNK        -0.1800 
     39 N           2.7740  -16.4206  -45.5084 N.am      7 UNK        -0.5000 
     40 C           3.5250  -17.4992  -45.2352 C.2       6 UNK         0.5000 
     41 O           3.2940  -18.6220  -45.6834 O.2       6 UNK        -0.5000 
     42 CA          4.7137  -17.3040  -44.2747 C.3       6 UNK         0.1400 
     43 CB          5.9792  -16.9235  -45.0572 C.3       6 UNK        -0.1800 
     44 N           4.4657  -16.2950  -43.2448 N.am      6 UNK        -0.5000 
     45 C           3.5153  -16.3717  -42.3021 C.2       5 UNK         0.5000 
     46 O           2.7598  -17.3337  -42.1710 O.2       5 UNK        -0.5000 
     47 CA          3.3494  -15.1441  -41.3861 C.3       5 UNK         0.1400 
     48 CB          4.1699  -15.3176  -40.0997 C.3       5 UNK        -0.1800 
     49 N           3.7272  -13.8851  -42.0372 N.am      5 UNK        -0.5000 
     50 C           3.0940  -13.3618  -43.0952 C.2       4 UNK         0.5000 
     51 O           2.1198  -13.8889  -43.6364 O.2       4 UNK        -0.5000 
     52 CA          3.6989  -12.0794  -43.6925 C.3       4 UNK         0.1400 
     53 CB          4.4974  -12.4152  -44.9623 C.3       4 UNK        -0.1800 
     54 N           2.6741  -11.0926  -44.0253 N.am      4 UNK        -0.5000 
     55 C           1.9240  -10.4314  -43.1332 C.2       3 UNK         0.5000 
     56 O           2.0461  -10.5580  -41.9138 O.2       3 UNK        -0.5000 
     57 CA          0.8789   -9.4401  -43.6865 C.3       3 UNK         0.1400 
     58 CB          1.3686   -7.9935  -43.5131 C.3       3 UNK        -0.1800 
     59 N           0.5440   -9.6570  -45.0977 N.am      3 UNK        -0.5000 
     60 C          -0.2169  -10.6615  -45.5476 C.2       2 UNK         0.5000 
     61 O          -0.7117  -11.5261  -44.8198 O.2       2 UNK        -0.5000 
     62 CA         -0.4511  -10.7112  -47.0643 C.3       2 UNK         0.1400 
     63 CB          0.7928  -11.2393  -47.8022 C.3       2 UNK        -0.1800 
     64 N          -1.5904  -11.5821  -47.3209 N.am      2 UNK        -0.5000 
     65 C          -2.3786  -11.5753  -48.4004 C.2       1 UNK         0.5000 
     66 O          -2.2006  -10.8157  -49.3544 O.2       1 UNK        -0.5000 
     67 C          -3.2551  -23.0209  -45.2508 C.2       11 UNK         0.5000 
     68 O          -4.3829  -23.5068  -45.3283 O.2       11 UNK        -0.5000 
     69 N          -2.2618  -23.5864  -44.5471 N.am      12 UNK        -0.5000 
     70 CA         -2.3506  -24.8961  -43.8966 C.3       12 UNK         0.1400 
     71 CB         -1.2785  -24.9867  -42.7994 C.3       12 UNK        -0.1800 
     72 C          -2.2212  -26.0776  -44.8834 C.2       12 UNK         0.5000 
     73 O          -2.4470  -27.2191  -44.4777 O.2       12 UNK        -0.5000 
     74 N          -1.8509  -25.8034  -46.1445 N.am      13 UNK        -0.5000 
     75 CA         -1.7666  -26.7799  -47.2319 C.3       13 UNK         0.1400 
     76 CB         -1.1240  -26.1011  -48.4491 C.3       13 UNK        -0.1800 
     77 C          -3.1368  -27.3850  -47.6042 C.2       13 UNK         0.5000 
     78 O          -4.1782  -26.7991  -47.3004 O.2       13 UNK        -0.5000 
     79 N          -3.1037  -28.5419  -48.2802 N.am      14 UNK        -0.5000 
     80 CA         -4.2500  -29.4147  -48.5687 C.3       14 UNK         0.1400 
     81 CB         -3.7561  -30.6324  -49.3653 C.3       14 UNK        -0.1800 
     82 C          -5.4453  -28.7583  -49.2902 C.2       14 UNK         0.5000 
     83 O          -6.5820  -29.1707  -49.0556 O.2       14 UNK        -0.5000 
     84 N          -5.1751  -27.7554  -50.1350 N.am      15 UNK        -0.5000 
     85 CA         -6.1873  -26.9641  -50.8428 C.3       15 UNK         0.1400 
     86 CB         -6.0412  -27.1872  -52.3586 C.3       15 UNK        -0.1800 
     87 C          -6.1142  -25.4714  -50.4634 C.2       15 UNK         0.5000 
     88 O          -6.6525  -24.6361  -51.1919 O.2       15 UNK        -0.5000 
     89 N          -5.4495  -25.1577  -49.3396 N.am      16 UNK        -0.5000 
     90 CA         -5.2560  -23.8297  -48.7529 C.3       16 UNK         0.1400 
     91 CB         -6.5468  -23.3755  -48.0381 C.3       16 UNK        -0.1800 
     92 C          -4.7086  -22.8106  -49.7719 C.2       16 UNK         0.5000 
     93 O          -3.5972  -22.9968  -50.2666 O.2       16 UNK        -0.5000 
     94 N          -5.5008  -21.7803  -50.0972 N.am      17 UNK        -0.5000 
     95 CA         -5.1778  -20.7268  -51.0606 C.3       17 UNK         0.1400 
     96 CB         -6.3272  -19.7089  -51.0927 C.3       17 UNK        -0.1800 
     97 C          -4.8816  -21.2413  -52.4810 C.2       17 UNK         0.5000 
     98 O          -4.0353  -20.6630  -53.1607 O.2       17 UNK        -0.5000 
     99 N          -5.5486  -22.3268  -52.8985 N.am      18 UNK        -0.5000 
    100 CA        -5.3402  -22.9481  -54.2079 C.3       18 UNK         0.1400 
    101 CB        -6.5523  -23.8214  -54.5619 C.3       18 UNK        -0.1800 
    102 C         -4.0344  -23.7616  -54.2792 C.2       18 UNK         0.5000 
    103 O         -3.4716  -23.8985  -55.3657 O.2       18 UNK        -0.5000 
    104 N         -3.5676  -24.2698  -53.1301 N.am      19 UNK        -0.5000 
    105 CA        -2.2776  -24.9463  -52.9996 C.3       19 UNK         0.1400 
    106 CB        -2.3234  -25.9362  -51.8263 C.3       19 UNK        -0.1800 
    107 C         -1.1300  -23.9362  -52.8305 C.2       19 UNK         0.5000 
    108 O         -0.0652  -24.1281  -53.4184 O.2       19 UNK        -0.5000 
    109 N         -1.3722  -22.8749  -52.0473 N.am      20 UNK        -0.5000 
    110 CA        -0.4440  -21.7654  -51.8269 C.3       20 UNK         0.1400 
    111 CB        -0.9950  -20.8596  -50.7145 C.3       20 UNK        -0.1800 
    112 C         -0.1808  -20.9530  -53.1090 C.2       20 UNK         0.5000 
    113 O          0.9721  -20.6251  -53.3948 O.2       20 UNK        -0.5000 
    114 N         -1.2567  -20.6717  -53.8596 N.am      21 UNK        -0.5000 
    115 CA        -1.3428  -19.9036  -55.1042 C.3       21 UNK         0.1400 
    116 CB        -0.5137  -20.5454  -56.2343 C.3       21 UNK        -0.1800 
    117 C         -1.0186  -18.4115  -54.9103 C.2       21 UNK         0.5000 
    118 O         -1.9076  -17.5748  -55.0717 O.2       21 UNK        -0.5000 
    119 N          0.2369  -18.1142  -54.5535 N.am      22 UNK        -0.5000 
    120 CA         0.7626  -16.7826  -54.2004 C.3       22 UNK         0.1400 
    121 C          0.7112  -15.7195  -55.3426 C.2       22 UNK         0.5000 
    122 N          0.6183  -16.1154  -56.6063 N.am      22 UNK        -0.7600 
    123 O          0.7926  -14.5200  -55.0912 O.2       22 UNK        -0.5000 
    124 C124        0.1820  -16.2628  -52.8551 C.3       23 UNK        -0.0398 
    125 S125        0.6169  -17.3631  -51.4651 S.3       23 UNK        -0.2404 
    126 C126       -0.0721  -16.4545  -50.0514 C.3       23 UNK        -0.0205 
    127 H127       -2.3960  -16.0485  -46.7431 H         1 UNK         0.0600 
    128 H128       -3.6614  -15.9821  -45.5101 H         1 UNK         0.0600 
    129 H129       -2.0604  -15.3160  -45.1728 H         1 UNK         0.0600 
    130 H130       -2.8741  -14.5879  -48.3720 H         1 UNK         0.3000 
    131 H131       -4.3537  -12.1180  -47.8463 H         1 UNK         0.0600 
    132 H132       -4.4533  -11.8585  -50.2686 H         1 UNK         0.0800 
    133 H133       -3.3251  -13.1564  -50.5209 H         1 UNK         0.0800 
    134 H134       -4.5134  -14.8625  -51.8898 H         1 UNK         0.0800 
    135 H135       -5.7609  -15.9086  -51.2712 H         1 UNK         0.0800 
    136 H136       -2.1926  -15.0972  -51.1024 H         1 UNK         0.1150 
    137 H137       -1.2355  -18.4426  -48.6055 H         1 UNK         0.1150 
    138 H138       -5.3315  -17.4031  -49.3080 H         1 UNK         0.1150 
    139 H139       -4.8032  -19.4929  -48.1997 H         1 UNK         0.0800 
    140 H140       -3.1687  -20.1060  -48.3383 H         1 UNK         0.0800 
    141 H141       -4.8930  -20.7836  -45.6418 H         1 UNK         0.0800 
    142 H142       -3.7018  -20.4391  -44.4167 H         1 UNK         0.0800 
    143 H143       -3.2634  -21.9191  -47.0468 H         1 UNK         0.0600 
    144 H144       -1.2359  -20.5818  -45.5138 H         1 UNK         0.3000 
    145 H145        1.4805  -22.5077  -46.6835 H         1 UNK         0.0600 
    146 H146        0.6463  -19.8067  -47.8598 H         1 UNK         0.0600 
    147 H147        2.3103  -20.3640  -47.6961 H         1 UNK         0.0600 
    148 H148        1.1959  -21.2206  -48.7471 H         1 UNK         0.0600 
    149 H149        1.4049  -19.9692  -45.3947 H         1 UNK         0.3000 
    150 H150        0.8323  -21.1728  -42.0775 H         1 UNK         0.0600 
    151 H151        3.2435  -21.6869  -42.4337 H         1 UNK         0.0600 
    152 H152        3.0465  -20.1228  -41.6575 H         1 UNK         0.0600 
    153 H153        3.4376  -20.2136  -43.3743 H         1 UNK         0.0600 
    154 H154        1.5516  -18.5922  -42.9818 H         1 UNK         0.3000 
    155 H155       -1.7120  -17.4497  -43.9010 H         1 UNK         0.0600 
    156 H156       -1.5613  -17.1821  -41.4273 H         1 UNK         0.0600 
    157 H157        0.1399  -16.7542  -41.5575 H         1 UNK         0.0600 
    158 H158       -1.0935  -15.7016  -42.2502 H         1 UNK         0.0600 
    159 H159        0.8420  -16.1652  -43.8801 H         1 UNK         0.3000 
    160 H160        1.7800  -17.0331  -47.2268 H         1 UNK         0.0600 
    161 H161        1.9288  -14.5567  -47.3070 H         1 UNK         0.0600 
    162 H162        0.2482  -15.0688  -47.3628 H         1 UNK         0.0600 
    163 H163        0.9080  -14.4191  -45.8752 H         1 UNK         0.0600 
    164 H164        2.9889  -15.5419  -45.0578 H         1 UNK         0.3000 
    165 H165        4.8947  -18.2564  -43.7726 H         1 UNK         0.0600 
    166 H166        6.8466  -16.8620  -44.3997 H         1 UNK         0.0600 
    167 H167        6.2045  -17.6691  -45.8210 H         1 UNK         0.0600 
    168 H168        5.8686  -15.9616  -45.5597 H         1 UNK         0.0600 
    169 H169        5.0435  -15.4684  -43.2716 H         1 UNK         0.3000 
    170 H170        2.2939  -15.0789  -41.1136 H         1 UNK         0.0600 
    171 H171        3.8932  -16.2371  -39.5818 H         1 UNK         0.0600 
    172 H172        5.2396  -15.3667  -40.3068 H         1 UNK         0.0600 
    173 H173        3.9982  -14.4928  -39.4078 H         1 UNK         0.0600 
    174 H174        4.5232  -13.3991  -41.6493 H         1 UNK         0.3000 
    175 H175        4.3777  -11.6312  -42.9639 H         1 UNK         0.0600 
    176 H176        3.8612  -12.8475  -45.7362 H         1 UNK         0.0600 
    177 H177        4.9717  -11.5255  -45.3770 H         1 UNK         0.0600 
    178 H178        5.2895  -13.1342  -44.7493 H         1 UNK         0.0600 
    179 H179        2.4858  -10.9475  -45.0050 H         1 UNK         0.3000 
    180 H180       -0.0300   -9.5633  -43.0935 H         1 UNK         0.0600 
    181 H181        2.2736   -7.8028  -44.0912 H         1 UNK         0.0600 
    182 H182        1.5960   -7.7795  -42.4678 H         1 UNK         0.0600 
    183 H183        0.6091   -7.2787  -43.8305 H         1 UNK         0.0600 
    184 H184        0.9154   -8.9862  -45.7554 H         1 UNK         0.3000 
    185 H185       -0.6857   -9.7022  -47.4099 H         1 UNK         0.0600 
    186 H186        0.6261  -11.2871  -48.8784 H         1 UNK         0.0600 
    187 H187        1.6538  -10.5906  -47.6387 H         1 UNK         0.0600 
    188 H188        1.0645  -12.2382  -47.4621 H         1 UNK         0.0600 
    189 H189       -1.8364  -12.1776  -46.5370 H         1 UNK         0.3000 
    190 H190       -1.3567  -23.1325  -44.5202 H         1 UNK         0.3000 
    191 H191       -3.3281  -24.9785  -43.4169 H         1 UNK         0.0600 
    192 H192       -0.2734  -25.0133  -43.2210 H         1 UNK         0.0600 
    193 H193       -1.4050  -25.8930  -42.2059 H         1 UNK         0.0600 
    194 H194       -1.3356  -24.1397  -42.1154 H         1 UNK         0.0600 
    195 H195       -1.6797  -24.8393  -46.4001 H         1 UNK         0.3000 
    196 H196       -1.1158  -27.5916  -46.9009 H         1 UNK         0.0600 
    197 H197       -0.9977  -26.8042  -49.2722 H         1 UNK         0.0600 
    198 H198       -0.1355  -25.7106  -48.2063 H         1 UNK         0.0600 
    199 H199       -1.7298  -25.2678  -48.8072 H         1 UNK         0.0600 
    200 H200       -2.2001  -28.9275  -48.5142 H         1 UNK         0.3000 
    201 H201       -4.6222  -29.7715  -47.6062 H         1 UNK         0.0600 
    202 H202       -3.0016  -31.1898  -48.8098 H         1 UNK         0.0600 
    203 H203       -3.3213  -30.3370  -50.3210 H         1 UNK         0.0600 
    204 H204       -4.5748  -31.3219  -49.5766 H         1 UNK         0.0600 
    205 H205       -4.2119  -27.4823  -50.2627 H         1 UNK         0.3000 
    206 H206       -7.1894  -27.2913  -50.5598 H         1 UNK         0.0600 
    207 H207       -5.9939  -28.2493  -52.5996 H         1 UNK         0.0600 
    208 H208       -6.8987  -26.7777  -52.8927 H         1 UNK         0.0600 
    209 H209       -5.1482  -26.7108  -52.7604 H         1 UNK         0.0600 
    210 H210       -5.0612  -25.9160  -48.7861 H         1 UNK         0.3000 
    211 H211       -4.4781  -23.9455  -47.9982 H         1 UNK         0.0600 
    212 H212       -7.3911  -23.2916  -48.7234 H         1 UNK         0.0600 
    213 H213       -6.4093  -22.4113  -47.5465 H         1 UNK         0.0600 
    214 H214       -6.8247  -24.0878  -47.2609 H         1 UNK         0.0600 
    215 H215       -6.4170  -21.7352  -49.6757 H         1 UNK         0.3000 
    216 H216       -4.2806  -20.2188  -50.7056 H         1 UNK         0.0600 
    217 H217       -6.0787  -18.8618  -51.7337 H         1 UNK         0.0600 
    218 H218       -6.5374  -19.3137  -50.0993 H         1 UNK         0.0600 
    219 H219       -7.2469  -20.1531  -51.4754 H         1 UNK         0.0600 
    220 H220       -6.1860  -22.7964  -52.2651 H         1 UNK         0.3000 
    221 H221       -5.2724  -22.1570  -54.9581 H         1 UNK         0.0600 
    222 H222       -6.6831  -24.6362  -53.8520 H         1 UNK         0.0600 
    223 H223       -7.4712  -23.2351  -54.5719 H         1 UNK         0.0600 
    224 H224       -6.4383  -24.2648  -55.5518 H         1 UNK         0.0600 
    225 H225       -4.0637  -24.0614  -52.2744 H         1 UNK         0.3000 
    226 H226       -2.0770  -25.5210  -53.9066 H         1 UNK         0.0600 
    227 H227       -2.9644  -26.7860  -52.0538 H         1 UNK         0.0600 
    228 H228       -1.3308  -26.3361  -51.6162 H         1 UNK         0.0600 
    229 H229       -2.6942  -25.4657  -50.9168 H         1 UNK         0.0600 
    230 H230       -2.2476  -22.8406  -51.5310 H         1 UNK         0.3000 
    231 H231        0.5058  -22.1843  -51.4884 H         1 UNK         0.0600 
    232 H232       -0.2811  -20.0752  -50.4636 H         1 UNK         0.0600 
    233 H233       -1.1931  -21.4243  -49.8036 H         1 UNK         0.0600 
    234 H234       -1.9227  -20.3715  -51.0126 H         1 UNK         0.0600 
    235 H235       -2.1653  -20.9340  -53.4875 H         1 UNK         0.3000 
    236 H236       -2.3900  -19.9589  -55.4061 H         1 UNK         0.0600 
    237 H237       -0.6576  -20.0084  -57.1725 H         1 UNK         0.0600 
    238 H238       -0.8178  -21.5789  -56.4017 H         1 UNK         0.0600 
    239 H239        0.5550  -20.5441  -56.0198 H         1 UNK         0.0600 
    240 H240        0.8563  -18.8968  -54.3688 H         1 UNK         0.3000 
    241 H241        1.8309  -16.9346  -54.0434 H         1 UNK         0.0600 
    242 H242        0.5605  -17.0956  -56.8316 H         1 UNK         0.3800 
    243 H243        0.5965  -15.4277  -57.3429 H         1 UNK         0.3800 
    244 H244       -0.9022  -16.1649  -52.9171 H         1 UNK         0.0800 
    245 H245        0.5714  -15.2709  -52.6213 H         1 UNK         0.0800 
    246 H246        0.4661  -16.7662  -49.1572 H         1 UNK         0.0800 
    247 H247        0.1124  -15.3847  -50.1609 H         1 UNK         0.0800 
@<TRIPOS>BOND
     1    1    2 1    
     2    1  127 1    
     3    1  128 1    
     4    1  129 1    
     5    2    3 2    
     6    2    4 am   BACKBONE|DICT|INTERRES
     7    4    5 1    
     8    4  130 1    
     9    5    6 1    
    10    5   65 1    
    11    5  131 1    
    12    6    7 1    
    13    6  132 1    
    14    6  133 1    
    15    7    8 1    
    16    8    9 1    
    17    8  134 1    
    18    8  135 1    
    19    9   10 ar   
    20    9   14 ar   
    21   10   11 ar   
    22   10  136 1    
    23   11   12 ar   
    24   11  126 1    
    25   12   13 ar   
    26   12  137 1    
    27   13   14 ar   
    28   13   15 1    
    29   14  138 1    
    30   15   16 1    
    31   15  139 1    
    32   15  140 1    
    33   16   17 1    
    34   17   18 1    
    35   17  141 1    
    36   17  142 1    
    37   18   19 1    
    38   18   67 1    
    39   18  143 1    
    40   19   20 am   BACKBONE|DICT|INTERRES
    41   19  144 1    
    42   20   21 2    
    43   20   22 1    
    44   22   23 1    
    45   22   24 1    
    46   22  145 1    
    47   23  146 1    
    48   23  147 1    
    49   23  148 1    
    50   24   25 am   BACKBONE|DICT|INTERRES
    51   24  149 1    
    52   25   26 2    
    53   25   27 1    
    54   27   28 1    
    55   27   29 1    
    56   27  150 1    
    57   28  151 1    
    58   28  152 1    
    59   28  153 1    
    60   29   30 am   BACKBONE|DICT|INTERRES
    61   29  154 1    
    62   30   31 2    
    63   30   32 1    
    64   32   33 1    
    65   32   34 1    
    66   32  155 1    
    67   33  156 1    
    68   33  157 1    
    69   33  158 1    
    70   34   35 am   BACKBONE|DICT|INTERRES
    71   34  159 1    
    72   35   36 2    
    73   35   37 1    
    74   37   38 1    
    75   37   39 1    
    76   37  160 1    
    77   38  161 1    
    78   38  162 1    
    79   38  163 1    
    80   39   40 am   BACKBONE|DICT|INTERRES
    81   39  164 1    
    82   40   41 2    
    83   40   42 1    
    84   42   43 1    
    85   42   44 1    
    86   42  165 1    
    87   43  166 1    
    88   43  167 1    
    89   43  168 1    
    90   44   45 am   BACKBONE|DICT|INTERRES
    91   44  169 1    
    92   45   46 2    
    93   45   47 1    
    94   47   48 1    
    95   47   49 1    
    96   47  170 1    
    97   48  171 1    
    98   48  172 1    
    99   48  173 1    
   100   49   50 am   BACKBONE|DICT|INTERRES
   101   49  174 1    
   102   50   51 2    
   103   50   52 1    
   104   52   53 1    
   105   52   54 1    
   106   52  175 1    
   107   53  176 1    
   108   53  177 1    
   109   53  178 1    
   110   54   55 am   BACKBONE|DICT|INTERRES
   111   54  179 1    
   112   55   56 2    
   113   55   57 1    
   114   57   58 1    
   115   57   59 1    
   116   57  180 1    
   117   58  181 1    
   118   58  182 1    
   119   58  183 1    
   120   59   60 am   BACKBONE|DICT|INTERRES
   121   59  184 1    
   122   60   61 2    
   123   60   62 1    
   124   62   63 1    
   125   62   64 1    
   126   62  185 1    
   127   63  186 1    
   128   63  187 1    
   129   63  188 1    
   130   64   65 am   BACKBONE|DICT|INTERRES
   131   64  189 1    
   132   65   66 2    
   133   67   68 2    
   134   67   69 am   BACKBONE|DICT|INTERRES
   135   69   70 1    
   136   69  190 1    
   137   70   71 1    
   138   70   72 1    
   139   70  191 1    
   140   71  192 1    
   141   71  193 1    
   142   71  194 1    
   143   72   73 2    
   144   72   74 am   BACKBONE|DICT|INTERRES
   145   74   75 1    
   146   74  195 1    
   147   75   76 1    
   148   75   77 1    
   149   75  196 1    
   150   76  197 1    
   151   76  198 1    
   152   76  199 1    
   153   77   78 2    
   154   77   79 am   BACKBONE|DICT|INTERRES
   155   79   80 1    
   156   79  200 1    
   157   80   81 1    
   158   80   82 1    
   159   80  201 1    
   160   81  202 1    
   161   81  203 1    
   162   81  204 1    
   163   82   83 2    
   164   82   84 am   BACKBONE|DICT|INTERRES
   165   84   85 1    
   166   84  205 1    
   167   85   86 1    
   168   85   87 1    
   169   85  206 1    
   170   86  207 1    
   171   86  208 1    
   172   86  209 1    
   173   87   88 2    
   174   87   89 am   BACKBONE|DICT|INTERRES
   175   89   90 1    
   176   89  210 1    
   177   90   91 1    
   178   90   92 1    
   179   90  211 1    
   180   91  212 1    
   181   91  213 1    
   182   91  214 1    
   183   92   93 2    
   184   92   94 am   BACKBONE|DICT|INTERRES
   185   94   95 1    
   186   94  215 1    
   187   95   96 1    
   188   95   97 1    
   189   95  216 1    
   190   96  217 1    
   191   96  218 1    
   192   96  219 1    
   193   97   98 2    
   194   97   99 am   BACKBONE|DICT|INTERRES
   195   99  100 1    
   196   99  220 1    
   197  100  101 1    
   198  100  102 1    
   199  100  221 1    
   200  101  222 1    
   201  101  223 1    
   202  101  224 1    
   203  102  103 2    
   204  102  104 am   BACKBONE|DICT|INTERRES
   205  104  105 1    
   206  104  225 1    
   207  105  106 1    
   208  105  107 1    
   209  105  226 1    
   210  106  227 1    
   211  106  228 1    
   212  106  229 1    
   213  107  108 2    
   214  107  109 am   BACKBONE|DICT|INTERRES
   215  109  110 1    
   216  109  230 1    
   217  110  111 1    
   218  110  112 1    
   219  110  231 1    
   220  111  232 1    
   221  111  233 1    
   222  111  234 1    
   223  112  113 2    
   224  112  114 am   BACKBONE|DICT|INTERRES
   225  114  115 1    
   226  114  235 1    
   227  115  116 1    
   228  115  117 1    
   229  115  236 1    
   230  116  237 1    
   231  116  238 1    
   232  116  239 1    
   233  117  118 2    
   234  117  119 am   BACKBONE|DICT|INTERRES
   235  119  120 1    
   236  119  240 1    
   237  120  121 1    
   238  120  124 1    
   239  120  241 1    
   240  121  122 am   BACKBONE|DICT|INTERRES
   241  121  123 2    
   242  122  242 1    
   243  122  243 1    
   244  124  125 1    
   245  124  244 1    
   246  124  245 1    
   247  125  126 1    
   248  126  246 1    
   249  126  247 1    
@<TRIPOS>SUBSTRUCTURE
     1 UNK         1 GROUP             0       ****    0 ROOT    
