@<TRIPOS>MOLECULE
3R540
247   249    1
SMALL
USER_CHARGES


@<TRIPOS>ATOM
      1 CA          0.8708  -14.8757  -49.6760 C.3       0 UNK        -0.1800 
      2 C           0.4988  -14.7917  -48.2037 C.2       0 UNK         0.5000 
      3 O           1.2784  -14.2810  -47.4003 O.2       0 UNK        -0.5000 
      4 N          -0.7025  -15.2679  -47.8506 N.am      1 UNK        -0.5000 
      5 CA         -1.2548  -15.3156  -46.4880 C.3       1 UNK         0.1400 
      6 C6         -2.5704  -16.1231  -46.4051 C.3       23 UNK        -0.0398 
      7 S7         -3.8261  -15.6569  -47.6474 S.3       23 UNK        -0.2404 
      8 C8         -3.9338  -17.1749  -48.6482 C.3       23 UNK        -0.0205 
      9 C9         -2.7616  -17.3287  -49.6060 C.ar      23 UNK        -0.0193 
     10 C10        -2.8486  -16.7972  -50.8944 C.ar      23 UNK        -0.1150 
     11 C11        -1.8141  -16.9862  -51.8133 C.ar      23 UNK        -0.0193 
     12 C12        -0.6779  -17.7048  -51.4308 C.ar      23 UNK        -0.1150 
     13 C13        -0.5654  -18.2237  -50.1369 C.ar      23 UNK        -0.0193 
     14 C14        -1.6124  -18.0338  -49.2294 C.ar      23 UNK        -0.1150 
     15 C15         0.7020  -18.9563  -49.7169 C.3       23 UNK        -0.0205 
     16 S16         0.4121  -20.7277  -49.3922 S.3       23 UNK        -0.2404 
     17 C17         0.5361  -20.7573  -47.5730 C.3       23 UNK        -0.0398 
     18 CA         -0.1875  -21.9434  -46.8922 C.3       11 UNK         0.1400 
     19 N           0.1655  -22.0221  -45.4706 N.am      11 UNK        -0.5000 
     20 C          -0.2483  -22.9640  -44.6105 C.2       10 UNK         0.5000 
     21 O          -0.9419  -23.9268  -44.9303 O.2       10 UNK        -0.5000 
     22 CA          0.1240  -22.7688  -43.1298 C.3       10 UNK         0.1400 
     23 CB          1.5159  -23.3470  -42.8395 C.3       10 UNK        -0.1800 
     24 N           0.0579  -21.3682  -42.7042 N.am      10 UNK        -0.5000 
     25 C          -1.0604  -20.6262  -42.7127 C.2       9 UNK         0.5000 
     26 O          -2.1614  -21.0610  -43.0512 O.2       9 UNK        -0.5000 
     27 CA         -0.9202  -19.1418  -42.3288 C.3       9 UNK         0.1400 
     28 CB         -0.8738  -18.9688  -40.8036 C.3       9 UNK        -0.1800 
     29 N           0.2645  -18.5272  -42.9242 N.am      9 UNK        -0.5000 
     30 C           0.4433  -18.3201  -44.2355 C.2       8 UNK         0.5000 
     31 O          -0.4183  -18.5447  -45.0857 O.2       8 UNK        -0.5000 
     32 CA          1.8419  -17.8379  -44.6685 C.3       8 UNK         0.1400 
     33 CB          2.0121  -16.3212  -44.4798 C.3       8 UNK        -0.1800 
     34 N           2.8971  -18.5215  -43.9224 N.am      8 UNK        -0.5000 
     35 C           3.2252  -19.8118  -44.0644 C.2       7 UNK         0.5000 
     36 O           2.6774  -20.5708  -44.8632 O.2       7 UNK        -0.5000 
     37 CA          4.3329  -20.3440  -43.1350 C.3       7 UNK         0.1400 
     38 CB          5.7147  -20.1310  -43.7702 C.3       7 UNK        -0.1800 
     39 N           4.3087  -19.7175  -41.8108 N.am      7 UNK        -0.5000 
     40 C           3.3441  -19.9138  -40.9007 C.2       6 UNK         0.5000 
     41 O           2.3893  -20.6709  -41.0712 O.2       6 UNK        -0.5000 
     42 CA          3.4286  -19.0713  -39.6128 C.3       6 UNK         0.1400 
     43 CB          4.4083  -19.7031  -38.6128 C.3       6 UNK        -0.1800 
     44 N           3.8083  -17.6746  -39.8574 N.am      6 UNK        -0.5000 
     45 C           3.1085  -16.8270  -40.6231 C.2       5 UNK         0.5000 
     46 O           2.0789  -17.1510  -41.2184 O.2       5 UNK        -0.5000 
     47 CA          3.6841  -15.4086  -40.7994 C.3       5 UNK         0.1400 
     48 CB          4.9130  -15.4373  -41.7230 C.3       5 UNK        -0.1800 
     49 N           2.6932  -14.5001  -41.3770 N.am      5 UNK        -0.5000 
     50 C           1.6408  -13.9917  -40.7236 C.2       4 UNK         0.5000 
     51 O           1.4610  -14.1462  -39.5140 O.2       4 UNK        -0.5000 
     52 CA          0.5992  -13.2063  -41.5546 C.3       4 UNK         0.1400 
     53 CB          0.0492  -11.9813  -40.7951 C.3       4 UNK        -0.1800 
     54 N           1.0276  -12.8218  -42.9074 N.am      4 UNK        -0.5000 
     55 C           2.0245  -11.9876  -43.2482 C.2       3 UNK         0.5000 
     56 O           2.8002  -11.4778  -42.4396 O.2       3 UNK        -0.5000 
     57 CA          2.1887  -11.6638  -44.7485 C.3       3 UNK         0.1400 
     58 CB          3.2885  -12.5408  -45.3658 C.3       3 UNK        -0.1800 
     59 N           0.9536  -11.8280  -45.5198 N.am      3 UNK        -0.5000 
     60 C          -0.1371  -11.0559  -45.3835 C.2       2 UNK         0.5000 
     61 O          -0.1743  -10.0592  -44.6611 O.2       2 UNK        -0.5000 
     62 CA         -1.4104  -11.4648  -46.1568 C.3       2 UNK         0.1400 
     63 CB         -1.6052  -10.5630  -47.3853 C.3       2 UNK        -0.1800 
     64 N          -1.4321  -12.8623  -46.5940 N.am      2 UNK        -0.5000 
     65 C          -1.3737  -13.9395  -45.7979 C.2       1 UNK         0.5000 
     66 O          -1.3438  -13.8769  -44.5678 O.2       1 UNK        -0.5000 
     67 C          -1.7154  -21.8832  -47.1079 C.2       11 UNK         0.5000 
     68 O          -2.2384  -22.6156  -47.9514 O.2       11 UNK        -0.5000 
     69 N          -2.3965  -21.0467  -46.3098 N.am      12 UNK        -0.5000 
     70 CA         -3.8530  -20.9224  -46.2921 C.3       12 UNK         0.1400 
     71 CB         -4.2609  -19.6884  -45.4718 C.3       12 UNK        -0.1800 
     72 C          -4.5391  -22.1831  -45.7401 C.2       12 UNK         0.5000 
     73 O          -5.4940  -22.6664  -46.3476 O.2       12 UNK        -0.5000 
     74 N          -4.0349  -22.6923  -44.6070 N.am      13 UNK        -0.5000 
     75 CA         -4.5754  -23.8540  -43.8981 C.3       13 UNK         0.1400 
     76 CB         -3.8708  -23.9975  -42.5410 C.3       13 UNK        -0.1800 
     77 C          -4.4773  -25.1628  -44.7027 C.2       13 UNK         0.5000 
     78 O          -5.4372  -25.9342  -44.7270 O.2       13 UNK        -0.5000 
     79 N          -3.3300  -25.3816  -45.3578 N.am      14 UNK        -0.5000 
     80 CA         -3.0775  -26.5357  -46.2215 C.3       14 UNK         0.1400 
     81 CB         -1.5592  -26.7261  -46.3676 C.3       14 UNK        -0.1800 
     82 C          -3.7249  -26.4020  -47.6123 C.2       14 UNK         0.5000 
     83 O          -3.8611  -27.4123  -48.3032 O.2       14 UNK        -0.5000 
     84 N          -4.0792  -25.1673  -48.0028 N.am      15 UNK        -0.5000 
     85 CA         -4.5464  -24.7531  -49.3295 C.3       15 UNK         0.1400 
     86 CB         -5.9343  -25.3488  -49.6430 C.3       15 UNK        -0.1800 
     87 C          -3.4860  -25.0528  -50.4099 C.2       15 UNK         0.5000 
     88 O          -3.7857  -25.7028  -51.4126 O.2       15 UNK        -0.5000 
     89 N          -2.2449  -24.6259  -50.1319 N.am      16 UNK        -0.5000 
     90 CA         -1.0522  -24.8993  -50.9334 C.3       16 UNK         0.1400 
     91 CB          0.1975  -24.6910  -50.0579 C.3       16 UNK        -0.1800 
     92 C          -1.0481  -24.0559  -52.2217 C.2       16 UNK         0.5000 
     93 O          -1.6117  -24.4835  -53.2296 O.2       16 UNK        -0.5000 
     94 N          -0.4413  -22.8616  -52.1706 N.am      17 UNK        -0.5000 
     95 CA         -0.5543  -21.8596  -53.2351 C.3       17 UNK         0.1400 
     96 CB          0.6382  -20.8951  -53.1776 C.3       17 UNK        -0.1800 
     97 C          -1.8908  -21.0968  -53.1587 C.2       17 UNK         0.5000 
     98 O          -2.3105  -20.5230  -54.1623 O.2       17 UNK        -0.5000 
     99 N          -2.5501  -21.1400  -51.9902 N.am      18 UNK        -0.5000 
    100 CA        -3.8793  -20.5990  -51.7064 C.3       18 UNK         0.1400 
    101 CB        -4.0675  -20.5696  -50.1798 C.3       18 UNK        -0.1800 
    102 C         -4.9889  -21.4143  -52.4069 C.2       18 UNK         0.5000 
    103 O         -5.8037  -22.0624  -51.7472 O.2       18 UNK        -0.5000 
    104 N         -4.9724  -21.3918  -53.7395 N.am      19 UNK        -0.5000 
    105 CA        -5.8597  -22.1171  -54.6374 C.3       19 UNK         0.1400 
    106 CB        -5.4124  -23.5922  -54.7363 C.3       19 UNK        -0.1800 
    107 C         -5.8805  -21.3797  -55.9882 C.2       19 UNK         0.5000 
    108 O         -5.7270  -20.1557  -56.0175 O.2       19 UNK        -0.5000 
    109 N         -6.0407  -22.1206  -57.0929 N.am      20 UNK        -0.5000 
    110 CA        -6.1347  -21.6129  -58.4688 C.3       20 UNK         0.1400 
    111 CB        -6.4121  -22.7960  -59.4097 C.3       20 UNK        -0.1800 
    112 C         -4.9131  -20.8064  -58.9633 C.2       20 UNK         0.5000 
    113 O         -5.0291  -20.0862  -59.9556 O.2       20 UNK        -0.5000 
    114 N         -3.7756  -20.9238  -58.2647 N.am      21 UNK        -0.5000 
    115 CA        -2.5570  -20.1508  -58.5011 C.3       21 UNK         0.1400 
    116 CB        -1.3976  -20.7987  -57.7286 C.3       21 UNK        -0.1800 
    117 C         -2.6837  -18.6539  -58.1430 C.2       21 UNK         0.5000 
    118 O         -1.8892  -17.8601  -58.6503 O.2       21 UNK        -0.5000 
    119 N         -3.6607  -18.2809  -57.3037 N.am      22 UNK        -0.5000 
    120 CA        -3.9222  -16.8831  -56.9175 C.3       22 UNK         0.1400 
    121 C         -5.4131  -16.5360  -56.6433 C.2       22 UNK         0.5000 
    122 N         -6.3203  -17.4911  -56.4863 N.am      22 UNK        -0.7600 
    123 O         -5.7658  -15.3600  -56.6039 O.2       22 UNK        -0.5000 
    124 C124       -2.9753  -16.3794  -55.7953 C.3       23 UNK        -0.0398 
    125 S125       -3.1362  -17.2920  -54.2233 S.3       23 UNK        -0.2404 
    126 C126       -1.9218  -16.3957  -53.2103 C.3       23 UNK        -0.0205 
    127 H127        1.3336  -13.9443  -50.0022 H         1 UNK         0.0600 
    128 H128        1.5801  -15.6871  -49.8378 H         1 UNK         0.0600 
    129 H129       -0.0045  -15.0535  -50.3007 H         1 UNK         0.0600 
    130 H130       -1.3018  -15.6633  -48.5631 H         1 UNK         0.3000 
    131 H131       -0.5367  -15.8736  -45.8923 H         1 UNK         0.0600 
    132 H132       -3.0167  -16.0451  -45.4119 H         1 UNK         0.0800 
    133 H133       -2.3297  -17.1782  -46.5180 H         1 UNK         0.0800 
    134 H134       -4.8645  -17.1457  -49.2169 H         1 UNK         0.0800 
    135 H135       -4.0133  -18.0498  -48.0038 H         1 UNK         0.0800 
    136 H136       -3.7321  -16.2497  -51.1919 H         1 UNK         0.1150 
    137 H137        0.1264  -17.8461  -52.1386 H         1 UNK         0.1150 
    138 H138       -1.5363  -18.4523  -48.2365 H         1 UNK         0.1150 
    139 H139        1.4639  -18.8719  -50.4929 H         1 UNK         0.0800 
    140 H140        1.1255  -18.4658  -48.8394 H         1 UNK         0.0800 
    141 H141        1.5987  -20.7865  -47.3290 H         1 UNK         0.0800 
    142 H142        0.1642  -19.8136  -47.1779 H         1 UNK         0.0800 
    143 H143        0.1694  -22.8676  -47.3501 H         1 UNK         0.0600 
    144 H144        0.7940  -21.3053  -45.1238 H         1 UNK         0.3000 
    145 H145       -0.5985  -23.3254  -42.5309 H         1 UNK         0.0600 
    146 H146        1.7650  -23.2670  -41.7814 H         1 UNK         0.0600 
    147 H147        1.5601  -24.4042  -43.1039 H         1 UNK         0.0600 
    148 H148        2.2915  -22.8361  -43.4084 H         1 UNK         0.0600 
    149 H149        0.9157  -20.9602  -42.3454 H         1 UNK         0.3000 
    150 H150       -1.7996  -18.6154  -42.7056 H         1 UNK         0.0600 
    151 H151       -1.7610  -19.3960  -40.3348 H         1 UNK         0.0600 
    152 H152       -0.8343  -17.9144  -40.5290 H         1 UNK         0.0600 
    153 H153       -0.0024  -19.4584  -40.3678 H         1 UNK         0.0600 
    154 H154        1.0034  -18.2448  -42.2847 H         1 UNK         0.3000 
    155 H155        1.9732  -18.0697  -45.7277 H         1 UNK         0.0600 
    156 H156        3.0610  -16.0290  -44.5215 H         1 UNK         0.0600 
    157 H157        1.6010  -15.9755  -43.5321 H         1 UNK         0.0600 
    158 H158        1.5138  -15.7691  -45.2702 H         1 UNK         0.0600 
    159 H159        3.3552  -17.9893  -43.1990 H         1 UNK         0.3000 
    160 H160        4.1787  -21.4172  -43.0088 H         1 UNK         0.0600 
    161 H161        5.9394  -19.0720  -43.9037 H         1 UNK         0.0600 
    162 H162        5.7699  -20.6047  -44.7513 H         1 UNK         0.0600 
    163 H163        6.5025  -20.5670  -43.1557 H         1 UNK         0.0600 
    164 H164        5.0585  -19.0785  -41.5913 H         1 UNK         0.3000 
    165 H165        2.4352  -19.0685  -39.1592 H         1 UNK         0.0600 
    166 H166        5.4310  -19.7005  -38.9917 H         1 UNK         0.0600 
    167 H167        4.4007  -19.1689  -37.6625 H         1 UNK         0.0600 
    168 H168        4.1381  -20.7391  -38.4035 H         1 UNK         0.0600 
    169 H169        4.6501  -17.3493  -39.4040 H         1 UNK         0.3000 
    170 H170        3.9835  -15.0299  -39.8200 H         1 UNK         0.0600 
    171 H171        5.7090  -16.0535  -41.3033 H         1 UNK         0.0600 
    172 H172        4.6725  -15.8392  -42.7075 H         1 UNK         0.0600 
    173 H173        5.3225  -14.4365  -41.8626 H         1 UNK         0.0600 
    174 H174        2.7553  -14.3321  -42.3687 H         1 UNK         0.3000 
    175 H175       -0.2331  -13.8963  -41.7009 H         1 UNK         0.0600 
    176 H176       -0.7045  -11.4589  -41.3847 H         1 UNK         0.0600 
    177 H177       -0.4235  -12.2780  -39.8582 H         1 UNK         0.0600 
    178 H178        0.8377  -11.2688  -40.5514 H         1 UNK         0.0600 
    179 H179        0.4334  -13.1726  -43.6507 H         1 UNK         0.3000 
    180 H180        2.5006  -10.6203  -44.8273 H         1 UNK         0.0600 
    181 H181        3.4604  -12.2807  -46.4104 H         1 UNK         0.0600 
    182 H182        4.2347  -12.4129  -44.8385 H         1 UNK         0.0600 
    183 H183        3.0296  -13.5989  -45.3244 H         1 UNK         0.0600 
    184 H184        0.9197  -12.6200  -46.1532 H         1 UNK         0.3000 
    185 H185       -2.2574  -11.3176  -45.4839 H         1 UNK         0.0600 
    186 H186       -2.5461  -10.7815  -47.8909 H         1 UNK         0.0600 
    187 H187       -1.6290   -9.5106  -47.0993 H         1 UNK         0.0600 
    188 H188       -0.7974  -10.6889  -48.1074 H         1 UNK         0.0600 
    189 H189       -1.4361  -13.0201  -47.5910 H         1 UNK         0.3000 
    190 H190       -1.8855  -20.5031  -45.6267 H         1 UNK         0.3000 
    191 H191       -4.1915  -20.7742  -47.3187 H         1 UNK         0.0600 
    192 H192       -5.3346  -19.5122  -45.5455 H         1 UNK         0.0600 
    193 H193       -3.7597  -18.7909  -45.8239 H         1 UNK         0.0600 
    194 H194       -4.0221  -19.8014  -44.4145 H         1 UNK         0.0600 
    195 H195       -3.2651  -22.2040  -44.1571 H         1 UNK         0.3000 
    196 H196       -5.6335  -23.6605  -43.7100 H         1 UNK         0.0600 
    197 H197       -4.2942  -24.8224  -41.9666 H         1 UNK         0.0600 
    198 H198       -3.9787  -23.0934  -41.9415 H         1 UNK         0.0600 
    199 H199       -2.8058  -24.1946  -42.6615 H         1 UNK         0.0600 
    200 H200       -2.5609  -24.7225  -45.2487 H         1 UNK         0.3000 
    201 H201       -3.4891  -27.4285  -45.7462 H         1 UNK         0.0600 
    202 H202       -1.0802  -26.8456  -45.3956 H         1 UNK         0.0600 
    203 H203       -1.0950  -25.8750  -46.8680 H         1 UNK         0.0600 
    204 H204       -1.3304  -27.6161  -46.9551 H         1 UNK         0.0600 
    205 H205       -3.9121  -24.4109  -47.3530 H         1 UNK         0.3000 
    206 H206       -4.6616  -23.6715  -49.2889 H         1 UNK         0.0600 
    207 H207       -6.6518  -25.1040  -48.8598 H         1 UNK         0.0600 
    208 H208       -6.3241  -24.9452  -50.5784 H         1 UNK         0.0600 
    209 H209       -5.9024  -26.4339  -49.7429 H         1 UNK         0.0600 
    210 H210       -2.1168  -24.0634  -49.2957 H         1 UNK         0.3000 
    211 H211       -1.0719  -25.9486  -51.2353 H         1 UNK         0.0600 
    212 H212        0.2346  -23.6927  -49.6246 H         1 UNK         0.0600 
    213 H213        1.1113  -24.8391  -50.6348 H         1 UNK         0.0600 
    214 H214        0.2172  -25.4052  -49.2343 H         1 UNK         0.0600 
    215 H215        0.0232  -22.5740  -51.3205 H         1 UNK         0.3000 
    216 H216       -0.5213  -22.3629  -54.2039 H         1 UNK         0.0600 
    217 H217        0.6013  -20.1844  -54.0042 H         1 UNK         0.0600 
    218 H218        1.5850  -21.4302  -53.2490 H         1 UNK         0.0600 
    219 H219        0.6455  -20.3182  -52.2561 H         1 UNK         0.0600 
    220 H220       -2.1172  -21.6476  -51.2343 H         1 UNK         0.3000 
    221 H221       -3.9206  -19.5731  -52.0783 H         1 UNK         0.0600 
    222 H222       -4.1253  -21.5716  -49.7604 H         1 UNK         0.0600 
    223 H223       -3.2377  -20.0737  -49.6844 H         1 UNK         0.0600 
    224 H224       -4.9817  -20.0418  -49.9067 H         1 UNK         0.0600 
    225 H225       -4.2547  -20.8322  -54.1937 H         1 UNK         0.3000 
    226 H226       -6.8748  -22.0782  -54.2381 H         1 UNK         0.0600 
    227 H227       -6.1101  -24.1848  -55.3286 H         1 UNK         0.0600 
    228 H228       -4.4233  -23.6825  -55.1877 H         1 UNK         0.0600 
    229 H229       -5.3648  -24.0581  -53.7515 H         1 UNK         0.0600 
    230 H230       -6.1370  -23.1199  -56.9847 H         1 UNK         0.3000 
    231 H231       -6.9928  -20.9389  -58.5074 H         1 UNK         0.0600 
    232 H232       -6.5266  -22.4595  -60.4410 H         1 UNK         0.0600 
    233 H233       -7.3324  -23.3121  -59.1358 H         1 UNK         0.0600 
    234 H234       -5.5991  -23.5228  -59.3901 H         1 UNK         0.0600 
    235 H235       -3.7733  -21.5358  -57.4627 H         1 UNK         0.3000 
    236 H236       -2.3251  -20.2084  -59.5666 H         1 UNK         0.0600 
    237 H237       -1.5764  -20.7890  -56.6541 H         1 UNK         0.0600 
    238 H238       -1.2470  -21.8339  -58.0353 H         1 UNK         0.0600 
    239 H239       -0.4620  -20.2678  -57.9089 H         1 UNK         0.0600 
    240 H240       -4.2724  -18.9823  -56.9042 H         1 UNK         0.3000 
    241 H241       -3.6971  -16.2764  -57.7970 H         1 UNK         0.0600 
    242 H242       -7.2781  -17.2232  -56.3275 H         1 UNK         0.3800 
    243 H243       -6.0664  -18.4736  -56.4083 H         1 UNK         0.3800 
    244 H244       -3.1439  -15.3182  -55.6045 H         1 UNK         0.0800 
    245 H245       -1.9402  -16.4583  -56.1296 H         1 UNK         0.0800 
    246 H246       -0.9521  -16.4165  -53.7100 H         1 UNK         0.0800 
    247 H247       -2.2124  -15.3467  -53.1377 H         1 UNK         0.0800 
@<TRIPOS>BOND
     1    1    2 1    
     2    1  127 1    
     3    1  128 1    
     4    1  129 1    
     5    2    3 2    
     6    2    4 am   BACKBONE|DICT|INTERRES
     7    4    5 1    
     8    4  130 1    
     9    5    6 1    
    10    5   65 1    
    11    5  131 1    
    12    6    7 1    
    13    6  132 1    
    14    6  133 1    
    15    7    8 1    
    16    8    9 1    
    17    8  134 1    
    18    8  135 1    
    19    9   10 ar   
    20    9   14 ar   
    21   10   11 ar   
    22   10  136 1    
    23   11   12 ar   
    24   11  126 1    
    25   12   13 ar   
    26   12  137 1    
    27   13   14 ar   
    28   13   15 1    
    29   14  138 1    
    30   15   16 1    
    31   15  139 1    
    32   15  140 1    
    33   16   17 1    
    34   17   18 1    
    35   17  141 1    
    36   17  142 1    
    37   18   19 1    
    38   18   67 1    
    39   18  143 1    
    40   19   20 am   BACKBONE|DICT|INTERRES
    41   19  144 1    
    42   20   21 2    
    43   20   22 1    
    44   22   23 1    
    45   22   24 1    
    46   22  145 1    
    47   23  146 1    
    48   23  147 1    
    49   23  148 1    
    50   24   25 am   BACKBONE|DICT|INTERRES
    51   24  149 1    
    52   25   26 2    
    53   25   27 1    
    54   27   28 1    
    55   27   29 1    
    56   27  150 1    
    57   28  151 1    
    58   28  152 1    
    59   28  153 1    
    60   29   30 am   BACKBONE|DICT|INTERRES
    61   29  154 1    
    62   30   31 2    
    63   30   32 1    
    64   32   33 1    
    65   32   34 1    
    66   32  155 1    
    67   33  156 1    
    68   33  157 1    
    69   33  158 1    
    70   34   35 am   BACKBONE|DICT|INTERRES
    71   34  159 1    
    72   35   36 2    
    73   35   37 1    
    74   37   38 1    
    75   37   39 1    
    76   37  160 1    
    77   38  161 1    
    78   38  162 1    
    79   38  163 1    
    80   39   40 am   BACKBONE|DICT|INTERRES
    81   39  164 1    
    82   40   41 2    
    83   40   42 1    
    84   42   43 1    
    85   42   44 1    
    86   42  165 1    
    87   43  166 1    
    88   43  167 1    
    89   43  168 1    
    90   44   45 am   BACKBONE|DICT|INTERRES
    91   44  169 1    
    92   45   46 2    
    93   45   47 1    
    94   47   48 1    
    95   47   49 1    
    96   47  170 1    
    97   48  171 1    
    98   48  172 1    
    99   48  173 1    
   100   49   50 am   BACKBONE|DICT|INTERRES
   101   49  174 1    
   102   50   51 2    
   103   50   52 1    
   104   52   53 1    
   105   52   54 1    
   106   52  175 1    
   107   53  176 1    
   108   53  177 1    
   109   53  178 1    
   110   54   55 am   BACKBONE|DICT|INTERRES
   111   54  179 1    
   112   55   56 2    
   113   55   57 1    
   114   57   58 1    
   115   57   59 1    
   116   57  180 1    
   117   58  181 1    
   118   58  182 1    
   119   58  183 1    
   120   59   60 am   BACKBONE|DICT|INTERRES
   121   59  184 1    
   122   60   61 2    
   123   60   62 1    
   124   62   63 1    
   125   62   64 1    
   126   62  185 1    
   127   63  186 1    
   128   63  187 1    
   129   63  188 1    
   130   64   65 am   BACKBONE|DICT|INTERRES
   131   64  189 1    
   132   65   66 2    
   133   67   68 2    
   134   67   69 am   BACKBONE|DICT|INTERRES
   135   69   70 1    
   136   69  190 1    
   137   70   71 1    
   138   70   72 1    
   139   70  191 1    
   140   71  192 1    
   141   71  193 1    
   142   71  194 1    
   143   72   73 2    
   144   72   74 am   BACKBONE|DICT|INTERRES
   145   74   75 1    
   146   74  195 1    
   147   75   76 1    
   148   75   77 1    
   149   75  196 1    
   150   76  197 1    
   151   76  198 1    
   152   76  199 1    
   153   77   78 2    
   154   77   79 am   BACKBONE|DICT|INTERRES
   155   79   80 1    
   156   79  200 1    
   157   80   81 1    
   158   80   82 1    
   159   80  201 1    
   160   81  202 1    
   161   81  203 1    
   162   81  204 1    
   163   82   83 2    
   164   82   84 am   BACKBONE|DICT|INTERRES
   165   84   85 1    
   166   84  205 1    
   167   85   86 1    
   168   85   87 1    
   169   85  206 1    
   170   86  207 1    
   171   86  208 1    
   172   86  209 1    
   173   87   88 2    
   174   87   89 am   BACKBONE|DICT|INTERRES
   175   89   90 1    
   176   89  210 1    
   177   90   91 1    
   178   90   92 1    
   179   90  211 1    
   180   91  212 1    
   181   91  213 1    
   182   91  214 1    
   183   92   93 2    
   184   92   94 am   BACKBONE|DICT|INTERRES
   185   94   95 1    
   186   94  215 1    
   187   95   96 1    
   188   95   97 1    
   189   95  216 1    
   190   96  217 1    
   191   96  218 1    
   192   96  219 1    
   193   97   98 2    
   194   97   99 am   BACKBONE|DICT|INTERRES
   195   99  100 1    
   196   99  220 1    
   197  100  101 1    
   198  100  102 1    
   199  100  221 1    
   200  101  222 1    
   201  101  223 1    
   202  101  224 1    
   203  102  103 2    
   204  102  104 am   BACKBONE|DICT|INTERRES
   205  104  105 1    
   206  104  225 1    
   207  105  106 1    
   208  105  107 1    
   209  105  226 1    
   210  106  227 1    
   211  106  228 1    
   212  106  229 1    
   213  107  108 2    
   214  107  109 am   BACKBONE|DICT|INTERRES
   215  109  110 1    
   216  109  230 1    
   217  110  111 1    
   218  110  112 1    
   219  110  231 1    
   220  111  232 1    
   221  111  233 1    
   222  111  234 1    
   223  112  113 2    
   224  112  114 am   BACKBONE|DICT|INTERRES
   225  114  115 1    
   226  114  235 1    
   227  115  116 1    
   228  115  117 1    
   229  115  236 1    
   230  116  237 1    
   231  116  238 1    
   232  116  239 1    
   233  117  118 2    
   234  117  119 am   BACKBONE|DICT|INTERRES
   235  119  120 1    
   236  119  240 1    
   237  120  121 1    
   238  120  124 1    
   239  120  241 1    
   240  121  122 am   BACKBONE|DICT|INTERRES
   241  121  123 2    
   242  122  242 1    
   243  122  243 1    
   244  124  125 1    
   245  124  244 1    
   246  124  245 1    
   247  125  126 1    
   248  126  246 1    
   249  126  247 1    
@<TRIPOS>SUBSTRUCTURE
     1 UNK         1 GROUP             0       ****    0 ROOT    
