@<TRIPOS>MOLECULE
3R540
247   249    1
SMALL
USER_CHARGES


@<TRIPOS>ATOM
      1 CA          3.6206  -10.6383  -49.6190 C.3       0 UNK        -0.1800 
      2 C           2.9633  -11.9209  -49.1301 C.2       0 UNK         0.5000 
      3 O           2.6889  -12.0538  -47.9370 O.2       0 UNK        -0.5000 
      4 N           2.7021  -12.8639  -50.0443 N.am      1 UNK        -0.5000 
      5 CA          2.0546  -14.1527  -49.7782 C.3       1 UNK         0.1400 
      6 C6          2.4660  -15.2134  -50.8315 C.3       23 UNK        -0.0398 
      7 S7          2.1541  -16.9236  -50.2702 S.3       23 UNK        -0.2404 
      8 C8          3.6960  -17.7530  -50.7669 C.3       23 UNK        -0.0205 
      9 C9          3.5155  -19.2619  -50.7763 C.ar      23 UNK        -0.0193 
     10 C10         2.8904  -19.8756  -51.8638 C.ar      23 UNK        -0.1150 
     11 C11         2.6723  -21.2555  -51.8759 C.ar      23 UNK        -0.0193 
     12 C12         3.1137  -22.0281  -50.7973 C.ar      23 UNK        -0.1150 
     13 C13         3.7682  -21.4312  -49.7142 C.ar      23 UNK        -0.0193 
     14 C14         3.9634  -20.0452  -49.7092 C.ar      23 UNK        -0.1150 
     15 C15         4.2899  -22.2912  -48.5684 C.3       23 UNK        -0.0205 
     16 S16         3.6784  -21.7554  -46.9386 S.3       23 UNK        -0.2404 
     17 C17         1.8970  -22.1213  -47.0637 C.3       23 UNK        -0.0398 
     18 CA          1.4401  -23.2293  -46.0848 C.3       11 UNK         0.1400 
     19 N           1.7488  -22.9008  -44.6910 N.am      11 UNK        -0.5000 
     20 C           1.8062  -23.7663  -43.6722 C.2       10 UNK         0.5000 
     21 O           1.6735  -24.9832  -43.8105 O.2       10 UNK        -0.5000 
     22 CA          1.9906  -23.1572  -42.2640 C.3       10 UNK         0.1400 
     23 CB          2.6961  -24.1132  -41.2799 C.3       10 UNK        -0.1800 
     24 N           2.6257  -21.8330  -42.2773 N.am      10 UNK        -0.5000 
     25 C           3.8812  -21.5272  -42.6405 C.2       9 UNK         0.5000 
     26 O           4.7231  -22.3650  -42.9654 O.2       9 UNK        -0.5000 
     27 CA          4.2675  -20.0329  -42.6678 C.3       9 UNK         0.1400 
     28 CB          4.5019  -19.5660  -44.1126 C.3       9 UNK        -0.1800 
     29 N           3.2714  -19.1527  -42.0540 N.am      9 UNK        -0.5000 
     30 C           3.0929  -18.9883  -40.7372 C.2       8 UNK         0.5000 
     31 O           3.7796  -19.5436  -39.8790 O.2       8 UNK        -0.5000 
     32 CA          1.9288  -18.0731  -40.3086 C.3       8 UNK         0.1400 
     33 CB          2.3651  -16.6003  -40.3108 C.3       8 UNK        -0.1800 
     34 N           0.7332  -18.2295  -41.1422 N.am      8 UNK        -0.5000 
     35 C           0.0108  -19.3556  -41.2319 C.2       7 UNK         0.5000 
     36 O           0.2733  -20.3883  -40.6154 O.2       7 UNK        -0.5000 
     37 CA         -1.1760  -19.3475  -42.2102 C.3       7 UNK         0.1400 
     38 CB         -2.3852  -18.6109  -41.6161 C.3       7 UNK        -0.1800 
     39 N          -0.8267  -18.7721  -43.5091 N.am      7 UNK        -0.5000 
     40 C           0.0459  -19.3204  -44.3660 C.2       6 UNK         0.5000 
     41 O           0.5807  -20.4126  -44.1824 O.2       6 UNK        -0.5000 
     42 CA          0.4148  -18.5064  -45.6189 C.3       6 UNK         0.1400 
     43 CB         -0.6113  -18.7321  -46.7399 C.3       6 UNK        -0.1800 
     44 N           0.5430  -17.0763  -45.3426 N.am      6 UNK        -0.5000 
     45 C           1.4395  -16.5389  -44.5030 C.2       5 UNK         0.5000 
     46 O           2.2955  -17.1896  -43.9065 O.2       5 UNK        -0.5000 
     47 CA          1.3168  -15.0307  -44.2344 C.3       5 UNK         0.1400 
     48 CB          1.9598  -14.2130  -45.3643 C.3       5 UNK        -0.1800 
     49 N          -0.0786  -14.6295  -44.0544 N.am      5 UNK        -0.5000 
     50 C          -0.8267  -14.9631  -42.9927 C.2       4 UNK         0.5000 
     51 O          -0.4019  -15.6105  -42.0356 O.2       4 UNK        -0.5000 
     52 CA         -2.3057  -14.5330  -43.0242 C.3       4 UNK         0.1400 
     53 CB         -2.4587  -13.0867  -42.5306 C.3       4 UNK        -0.1800 
     54 N          -2.8987  -14.6554  -44.3573 N.am      4 UNK        -0.5000 
     55 C          -3.1253  -15.8214  -44.9793 C.2       3 UNK         0.5000 
     56 O          -2.9081  -16.9191  -44.4682 O.2       3 UNK        -0.5000 
     57 CA         -3.6137  -15.7466  -46.4399 C.3       3 UNK         0.1400 
     58 CB         -5.1456  -15.6735  -46.5097 C.3       3 UNK        -0.1800 
     59 N          -3.0345  -14.6248  -47.1893 N.am      3 UNK        -0.5000 
     60 C          -1.7230  -14.4771  -47.4175 C.2       2 UNK         0.5000 
     61 O          -0.8783  -15.2853  -47.0265 O.2       2 UNK        -0.5000 
     62 CA         -1.2806  -13.1851  -48.1298 C.3       2 UNK         0.1400 
     63 CB         -1.3902  -11.9847  -47.1755 C.3       2 UNK        -0.1800 
     64 N           0.1068  -13.2879  -48.5761 N.am      2 UNK        -0.5000 
     65 C           0.5235  -13.9743  -49.6452 C.2       1 UNK         0.5000 
     66 O          -0.2401  -14.4199  -50.5028 O.2       1 UNK        -0.5000 
     67 C          -0.0687  -23.4813  -46.2690 C.2       11 UNK         0.5000 
     68 O          -0.4522  -24.2011  -47.1913 O.2       11 UNK        -0.5000 
     69 N          -0.8969  -22.8959  -45.3883 N.am      12 UNK        -0.5000 
     70 CA         -2.3655  -22.9261  -45.3938 C.3       12 UNK         0.1400 
     71 CB         -2.8830  -22.0235  -44.2646 C.3       12 UNK        -0.1800 
     72 C          -3.0164  -24.3255  -45.3182 C.2       12 UNK         0.5000 
     73 O          -4.2274  -24.4401  -45.5076 O.2       12 UNK        -0.5000 
     74 N          -2.2146  -25.3689  -45.0676 N.am      13 UNK        -0.5000 
     75 CA         -2.6004  -26.7717  -45.2203 C.3       13 UNK         0.1400 
     76 CB         -1.4969  -27.6556  -44.6195 C.3       13 UNK        -0.1800 
     77 C          -2.8691  -27.1661  -46.6900 C.2       13 UNK         0.5000 
     78 O          -3.6341  -28.1022  -46.9264 O.2       13 UNK        -0.5000 
     79 N          -2.2472  -26.4523  -47.6398 N.am      14 UNK        -0.5000 
     80 CA         -2.4172  -26.6355  -49.0814 C.3       14 UNK         0.1400 
     81 CB         -1.1095  -27.1806  -49.6776 C.3       14 UNK        -0.1800 
     82 C          -2.8238  -25.3259  -49.7794 C.2       14 UNK         0.5000 
     83 O          -3.6535  -25.3623  -50.6887 O.2       14 UNK        -0.5000 
     84 N          -2.2361  -24.1978  -49.3595 N.am      15 UNK        -0.5000 
     85 CA         -2.5035  -22.8681  -49.9030 C.3       15 UNK         0.1400 
     86 CB         -1.3860  -21.9123  -49.4506 C.3       15 UNK        -0.1800 
     87 C          -3.8662  -22.3182  -49.4487 C.2       15 UNK         0.5000 
     88 O          -4.2924  -22.5718  -48.3213 O.2       15 UNK        -0.5000 
     89 N          -4.4831  -21.5156  -50.3166 N.am      16 UNK        -0.5000 
     90 CA         -5.6210  -20.6530  -50.0083 C.3       16 UNK         0.1400 
     91 CB         -6.7310  -20.9020  -51.0371 C.3       16 UNK        -0.1800 
     92 C          -5.1823  -19.1800  -50.0511 C.2       16 UNK         0.5000 
     93 O          -5.6571  -18.3823  -49.2428 O.2       16 UNK        -0.5000 
     94 N          -4.2838  -18.8522  -50.9942 N.am      17 UNK        -0.5000 
     95 CA         -3.6096  -17.5749  -51.2543 C.3       17 UNK         0.1400 
     96 CB         -2.7723  -17.1396  -50.0394 C.3       17 UNK        -0.1800 
     97 C          -4.5227  -16.4298  -51.7356 C.2       17 UNK         0.5000 
     98 O          -4.1152  -15.6650  -52.6098 O.2       17 UNK        -0.5000 
     99 N          -5.7232  -16.3180  -51.1562 N.am      18 UNK        -0.5000 
    100 CA        -6.6730  -15.2299  -51.3741 C.3       18 UNK         0.1400 
    101 CB        -7.7903  -15.3168  -50.3222 C.3       18 UNK        -0.1800 
    102 C         -7.2590  -15.1873  -52.7966 C.2       18 UNK         0.5000 
    103 O         -7.2437  -14.1247  -53.4203 O.2       18 UNK        -0.5000 
    104 N         -7.7811  -16.3249  -53.2765 N.am      19 UNK        -0.5000 
    105 CA        -8.5131  -16.4141  -54.5451 C.3       19 UNK         0.1400 
    106 CB        -9.9217  -15.7991  -54.3856 C.3       19 UNK        -0.1800 
    107 C         -8.5671  -17.8510  -55.1004 C.2       19 UNK         0.5000 
    108 O         -9.5091  -18.1875  -55.8206 O.2       19 UNK        -0.5000 
    109 N         -7.5718  -18.6821  -54.7686 N.am      20 UNK        -0.5000 
    110 CA        -7.4546  -20.0611  -55.2426 C.3       20 UNK         0.1400 
    111 CB        -8.4237  -20.9928  -54.4785 C.3       20 UNK        -0.1800 
    112 C         -5.9760  -20.4833  -55.2059 C.2       20 UNK         0.5000 
    113 O         -5.1301  -19.7208  -55.6797 O.2       20 UNK        -0.5000 
    114 N         -5.6863  -21.6761  -54.6643 N.am      21 UNK        -0.5000 
    115 CA        -4.3579  -22.2877  -54.5570 C.3       21 UNK         0.1400 
    116 CB        -4.4692  -23.5804  -53.7339 C.3       21 UNK        -0.1800 
    117 C         -3.3169  -21.3471  -53.9266 C.2       21 UNK         0.5000 
    118 O         -3.5563  -20.8315  -52.8332 O.2       21 UNK        -0.5000 
    119 N         -2.2051  -21.1288  -54.6349 N.am      22 UNK        -0.5000 
    120 CA        -1.1266  -20.1849  -54.2881 C.3       22 UNK         0.1400 
    121 C         -1.4983  -18.6771  -54.4439 C.2       22 UNK         0.5000 
    122 N         -2.6751  -18.3124  -54.9397 N.am      22 UNK        -0.7600 
    123 O         -0.6854  -17.8103  -54.1373 O.2       22 UNK        -0.5000 
    124 C124       -0.4612  -20.4733  -52.9117 C.3       23 UNK        -0.0398 
    125 S125        0.2004  -22.1712  -52.7712 S.3       23 UNK        -0.2404 
    126 C126        1.9802  -21.9127  -53.0624 C.3       23 UNK        -0.0205 
    127 H127        2.9803   -9.7833  -49.4025 H         1 UNK         0.0600 
    128 H128        3.8066  -10.6613  -50.6930 H         1 UNK         0.0600 
    129 H129        4.5738  -10.4891  -49.1118 H         1 UNK         0.0600 
    130 H130        2.9205  -12.6785  -51.0131 H         1 UNK         0.3000 
    131 H131        2.4167  -14.5082  -48.8105 H         1 UNK         0.0600 
    132 H132        1.9629  -15.0496  -51.7861 H         1 UNK         0.0800 
    133 H133        3.5325  -15.1161  -51.0390 H         1 UNK         0.0800 
    134 H134        4.5009  -17.4623  -50.0900 H         1 UNK         0.0800 
    135 H135        3.9897  -17.4201  -51.7637 H         1 UNK         0.0800 
    136 H136        2.5612  -19.2694  -52.6960 H         1 UNK         0.1150 
    137 H137        2.9548  -23.0974  -50.8096 H         1 UNK         0.1150 
    138 H138        4.4602  -19.5773  -48.8707 H         1 UNK         0.1150 
    139 H139        4.0309  -23.3409  -48.7156 H         1 UNK         0.0800 
    140 H140        5.3794  -22.2417  -48.5655 H         1 UNK         0.0800 
    141 H141        1.6579  -22.4022  -48.0910 H         1 UNK         0.0800 
    142 H142        1.3575  -21.1929  -46.8745 H         1 UNK         0.0800 
    143 H143        1.9613  -24.1529  -46.3454 H         1 UNK         0.0600 
    144 H144        1.7869  -21.9108  -44.4701 H         1 UNK         0.3000 
    145 H145        0.9819  -22.9905  -41.8836 H         1 UNK         0.0600 
    146 H146        2.8124  -23.6530  -40.2987 H         1 UNK         0.0600 
    147 H147        2.1173  -25.0271  -41.1416 H         1 UNK         0.0600 
    148 H148        3.6845  -24.4063  -41.6341 H         1 UNK         0.0600 
    149 H149        2.0145  -21.0642  -42.0331 H         1 UNK         0.3000 
    150 H150        5.2070  -19.9304  -42.1210 H         1 UNK         0.0600 
    151 H151        5.2559  -20.1780  -44.6091 H         1 UNK         0.0600 
    152 H152        4.8511  -18.5338  -44.1422 H         1 UNK         0.0600 
    153 H153        3.5872  -19.6257  -44.7037 H         1 UNK         0.0600 
    154 H154        2.7102  -18.5946  -42.6931 H         1 UNK         0.3000 
    155 H155        1.6568  -18.3435  -39.2862 H         1 UNK         0.0600 
    156 H156        3.2377  -16.4499  -39.6740 H         1 UNK         0.0600 
    157 H157        1.5720  -15.9539  -39.9344 H         1 UNK         0.0600 
    158 H158        2.6264  -16.2592  -41.3128 H         1 UNK         0.0600 
    159 H159        0.4305  -17.4103  -41.6598 H         1 UNK         0.3000 
    160 H160       -1.4655  -20.3867  -42.3684 H         1 UNK         0.0600 
    161 H161       -2.1779  -17.5531  -41.4565 H         1 UNK         0.0600 
    162 H162       -2.6691  -19.0391  -40.6540 H         1 UNK         0.0600 
    163 H163       -3.2515  -18.6859  -42.2735 H         1 UNK         0.0600 
    164 H164       -1.2908  -17.9074  -43.7662 H         1 UNK         0.3000 
    165 H165        1.3860  -18.8615  -45.9693 H         1 UNK         0.0600 
    166 H166       -0.3163  -18.2153  -47.6537 H         1 UNK         0.0600 
    167 H167       -0.7052  -19.7916  -46.9792 H         1 UNK         0.0600 
    168 H168       -1.6007  -18.3730  -46.4575 H         1 UNK         0.0600 
    169 H169       -0.0918  -16.4548  -45.8393 H         1 UNK         0.3000 
    170 H170        1.8554  -14.8088  -43.3106 H         1 UNK         0.0600 
    171 H171        3.0227  -14.4414  -45.4509 H         1 UNK         0.0600 
    172 H172        1.5054  -14.4255  -46.3309 H         1 UNK         0.0600 
    173 H173        1.8724  -13.1421  -45.1801 H         1 UNK         0.0600 
    174 H174       -0.5170  -14.1533  -44.8274 H         1 UNK         0.3000 
    175 H175       -2.8569  -15.1860  -42.3441 H         1 UNK         0.0600 
    176 H176       -2.0389  -12.9699  -41.5306 H         1 UNK         0.0600 
    177 H177       -1.9485  -12.3795  -43.1858 H         1 UNK         0.0600 
    178 H178       -3.5084  -12.7978  -42.4767 H         1 UNK         0.0600 
    179 H179       -3.1098  -13.7983  -44.8460 H         1 UNK         0.3000 
    180 H180       -3.2993  -16.6724  -46.9238 H         1 UNK         0.0600 
    181 H181       -5.5269  -14.7481  -46.0765 H         1 UNK         0.0600 
    182 H182       -5.6004  -16.5036  -45.9674 H         1 UNK         0.0600 
    183 H183       -5.4945  -15.7339  -47.5410 H         1 UNK         0.0600 
    184 H184       -3.6785  -13.9225  -47.5236 H         1 UNK         0.3000 
    185 H185       -1.9281  -13.0197  -48.9934 H         1 UNK         0.0600 
    186 H186       -2.4172  -11.8354  -46.8405 H         1 UNK         0.0600 
    187 H187       -0.7694  -12.1160  -46.2881 H         1 UNK         0.0600 
    188 H188       -1.0761  -11.0636  -47.6670 H         1 UNK         0.0600 
    189 H189        0.8169  -12.9136  -47.9568 H         1 UNK         0.3000 
    190 H190       -0.4717  -22.3054  -44.6845 H         1 UNK         0.3000 
    191 H191       -2.6830  -22.4875  -46.3389 H         1 UNK         0.0600 
    192 H192       -2.5258  -22.3572  -43.2900 H         1 UNK         0.0600 
    193 H193       -3.9733  -22.0177  -44.2308 H         1 UNK         0.0600 
    194 H194       -2.5667  -20.9918  -44.4145 H         1 UNK         0.0600 
    195 H195       -1.2348  -25.1856  -44.9080 H         1 UNK         0.3000 
    196 H196       -3.5209  -26.9378  -44.6570 H         1 UNK         0.0600 
    197 H197       -1.7584  -28.7120  -44.6938 H         1 UNK         0.0600 
    198 H198       -1.3438  -27.4328  -43.5634 H         1 UNK         0.0600 
    199 H199       -0.5449  -27.5153  -45.1334 H         1 UNK         0.0600 
    200 H200       -1.6355  -25.6946  -47.3527 H         1 UNK         0.3000 
    201 H201       -3.2089  -27.3602  -49.2820 H         1 UNK         0.0600 
    202 H202       -0.8542  -28.1479  -49.2447 H         1 UNK         0.0600 
    203 H203       -0.2732  -26.5030  -49.4998 H         1 UNK         0.0600 
    204 H204       -1.1987  -27.3193  -50.7558 H         1 UNK         0.0600 
    205 H205       -1.5655  -24.2376  -48.5971 H         1 UNK         0.3000 
    206 H206       -2.4878  -22.9307  -50.9937 H         1 UNK         0.0600 
    207 H207       -0.4051  -22.2676  -49.7666 H         1 UNK         0.0600 
    208 H208       -1.5255  -20.9169  -49.8726 H         1 UNK         0.0600 
    209 H209       -1.3686  -21.7993  -48.3672 H         1 UNK         0.0600 
    210 H210       -4.0576  -21.3661  -51.2293 H         1 UNK         0.3000 
    211 H211       -6.0139  -20.8623  -49.0113 H         1 UNK         0.0600 
    212 H212       -7.6028  -20.2790  -50.8335 H         1 UNK         0.0600 
    213 H213       -7.0587  -21.9415  -51.0204 H         1 UNK         0.0600 
    214 H214       -6.3885  -20.6739  -52.0461 H         1 UNK         0.0600 
    215 H215       -4.0198  -19.5836  -51.6513 H         1 UNK         0.3000 
    216 H216       -2.9132  -17.7767  -52.0675 H         1 UNK         0.0600 
    217 H217       -2.1791  -16.2556  -50.2728 H         1 UNK         0.0600 
    218 H218       -2.0805  -17.9232  -49.7300 H         1 UNK         0.0600 
    219 H219       -3.4044  -16.8903  -49.1895 H         1 UNK         0.0600 
    220 H220       -5.9424  -16.9863  -50.4217 H         1 UNK         0.3000 
    221 H221       -6.1381  -14.2914  -51.2134 H         1 UNK         0.0600 
    222 H222       -8.3301  -16.2626  -50.3818 H         1 UNK         0.0600 
    223 H223       -7.3881  -15.2258  -49.3130 H         1 UNK         0.0600 
    224 H224       -8.5167  -14.5140  -50.4552 H         1 UNK         0.0600 
    225 H225       -7.7665  -17.1556  -52.7018 H         1 UNK         0.3000 
    226 H226       -7.9728  -15.8336  -55.2958 H         1 UNK         0.0600 
    227 H227       -9.8738  -14.7591  -54.0636 H         1 UNK         0.0600 
    228 H228      -10.4697  -15.8100  -55.3286 H         1 UNK         0.0600 
    229 H229      -10.5140  -16.3483  -53.6530 H         1 UNK         0.0600 
    230 H230       -6.7726  -18.3242  -54.2641 H         1 UNK         0.3000 
    231 H231       -7.7323  -20.0873  -56.2984 H         1 UNK         0.0600 
    232 H232       -9.4588  -20.6837  -54.6231 H         1 UNK         0.0600 
    233 H233       -8.2346  -20.9924  -53.4068 H         1 UNK         0.0600 
    234 H234       -8.3569  -22.0213  -54.8349 H         1 UNK         0.0600 
    235 H235       -6.4497  -22.2198  -54.2905 H         1 UNK         0.3000 
    236 H236       -4.0352  -22.5480  -55.5668 H         1 UNK         0.0600 
    237 H237       -3.4962  -24.0618  -53.6248 H         1 UNK         0.0600 
    238 H238       -4.8512  -23.3886  -52.7301 H         1 UNK         0.0600 
    239 H239       -5.1339  -24.2992  -54.2131 H         1 UNK         0.0600 
    240 H240       -2.1025  -21.5857  -55.5295 H         1 UNK         0.3000 
    241 H241       -0.3605  -20.3473  -55.0469 H         1 UNK         0.0600 
    242 H242       -2.8750  -17.3302  -55.0384 H         1 UNK         0.3800 
    243 H243       -3.3810  -18.9901  -55.2098 H         1 UNK         0.3800 
    244 H244        0.3399  -19.7620  -52.7234 H         1 UNK         0.0800 
    245 H245       -1.1718  -20.3134  -52.1023 H         1 UNK         0.0800 
    246 H246        2.4450  -22.8794  -53.2617 H         1 UNK         0.0800 
    247 H247        2.1196  -21.3188  -53.9670 H         1 UNK         0.0800 
@<TRIPOS>BOND
     1    1    2 1    
     2    1  127 1    
     3    1  128 1    
     4    1  129 1    
     5    2    3 2    
     6    2    4 am   BACKBONE|DICT|INTERRES
     7    4    5 1    
     8    4  130 1    
     9    5    6 1    
    10    5   65 1    
    11    5  131 1    
    12    6    7 1    
    13    6  132 1    
    14    6  133 1    
    15    7    8 1    
    16    8    9 1    
    17    8  134 1    
    18    8  135 1    
    19    9   10 ar   
    20    9   14 ar   
    21   10   11 ar   
    22   10  136 1    
    23   11   12 ar   
    24   11  126 1    
    25   12   13 ar   
    26   12  137 1    
    27   13   14 ar   
    28   13   15 1    
    29   14  138 1    
    30   15   16 1    
    31   15  139 1    
    32   15  140 1    
    33   16   17 1    
    34   17   18 1    
    35   17  141 1    
    36   17  142 1    
    37   18   19 1    
    38   18   67 1    
    39   18  143 1    
    40   19   20 am   BACKBONE|DICT|INTERRES
    41   19  144 1    
    42   20   21 2    
    43   20   22 1    
    44   22   23 1    
    45   22   24 1    
    46   22  145 1    
    47   23  146 1    
    48   23  147 1    
    49   23  148 1    
    50   24   25 am   BACKBONE|DICT|INTERRES
    51   24  149 1    
    52   25   26 2    
    53   25   27 1    
    54   27   28 1    
    55   27   29 1    
    56   27  150 1    
    57   28  151 1    
    58   28  152 1    
    59   28  153 1    
    60   29   30 am   BACKBONE|DICT|INTERRES
    61   29  154 1    
    62   30   31 2    
    63   30   32 1    
    64   32   33 1    
    65   32   34 1    
    66   32  155 1    
    67   33  156 1    
    68   33  157 1    
    69   33  158 1    
    70   34   35 am   BACKBONE|DICT|INTERRES
    71   34  159 1    
    72   35   36 2    
    73   35   37 1    
    74   37   38 1    
    75   37   39 1    
    76   37  160 1    
    77   38  161 1    
    78   38  162 1    
    79   38  163 1    
    80   39   40 am   BACKBONE|DICT|INTERRES
    81   39  164 1    
    82   40   41 2    
    83   40   42 1    
    84   42   43 1    
    85   42   44 1    
    86   42  165 1    
    87   43  166 1    
    88   43  167 1    
    89   43  168 1    
    90   44   45 am   BACKBONE|DICT|INTERRES
    91   44  169 1    
    92   45   46 2    
    93   45   47 1    
    94   47   48 1    
    95   47   49 1    
    96   47  170 1    
    97   48  171 1    
    98   48  172 1    
    99   48  173 1    
   100   49   50 am   BACKBONE|DICT|INTERRES
   101   49  174 1    
   102   50   51 2    
   103   50   52 1    
   104   52   53 1    
   105   52   54 1    
   106   52  175 1    
   107   53  176 1    
   108   53  177 1    
   109   53  178 1    
   110   54   55 am   BACKBONE|DICT|INTERRES
   111   54  179 1    
   112   55   56 2    
   113   55   57 1    
   114   57   58 1    
   115   57   59 1    
   116   57  180 1    
   117   58  181 1    
   118   58  182 1    
   119   58  183 1    
   120   59   60 am   BACKBONE|DICT|INTERRES
   121   59  184 1    
   122   60   61 2    
   123   60   62 1    
   124   62   63 1    
   125   62   64 1    
   126   62  185 1    
   127   63  186 1    
   128   63  187 1    
   129   63  188 1    
   130   64   65 am   BACKBONE|DICT|INTERRES
   131   64  189 1    
   132   65   66 2    
   133   67   68 2    
   134   67   69 am   BACKBONE|DICT|INTERRES
   135   69   70 1    
   136   69  190 1    
   137   70   71 1    
   138   70   72 1    
   139   70  191 1    
   140   71  192 1    
   141   71  193 1    
   142   71  194 1    
   143   72   73 2    
   144   72   74 am   BACKBONE|DICT|INTERRES
   145   74   75 1    
   146   74  195 1    
   147   75   76 1    
   148   75   77 1    
   149   75  196 1    
   150   76  197 1    
   151   76  198 1    
   152   76  199 1    
   153   77   78 2    
   154   77   79 am   BACKBONE|DICT|INTERRES
   155   79   80 1    
   156   79  200 1    
   157   80   81 1    
   158   80   82 1    
   159   80  201 1    
   160   81  202 1    
   161   81  203 1    
   162   81  204 1    
   163   82   83 2    
   164   82   84 am   BACKBONE|DICT|INTERRES
   165   84   85 1    
   166   84  205 1    
   167   85   86 1    
   168   85   87 1    
   169   85  206 1    
   170   86  207 1    
   171   86  208 1    
   172   86  209 1    
   173   87   88 2    
   174   87   89 am   BACKBONE|DICT|INTERRES
   175   89   90 1    
   176   89  210 1    
   177   90   91 1    
   178   90   92 1    
   179   90  211 1    
   180   91  212 1    
   181   91  213 1    
   182   91  214 1    
   183   92   93 2    
   184   92   94 am   BACKBONE|DICT|INTERRES
   185   94   95 1    
   186   94  215 1    
   187   95   96 1    
   188   95   97 1    
   189   95  216 1    
   190   96  217 1    
   191   96  218 1    
   192   96  219 1    
   193   97   98 2    
   194   97   99 am   BACKBONE|DICT|INTERRES
   195   99  100 1    
   196   99  220 1    
   197  100  101 1    
   198  100  102 1    
   199  100  221 1    
   200  101  222 1    
   201  101  223 1    
   202  101  224 1    
   203  102  103 2    
   204  102  104 am   BACKBONE|DICT|INTERRES
   205  104  105 1    
   206  104  225 1    
   207  105  106 1    
   208  105  107 1    
   209  105  226 1    
   210  106  227 1    
   211  106  228 1    
   212  106  229 1    
   213  107  108 2    
   214  107  109 am   BACKBONE|DICT|INTERRES
   215  109  110 1    
   216  109  230 1    
   217  110  111 1    
   218  110  112 1    
   219  110  231 1    
   220  111  232 1    
   221  111  233 1    
   222  111  234 1    
   223  112  113 2    
   224  112  114 am   BACKBONE|DICT|INTERRES
   225  114  115 1    
   226  114  235 1    
   227  115  116 1    
   228  115  117 1    
   229  115  236 1    
   230  116  237 1    
   231  116  238 1    
   232  116  239 1    
   233  117  118 2    
   234  117  119 am   BACKBONE|DICT|INTERRES
   235  119  120 1    
   236  119  240 1    
   237  120  121 1    
   238  120  124 1    
   239  120  241 1    
   240  121  122 am   BACKBONE|DICT|INTERRES
   241  121  123 2    
   242  122  242 1    
   243  122  243 1    
   244  124  125 1    
   245  124  244 1    
   246  124  245 1    
   247  125  126 1    
   248  126  246 1    
   249  126  247 1    
@<TRIPOS>SUBSTRUCTURE
     1 UNK         1 GROUP             0       ****    0 ROOT    
