@<TRIPOS>MOLECULE
3R540
247   249    1
SMALL
USER_CHARGES


@<TRIPOS>ATOM
      1 CA         -5.0740  -17.1014  -45.5191 C.3       0 UNK        -0.1800 
      2 C          -4.9228  -16.2870  -46.7961 C.2       0 UNK         0.5000 
      3 O          -5.9092  -15.7521  -47.3023 O.2       0 UNK        -0.5000 
      4 N          -3.6900  -16.1947  -47.3071 N.am      1 UNK        -0.5000 
      5 CA         -3.3222  -15.4377  -48.5073 C.3       1 UNK         0.1400 
      6 C6         -2.1411  -16.1160  -49.2590 C.3       23 UNK        -0.0398 
      7 S7         -0.5804  -16.1643  -48.3094 S.3       23 UNK        -0.2404 
      8 C8         -0.6432  -17.8338  -47.5924 C.3       23 UNK        -0.0205 
      9 C9         -0.0504  -18.8873  -48.5131 C.ar      23 UNK        -0.0193 
     10 C10        -0.8768  -19.6739  -49.3226 C.ar      23 UNK        -0.1150 
     11 C11        -0.3245  -20.6519  -50.1556 C.ar      23 UNK        -0.0193 
     12 C12         1.0605  -20.8467  -50.1649 C.ar      23 UNK        -0.1150 
     13 C13         1.8968  -20.0695  -49.3584 C.ar      23 UNK        -0.0193 
     14 C14         1.3330  -19.0895  -48.5361 C.ar      23 UNK        -0.1150 
     15 C15         3.4090  -20.2601  -49.4164 C.3       23 UNK        -0.0205 
     16 S16         4.1545  -20.6566  -47.8006 S.3       23 UNK        -0.2404 
     17 C17         3.4037  -22.2757  -47.4274 C.3       23 UNK        -0.0398 
     18 CA          4.2109  -23.0792  -46.3745 C.3       11 UNK         0.1400 
     19 N           4.2237  -22.4094  -45.0676 N.am      11 UNK        -0.5000 
     20 C           5.0578  -22.6949  -44.0586 C.2       10 UNK         0.5000 
     21 O           5.9636  -23.5257  -44.1351 O.2       10 UNK        -0.5000 
     22 CA          4.8143  -21.9567  -42.7277 C.3       10 UNK         0.1400 
     23 CB          5.4723  -20.5684  -42.7356 C.3       10 UNK        -0.1800 
     24 N           3.3897  -21.8268  -42.4107 N.am      10 UNK        -0.5000 
     25 C           2.5942  -22.8494  -42.0637 C.2       9 UNK         0.5000 
     26 O           2.9884  -24.0084  -41.9353 O.2       9 UNK        -0.5000 
     27 CA          1.0989  -22.5376  -41.8631 C.3       9 UNK         0.1400 
     28 CB          0.8371  -22.0066  -40.4459 C.3       9 UNK        -0.1800 
     29 N           0.5817  -21.5822  -42.8407 N.am      9 UNK        -0.5000 
     30 C           0.5153  -21.7980  -44.1613 C.2       8 UNK         0.5000 
     31 O           0.8302  -22.8562  -44.7025 O.2       8 UNK        -0.5000 
     32 CA          0.0751  -20.6095  -45.0311 C.3       8 UNK         0.1400 
     33 CB         -1.4549  -20.5153  -45.0607 C.3       8 UNK        -0.1800 
     34 N           0.6608  -19.3415  -44.5875 N.am      8 UNK        -0.5000 
     35 C           1.9807  -19.1012  -44.5653 C.2       7 UNK         0.5000 
     36 O           2.8252  -19.9228  -44.9110 O.2       7 UNK        -0.5000 
     37 CA          2.4440  -17.7464  -44.0123 C.3       7 UNK         0.1400 
     38 CB          2.4005  -16.6679  -45.0988 C.3       7 UNK        -0.1800 
     39 N           1.6469  -17.3287  -42.8625 N.am      7 UNK        -0.5000 
     40 C           1.7277  -17.9062  -41.6549 C.2       6 UNK         0.5000 
     41 O           2.5325  -18.7951  -41.3738 O.2       6 UNK        -0.5000 
     42 CA          0.6978  -17.4505  -40.6047 C.3       6 UNK         0.1400 
     43 CB          1.1522  -16.1501  -39.9253 C.3       6 UNK        -0.1800 
     44 N          -0.6354  -17.2573  -41.1779 N.am      6 UNK        -0.5000 
     45 C          -1.3707  -18.2263  -41.7421 C.2       5 UNK         0.5000 
     46 O          -1.0268  -19.4071  -41.7752 O.2       5 UNK        -0.5000 
     47 CA         -2.6895  -17.8066  -42.4192 C.3       5 UNK         0.1400 
     48 CB         -3.8861  -18.0949  -41.5020 C.3       5 UNK        -0.1800 
     49 N          -2.7188  -16.3982  -42.8208 N.am      5 UNK        -0.5000 
     50 C          -1.9680  -15.8591  -43.7912 C.2       4 UNK         0.5000 
     51 O          -1.1788  -16.5152  -44.4758 O.2       4 UNK        -0.5000 
     52 CA         -2.1790  -14.3501  -44.0320 C.3       4 UNK         0.1400 
     53 CB         -2.1033  -13.5295  -42.7250 C.3       4 UNK        -0.1800 
     54 N          -1.3017  -13.7770  -45.0571 N.am      4 UNK        -0.5000 
     55 C           0.0259  -13.5828  -45.0067 C.2       3 UNK         0.5000 
     56 O           0.7257  -13.9022  -44.0444 O.2       3 UNK        -0.5000 
     57 CA          0.6846  -12.8857  -46.2213 C.3       3 UNK         0.1400 
     58 CB          1.9558  -13.6118  -46.6891 C.3       3 UNK        -0.1800 
     59 N          -0.2241  -12.7657  -47.3631 N.am      3 UNK        -0.5000 
     60 C          -0.9531  -11.6843  -47.6721 C.2       2 UNK         0.5000 
     61 O          -0.8861  -10.6158  -47.0641 O.2       2 UNK        -0.5000 
     62 CA         -1.9546  -11.8324  -48.8400 C.3       2 UNK         0.1400 
     63 CB         -1.3451  -11.2934  -50.1428 C.3       2 UNK        -0.1800 
     64 N          -2.4051  -13.2123  -49.0611 N.am      2 UNK        -0.5000 
     65 C          -3.0722  -13.9496  -48.1611 C.2       1 UNK         0.5000 
     66 O          -3.4308  -13.4949  -47.0718 O.2       1 UNK        -0.5000 
     67 C           3.6738  -24.5273  -46.2960 C.2       11 UNK         0.5000 
     68 O           3.9241  -25.3046  -47.2181 O.2       11 UNK        -0.5000 
     69 N           2.9276  -24.8493  -45.2265 N.am      12 UNK        -0.5000 
     70 CA          2.1291  -26.0644  -45.0213 C.3       12 UNK         0.1400 
     71 CB          3.0284  -27.3118  -44.8990 C.3       12 UNK        -0.1800 
     72 C           1.0252  -26.2005  -46.0931 C.2       12 UNK         0.5000 
     73 O           0.7922  -27.2871  -46.6268 O.2       12 UNK        -0.5000 
     74 N           0.3995  -25.0630  -46.4116 N.am      13 UNK        -0.5000 
     75 CA         -0.5748  -24.8894  -47.4799 C.3       13 UNK         0.1400 
     76 CB         -0.3118  -23.5228  -48.1318 C.3       13 UNK        -0.1800 
     77 C          -2.0199  -24.9653  -46.9598 C.2       13 UNK         0.5000 
     78 O          -2.2592  -24.9606  -45.7504 O.2       13 UNK        -0.5000 
     79 N          -2.9653  -24.9907  -47.9081 N.am      14 UNK        -0.5000 
     80 CA         -4.4125  -25.0162  -47.6743 C.3       14 UNK         0.1400 
     81 CB         -5.0981  -25.5148  -48.9576 C.3       14 UNK        -0.1800 
     82 C          -5.0111  -23.6605  -47.2367 C.2       14 UNK         0.5000 
     83 O          -6.2016  -23.6117  -46.9255 O.2       14 UNK        -0.5000 
     84 N          -4.1938  -22.5949  -47.2342 N.am      15 UNK        -0.5000 
     85 CA         -4.5407  -21.2113  -46.8854 C.3       15 UNK         0.1400 
     86 CB         -4.9784  -21.1007  -45.4082 C.3       15 UNK        -0.1800 
     87 C          -5.5461  -20.5890  -47.8744 C.2       15 UNK         0.5000 
     88 O          -6.5392  -19.9852  -47.4647 O.2       15 UNK        -0.5000 
     89 N          -5.2553  -20.7558  -49.1720 N.am      16 UNK        -0.5000 
     90 CA         -5.9811  -20.1354  -50.2804 C.3       16 UNK         0.1400 
     91 CB         -5.4795  -20.7425  -51.5972 C.3       16 UNK        -0.1800 
     92 C          -5.8111  -18.6033  -50.2931 C.2       16 UNK         0.5000 
     93 O          -4.8095  -18.0947  -49.7895 O.2       16 UNK        -0.5000 
     94 N          -6.7886  -17.9035  -50.8831 N.am      17 UNK        -0.5000 
     95 CA         -6.9215  -16.4418  -50.8591 C.3       17 UNK         0.1400 
     96 CB         -8.2824  -16.0663  -51.4663 C.3       17 UNK        -0.1800 
     97 C          -5.7945  -15.6525  -51.5571 C.2       17 UNK         0.5000 
     98 O          -5.6229  -14.4680  -51.2657 O.2       17 UNK        -0.5000 
     99 N          -5.0502  -16.3009  -52.4564 N.am      18 UNK        -0.5000 
    100 CA        -3.9359  -15.7322  -53.2041 C.3       18 UNK         0.1400 
    101 CB        -4.4699  -14.9373  -54.4099 C.3       18 UNK        -0.1800 
    102 C         -3.0285  -16.8754  -53.6689 C.2       18 UNK         0.5000 
    103 O         -3.4805  -18.0206  -53.7341 O.2       18 UNK        -0.5000 
    104 N         -1.7871  -16.5392  -54.0440 N.am      19 UNK        -0.5000 
    105 CA        -0.7774  -17.4783  -54.5490 C.3       19 UNK         0.1400 
    106 CB         0.5376  -16.7216  -54.7893 C.3       19 UNK        -0.1800 
    107 C         -1.2067  -18.2320  -55.8253 C.2       19 UNK         0.5000 
    108 O         -0.8116  -19.3809  -56.0210 O.2       19 UNK        -0.5000 
    109 N         -2.0326  -17.5799  -56.6545 N.am      20 UNK        -0.5000 
    110 CA        -2.6293  -18.1532  -57.8610 C.3       20 UNK         0.1400 
    111 CB        -3.0998  -17.0052  -58.7678 C.3       20 UNK        -0.1800 
    112 C         -3.7976  -19.1174  -57.5682 C.2       20 UNK         0.5000 
    113 O         -4.1374  -19.9231  -58.4353 O.2       20 UNK        -0.5000 
    114 N         -4.4016  -19.0160  -56.3753 N.am      21 UNK        -0.5000 
    115 CA        -5.5324  -19.8400  -55.9443 C.3       21 UNK         0.1400 
    116 CB        -6.4568  -18.9940  -55.0516 C.3       21 UNK        -0.1800 
    117 C         -5.0895  -21.1259  -55.2196 C.2       21 UNK         0.5000 
    118 O         -5.9205  -22.0144  -55.0262 O.2       21 UNK        -0.5000 
    119 N         -3.8115  -21.2054  -54.8230 N.am      22 UNK        -0.5000 
    120 CA        -3.1838  -22.3704  -54.1800 C.3       22 UNK         0.1400 
    121 C         -3.2469  -23.6562  -55.0536 C.2       22 UNK         0.5000 
    122 N         -3.5146  -24.8093  -54.4554 N.am      22 UNK        -0.7600 
    123 O         -3.0081  -23.6244  -56.2589 O.2       22 UNK        -0.5000 
    124 C124       -1.7135  -22.0807  -53.7875 C.3       23 UNK        -0.0398 
    125 S125       -1.5254  -20.6758  -52.6366 S.3       23 UNK        -0.2404 
    126 C126       -1.2140  -21.5031  -51.0491 C.3       23 UNK        -0.0205 
    127 H127       -5.2651  -16.4426  -44.6722 H         1 UNK         0.0600 
    128 H128       -4.1787  -17.6855  -45.3057 H         1 UNK         0.0600 
    129 H129       -5.9134  -17.7904  -45.6126 H         1 UNK         0.0600 
    130 H130       -2.9140  -16.6034  -46.8087 H         1 UNK         0.3000 
    131 H131       -4.1752  -15.4460  -49.1848 H         1 UNK         0.0600 
    132 H132       -2.4178  -17.1331  -49.5349 H         1 UNK         0.0800 
    133 H133       -1.9493  -15.6192  -50.2105 H         1 UNK         0.0800 
    134 H134       -0.0878  -17.8193  -46.6572 H         1 UNK         0.0800 
    135 H135       -1.6686  -18.0922  -47.3310 H         1 UNK         0.0800 
    136 H136       -1.9469  -19.5203  -49.3137 H         1 UNK         0.1150 
    137 H137        1.4877  -21.5982  -50.8138 H         1 UNK         0.1150 
    138 H138        1.9740  -18.4818  -47.9131 H         1 UNK         0.1150 
    139 H139        3.6772  -21.0401  -50.1305 H         1 UNK         0.0800 
    140 H140        3.8590  -19.3392  -49.7892 H         1 UNK         0.0800 
    141 H141        2.3801  -22.1126  -47.0857 H         1 UNK         0.0800 
    142 H142        3.3315  -22.8331  -48.3634 H         1 UNK         0.0800 
    143 H143        5.2436  -23.1489  -46.7228 H         1 UNK         0.0600 
    144 H144        3.5688  -21.6385  -44.9529 H         1 UNK         0.3000 
    145 H145        5.2818  -22.5429  -41.9336 H         1 UNK         0.0600 
    146 H146        5.3249  -20.0563  -41.7845 H         1 UNK         0.0600 
    147 H147        5.0704  -19.9316  -43.5233 H         1 UNK         0.0600 
    148 H148        6.5475  -20.6497  -42.8993 H         1 UNK         0.0600 
    149 H149        2.9867  -20.9027  -42.4942 H         1 UNK         0.3000 
    150 H150        0.5456  -23.4710  -41.9856 H         1 UNK         0.0600 
    151 H151        1.1918  -22.7108  -39.6923 H         1 UNK         0.0600 
    152 H152       -0.2285  -21.8539  -40.2736 H         1 UNK         0.0600 
    153 H153        1.3420  -21.0558  -40.2724 H         1 UNK         0.0600 
    154 H154        0.2367  -20.6983  -42.4766 H         1 UNK         0.3000 
    155 H155        0.4249  -20.7896  -46.0497 H         1 UNK         0.0600 
    156 H156       -1.8732  -21.4031  -45.5351 H         1 UNK         0.0600 
    157 H157       -1.7983  -19.6468  -45.6187 H         1 UNK         0.0600 
    158 H158       -1.8788  -20.4600  -44.0589 H         1 UNK         0.0600 
    159 H159        0.0285  -18.6158  -44.2790 H         1 UNK         0.3000 
    160 H160        3.4825  -17.8565  -43.6926 H         1 UNK         0.0600 
    161 H161        1.3795  -16.4489  -45.4100 H         1 UNK         0.0600 
    162 H162        2.9587  -16.9755  -45.9839 H         1 UNK         0.0600 
    163 H163        2.8463  -15.7422  -44.7369 H         1 UNK         0.0600 
    164 H164        0.9472  -16.6178  -43.0287 H         1 UNK         0.3000 
    165 H165        0.6288  -18.2315  -39.8444 H         1 UNK         0.0600 
    166 H166        0.4674  -15.8617  -39.1276 H         1 UNK         0.0600 
    167 H167        2.1398  -16.2688  -39.4776 H         1 UNK         0.0600 
    168 H168        1.2099  -15.3230  -40.6343 H         1 UNK         0.0600 
    169 H169       -0.9940  -16.3145  -41.1909 H         1 UNK         0.3000 
    170 H170       -2.8016  -18.4126  -43.3195 H         1 UNK         0.0600 
    171 H171       -3.9087  -19.1454  -41.2085 H         1 UNK         0.0600 
    172 H172       -3.8472  -17.4993  -40.5891 H         1 UNK         0.0600 
    173 H173       -4.8291  -17.8802  -42.0053 H         1 UNK         0.0600 
    174 H174       -3.3548  -15.8036  -42.3092 H         1 UNK         0.3000 
    175 H175       -3.1905  -14.2478  -44.4271 H         1 UNK         0.0600 
    176 H176       -1.1649  -13.6928  -42.1941 H         1 UNK         0.0600 
    177 H177       -2.1896  -12.4616  -42.9268 H         1 UNK         0.0600 
    178 H178       -2.9132  -13.7871  -42.0423 H         1 UNK         0.0600 
    179 H179       -1.7878  -13.4979  -45.9016 H         1 UNK         0.3000 
    180 H180        0.9820  -11.8913  -45.8829 H         1 UNK         0.0600 
    181 H181        2.6938  -13.6680  -45.8887 H         1 UNK         0.0600 
    182 H182        2.4254  -13.0838  -47.5190 H         1 UNK         0.0600 
    183 H183        1.7416  -14.6274  -47.0209 H         1 UNK         0.0600 
    184 H184       -0.3514  -13.6037  -47.9137 H         1 UNK         0.3000 
    185 H185       -2.8322  -11.2298  -48.5965 H         1 UNK         0.0600 
    186 H186       -1.0238  -10.2576  -50.0244 H         1 UNK         0.0600 
    187 H187       -0.4741  -11.8737  -50.4501 H         1 UNK         0.0600 
    188 H188       -2.0696  -11.3156  -50.9571 H         1 UNK         0.0600 
    189 H189       -2.1386  -13.6278  -49.9409 H         1 UNK         0.3000 
    190 H190        2.7564  -24.1116  -44.5557 H         1 UNK         0.3000 
    191 H191        1.6154  -25.9328  -44.0678 H         1 UNK         0.0600 
    192 H192        2.4427  -28.1861  -44.6132 H         1 UNK         0.0600 
    193 H193        3.7940  -27.1703  -44.1361 H         1 UNK         0.0600 
    194 H194        3.5292  -27.5483  -45.8379 H         1 UNK         0.0600 
    195 H195        0.5943  -24.2382  -45.8469 H         1 UNK         0.3000 
    196 H196       -0.4405  -25.6681  -48.2338 H         1 UNK         0.0600 
    197 H197       -0.4326  -22.7030  -47.4232 H         1 UNK         0.0600 
    198 H198        0.6990  -23.4682  -48.5360 H         1 UNK         0.0600 
    199 H199       -0.9967  -23.3464  -48.9589 H         1 UNK         0.0600 
    200 H200       -2.6785  -25.0006  -48.8763 H         1 UNK         0.3000 
    201 H201       -4.6198  -25.7320  -46.8761 H         1 UNK         0.0600 
    202 H202       -6.1761  -25.6061  -48.8180 H         1 UNK         0.0600 
    203 H203       -4.7280  -26.4986  -49.2469 H         1 UNK         0.0600 
    204 H204       -4.9328  -24.8333  -49.7931 H         1 UNK         0.0600 
    205 H205       -3.2362  -22.7551  -47.5064 H         1 UNK         0.3000 
    206 H206       -3.6260  -20.6293  -46.9990 H         1 UNK         0.0600 
    207 H207       -4.2577  -21.5762  -44.7434 H         1 UNK         0.0600 
    208 H208       -5.0616  -20.0584  -45.1023 H         1 UNK         0.0600 
    209 H209       -5.9482  -21.5673  -45.2343 H         1 UNK         0.0600 
    210 H210       -4.4184  -21.2609  -49.4156 H         1 UNK         0.3000 
    211 H211       -7.0409  -20.3713  -50.1637 H         1 UNK         0.0600 
    212 H212       -4.4443  -20.4656  -51.8006 H         1 UNK         0.0600 
    213 H213       -6.0822  -20.3957  -52.4356 H         1 UNK         0.0600 
    214 H214       -5.5440  -21.8306  -51.5858 H         1 UNK         0.0600 
    215 H215       -7.5610  -18.4064  -51.2952 H         1 UNK         0.3000 
    216 H216       -6.9214  -16.1330  -49.8122 H         1 UNK         0.0600 
    217 H217       -9.1026  -16.5267  -50.9152 H         1 UNK         0.0600 
    218 H218       -8.3569  -16.3806  -52.5082 H         1 UNK         0.0600 
    219 H219       -8.4410  -14.9873  -51.4372 H         1 UNK         0.0600 
    220 H220       -5.1869  -17.2932  -52.6001 H         1 UNK         0.3000 
    221 H221       -3.3567  -15.0758  -52.5515 H         1 UNK         0.0600 
    222 H222       -3.6551  -14.5046  -54.9914 H         1 UNK         0.0600 
    223 H223       -5.0537  -15.5702  -55.0799 H         1 UNK         0.0600 
    224 H224       -5.1081  -14.1134  -54.0903 H         1 UNK         0.0600 
    225 H225       -1.5005  -15.5732  -53.9785 H         1 UNK         0.3000 
    226 H226       -0.5984  -18.2200  -53.7703 H         1 UNK         0.0600 
    227 H227        0.9015  -16.2609  -53.8707 H         1 UNK         0.0600 
    228 H228        1.3177  -17.3976  -55.1424 H         1 UNK         0.0600 
    229 H229        0.4201  -15.9364  -55.5372 H         1 UNK         0.0600 
    230 H230       -2.2981  -16.6347  -56.4213 H         1 UNK         0.3000 
    231 H231       -1.8624  -18.7178  -58.3955 H         1 UNK         0.0600 
    232 H232       -3.5244  -17.3889  -59.6965 H         1 UNK         0.0600 
    233 H233       -2.2710  -16.3504  -59.0380 H         1 UNK         0.0600 
    234 H234       -3.8652  -16.3974  -58.2835 H         1 UNK         0.0600 
    235 H235       -4.0257  -18.3826  -55.6796 H         1 UNK         0.3000 
    236 H236       -6.1113  -20.1468  -56.8180 H         1 UNK         0.0600 
    237 H237       -6.7988  -18.1000  -55.5733 H         1 UNK         0.0600 
    238 H238       -7.3434  -19.5594  -54.7620 H         1 UNK         0.0600 
    239 H239       -5.9606  -18.6765  -54.1359 H         1 UNK         0.0600 
    240 H240       -3.2043  -20.4177  -54.9973 H         1 UNK         0.3000 
    241 H241       -3.7440  -22.5628  -53.2636 H         1 UNK         0.0600 
    242 H242       -3.7105  -24.8637  -53.4681 H         1 UNK         0.3800 
    243 H243       -3.5421  -25.6513  -55.0097 H         1 UNK         0.3800 
    244 H244       -1.2514  -22.9680  -53.3524 H         1 UNK         0.0800 
    245 H245       -1.1281  -21.8535  -54.6804 H         1 UNK         0.0800 
    246 H246       -2.1662  -21.7058  -50.5579 H         1 UNK         0.0800 
    247 H247       -0.7377  -22.4700  -51.2141 H         1 UNK         0.0800 
@<TRIPOS>BOND
     1    1    2 1    
     2    1  127 1    
     3    1  128 1    
     4    1  129 1    
     5    2    3 2    
     6    2    4 am   BACKBONE|DICT|INTERRES
     7    4    5 1    
     8    4  130 1    
     9    5    6 1    
    10    5   65 1    
    11    5  131 1    
    12    6    7 1    
    13    6  132 1    
    14    6  133 1    
    15    7    8 1    
    16    8    9 1    
    17    8  134 1    
    18    8  135 1    
    19    9   10 ar   
    20    9   14 ar   
    21   10   11 ar   
    22   10  136 1    
    23   11   12 ar   
    24   11  126 1    
    25   12   13 ar   
    26   12  137 1    
    27   13   14 ar   
    28   13   15 1    
    29   14  138 1    
    30   15   16 1    
    31   15  139 1    
    32   15  140 1    
    33   16   17 1    
    34   17   18 1    
    35   17  141 1    
    36   17  142 1    
    37   18   19 1    
    38   18   67 1    
    39   18  143 1    
    40   19   20 am   BACKBONE|DICT|INTERRES
    41   19  144 1    
    42   20   21 2    
    43   20   22 1    
    44   22   23 1    
    45   22   24 1    
    46   22  145 1    
    47   23  146 1    
    48   23  147 1    
    49   23  148 1    
    50   24   25 am   BACKBONE|DICT|INTERRES
    51   24  149 1    
    52   25   26 2    
    53   25   27 1    
    54   27   28 1    
    55   27   29 1    
    56   27  150 1    
    57   28  151 1    
    58   28  152 1    
    59   28  153 1    
    60   29   30 am   BACKBONE|DICT|INTERRES
    61   29  154 1    
    62   30   31 2    
    63   30   32 1    
    64   32   33 1    
    65   32   34 1    
    66   32  155 1    
    67   33  156 1    
    68   33  157 1    
    69   33  158 1    
    70   34   35 am   BACKBONE|DICT|INTERRES
    71   34  159 1    
    72   35   36 2    
    73   35   37 1    
    74   37   38 1    
    75   37   39 1    
    76   37  160 1    
    77   38  161 1    
    78   38  162 1    
    79   38  163 1    
    80   39   40 am   BACKBONE|DICT|INTERRES
    81   39  164 1    
    82   40   41 2    
    83   40   42 1    
    84   42   43 1    
    85   42   44 1    
    86   42  165 1    
    87   43  166 1    
    88   43  167 1    
    89   43  168 1    
    90   44   45 am   BACKBONE|DICT|INTERRES
    91   44  169 1    
    92   45   46 2    
    93   45   47 1    
    94   47   48 1    
    95   47   49 1    
    96   47  170 1    
    97   48  171 1    
    98   48  172 1    
    99   48  173 1    
   100   49   50 am   BACKBONE|DICT|INTERRES
   101   49  174 1    
   102   50   51 2    
   103   50   52 1    
   104   52   53 1    
   105   52   54 1    
   106   52  175 1    
   107   53  176 1    
   108   53  177 1    
   109   53  178 1    
   110   54   55 am   BACKBONE|DICT|INTERRES
   111   54  179 1    
   112   55   56 2    
   113   55   57 1    
   114   57   58 1    
   115   57   59 1    
   116   57  180 1    
   117   58  181 1    
   118   58  182 1    
   119   58  183 1    
   120   59   60 am   BACKBONE|DICT|INTERRES
   121   59  184 1    
   122   60   61 2    
   123   60   62 1    
   124   62   63 1    
   125   62   64 1    
   126   62  185 1    
   127   63  186 1    
   128   63  187 1    
   129   63  188 1    
   130   64   65 am   BACKBONE|DICT|INTERRES
   131   64  189 1    
   132   65   66 2    
   133   67   68 2    
   134   67   69 am   BACKBONE|DICT|INTERRES
   135   69   70 1    
   136   69  190 1    
   137   70   71 1    
   138   70   72 1    
   139   70  191 1    
   140   71  192 1    
   141   71  193 1    
   142   71  194 1    
   143   72   73 2    
   144   72   74 am   BACKBONE|DICT|INTERRES
   145   74   75 1    
   146   74  195 1    
   147   75   76 1    
   148   75   77 1    
   149   75  196 1    
   150   76  197 1    
   151   76  198 1    
   152   76  199 1    
   153   77   78 2    
   154   77   79 am   BACKBONE|DICT|INTERRES
   155   79   80 1    
   156   79  200 1    
   157   80   81 1    
   158   80   82 1    
   159   80  201 1    
   160   81  202 1    
   161   81  203 1    
   162   81  204 1    
   163   82   83 2    
   164   82   84 am   BACKBONE|DICT|INTERRES
   165   84   85 1    
   166   84  205 1    
   167   85   86 1    
   168   85   87 1    
   169   85  206 1    
   170   86  207 1    
   171   86  208 1    
   172   86  209 1    
   173   87   88 2    
   174   87   89 am   BACKBONE|DICT|INTERRES
   175   89   90 1    
   176   89  210 1    
   177   90   91 1    
   178   90   92 1    
   179   90  211 1    
   180   91  212 1    
   181   91  213 1    
   182   91  214 1    
   183   92   93 2    
   184   92   94 am   BACKBONE|DICT|INTERRES
   185   94   95 1    
   186   94  215 1    
   187   95   96 1    
   188   95   97 1    
   189   95  216 1    
   190   96  217 1    
   191   96  218 1    
   192   96  219 1    
   193   97   98 2    
   194   97   99 am   BACKBONE|DICT|INTERRES
   195   99  100 1    
   196   99  220 1    
   197  100  101 1    
   198  100  102 1    
   199  100  221 1    
   200  101  222 1    
   201  101  223 1    
   202  101  224 1    
   203  102  103 2    
   204  102  104 am   BACKBONE|DICT|INTERRES
   205  104  105 1    
   206  104  225 1    
   207  105  106 1    
   208  105  107 1    
   209  105  226 1    
   210  106  227 1    
   211  106  228 1    
   212  106  229 1    
   213  107  108 2    
   214  107  109 am   BACKBONE|DICT|INTERRES
   215  109  110 1    
   216  109  230 1    
   217  110  111 1    
   218  110  112 1    
   219  110  231 1    
   220  111  232 1    
   221  111  233 1    
   222  111  234 1    
   223  112  113 2    
   224  112  114 am   BACKBONE|DICT|INTERRES
   225  114  115 1    
   226  114  235 1    
   227  115  116 1    
   228  115  117 1    
   229  115  236 1    
   230  116  237 1    
   231  116  238 1    
   232  116  239 1    
   233  117  118 2    
   234  117  119 am   BACKBONE|DICT|INTERRES
   235  119  120 1    
   236  119  240 1    
   237  120  121 1    
   238  120  124 1    
   239  120  241 1    
   240  121  122 am   BACKBONE|DICT|INTERRES
   241  121  123 2    
   242  122  242 1    
   243  122  243 1    
   244  124  125 1    
   245  124  244 1    
   246  124  245 1    
   247  125  126 1    
   248  126  246 1    
   249  126  247 1    
@<TRIPOS>SUBSTRUCTURE
     1 UNK         1 GROUP             0       ****    0 ROOT    
