@<TRIPOS>MOLECULE
3R540
247   249    1
SMALL
USER_CHARGES


@<TRIPOS>ATOM
      1 CA         -6.9311  -10.1063  -48.0965 C.3       0 UNK        -0.1800 
      2 C          -7.0320  -11.5944  -47.7659 C.2       0 UNK         0.5000 
      3 O          -8.0414  -12.0216  -47.2091 O.2       0 UNK        -0.5000 
      4 N          -6.0267  -12.4239  -48.0837 N.am      1 UNK        -0.5000 
      5 CA         -4.7473  -12.0654  -48.7143 C.3       1 UNK         0.1400 
      6 C6         -4.0992  -13.3015  -49.3948 C.3       23 UNK        -0.0398 
      7 S7         -3.0298  -12.8540  -50.8069 S.3       23 UNK        -0.2404 
      8 C8         -1.3642  -13.1713  -50.1416 C.3       23 UNK        -0.0205 
      9 C9         -0.9447  -14.6196  -50.3412 C.ar      23 UNK        -0.0193 
     10 C10        -0.3033  -15.0066  -51.5221 C.ar      23 UNK        -0.1150 
     11 C11         0.0897  -16.3343  -51.7156 C.ar      23 UNK        -0.0193 
     12 C12        -0.1722  -17.2779  -50.7173 C.ar      23 UNK        -0.1150 
     13 C13        -0.7979  -16.9016  -49.5276 C.ar      23 UNK        -0.0193 
     14 C14        -1.1831  -15.5708  -49.3455 C.ar      23 UNK        -0.1150 
     15 C15        -1.0320  -17.9251  -48.4306 C.3       23 UNK        -0.0205 
     16 S16        -2.7024  -18.6290  -48.5100 S.3       23 UNK        -0.2404 
     17 C17        -2.7659  -19.5549  -46.9397 C.3       23 UNK        -0.0398 
     18 CA         -2.4549  -21.0629  -47.1311 C.3       11 UNK         0.1400 
     19 N          -1.0539  -21.3981  -46.8530 N.am      11 UNK        -0.5000 
     20 C          -0.4912  -22.5912  -47.0964 C.2       10 UNK         0.5000 
     21 O          -1.0779  -23.5220  -47.6448 O.2       10 UNK        -0.5000 
     22 CA          0.9461  -22.8065  -46.5891 C.3       10 UNK         0.1400 
     23 CB          1.9752  -22.1678  -47.5343 C.3       10 UNK        -0.1800 
     24 N           1.1313  -22.3051  -45.2265 N.am      10 UNK        -0.5000 
     25 C           0.5025  -22.8005  -44.1504 C.2       9 UNK         0.5000 
     26 O          -0.2493  -23.7745  -44.1881 O.2       9 UNK        -0.5000 
     27 CA          0.7034  -22.0550  -42.8188 C.3       9 UNK         0.1400 
     28 CB          1.9941  -22.5064  -42.1191 C.3       9 UNK        -0.1800 
     29 N           0.7131  -20.6023  -42.9945 N.am      9 UNK        -0.5000 
     30 C          -0.3625  -19.8774  -43.3340 C.2       8 UNK         0.5000 
     31 O          -1.4853  -20.3540  -43.4964 O.2       8 UNK        -0.5000 
     32 CA         -0.1347  -18.3763  -43.5909 C.3       8 UNK         0.1400 
     33 CB         -0.1700  -17.5869  -42.2743 C.3       8 UNK        -0.1800 
     34 N           1.1198  -18.0978  -44.2921 N.am      8 UNK        -0.5000 
     35 C           1.4328  -18.5699  -45.5065 C.2       7 UNK         0.5000 
     36 O           0.6744  -19.2660  -46.1770 O.2       7 UNK        -0.5000 
     37 CA          2.8483  -18.2750  -46.0296 C.3       7 UNK         0.1400 
     38 CB          2.9294  -16.8650  -46.6333 C.3       7 UNK        -0.1800 
     39 N           3.8645  -18.4388  -44.9882 N.am      7 UNK        -0.5000 
     40 C           4.1395  -19.5923  -44.3638 C.2       6 UNK         0.5000 
     41 O           3.5967  -20.6586  -44.6542 O.2       6 UNK        -0.5000 
     42 CA          5.1307  -19.5559  -43.1815 C.3       6 UNK         0.1400 
     43 CB          6.5856  -19.7225  -43.6596 C.3       6 UNK        -0.1800 
     44 N           4.9635  -18.3911  -42.2976 N.am      6 UNK        -0.5000 
     45 C           5.2254  -17.1036  -42.5577 C.2       5 UNK         0.5000 
     46 O           5.7575  -16.7028  -43.5958 O.2       5 UNK        -0.5000 
     47 CA          4.7621  -16.0850  -41.4962 C.3       5 UNK         0.1400 
     48 CB          5.9265  -15.7010  -40.5712 C.3       5 UNK        -0.1800 
     49 N           4.2137  -14.8713  -42.1082 N.am      5 UNK        -0.5000 
     50 C           3.1858  -14.8462  -42.9680 C.2       4 UNK         0.5000 
     51 O           2.5141  -15.8434  -43.2469 O.2       4 UNK        -0.5000 
     52 CA          2.8996  -13.4928  -43.6511 C.3       4 UNK         0.1400 
     53 CB          4.1283  -13.0013  -44.4377 C.3       4 UNK        -0.1800 
     54 N           1.7769  -13.5844  -44.5839 N.am      4 UNK        -0.5000 
     55 C           0.4844  -13.5334  -44.2461 C.2       3 UNK         0.5000 
     56 O           0.0735  -13.3316  -43.1004 O.2       3 UNK        -0.5000 
     57 CA         -0.5131  -13.7884  -45.3936 C.3       3 UNK         0.1400 
     58 CB         -0.9206  -15.2687  -45.4148 C.3       3 UNK        -0.1800 
     59 N          -1.7259  -12.9767  -45.3030 N.am      3 UNK        -0.5000 
     60 C          -1.7784  -11.6381  -45.3199 C.2       2 UNK         0.5000 
     61 O          -0.7894  -10.9069  -45.4044 O.2       2 UNK        -0.5000 
     62 CA         -3.2014  -11.0430  -45.2947 C.3       2 UNK         0.1400 
     63 CB         -3.2228   -9.5004  -45.2395 C.3       2 UNK        -0.1800 
     64 N          -4.0109  -11.5439  -46.4142 N.am      2 UNK        -0.5000 
     65 C          -3.7696  -11.3821  -47.7270 C.2       1 UNK         0.5000 
     66 O          -2.8366  -10.7153  -48.1737 O.2       1 UNK        -0.5000 
     67 C          -3.4279  -21.9423  -46.3219 C.2       11 UNK         0.5000 
     68 O          -4.4153  -22.4068  -46.8884 O.2       11 UNK        -0.5000 
     69 N          -3.1345  -22.1886  -45.0370 N.am      12 UNK        -0.5000 
     70 CA         -3.9193  -23.0788  -44.1780 C.3       12 UNK         0.1400 
     71 CB         -3.4182  -22.9926  -42.7287 C.3       12 UNK        -0.1800 
     72 C          -3.9201  -24.5347  -44.6803 C.2       12 UNK         0.5000 
     73 O          -4.9856  -25.1477  -44.7528 O.2       12 UNK        -0.5000 
     74 N          -2.7412  -25.0402  -45.0709 N.am      13 UNK        -0.5000 
     75 CA         -2.5585  -26.3656  -45.6685 C.3       13 UNK         0.1400 
     76 CB         -1.0572  -26.6679  -45.7891 C.3       13 UNK        -0.1800 
     77 C          -3.2573  -26.5136  -47.0347 C.2       13 UNK         0.5000 
     78 O          -3.8253  -27.5689  -47.3171 O.2       13 UNK        -0.5000 
     79 N          -3.2306  -25.4445  -47.8408 N.am      14 UNK        -0.5000 
     80 CA         -3.8929  -25.3477  -49.1425 C.3       14 UNK         0.1400 
     81 CB         -3.2189  -24.2302  -49.9536 C.3       14 UNK        -0.1800 
     82 C          -5.4146  -25.1033  -49.0560 C.2       14 UNK         0.5000 
     83 O          -6.0721  -25.0954  -50.0959 O.2       14 UNK        -0.5000 
     84 N          -5.9480  -24.8841  -47.8447 N.am      15 UNK        -0.5000 
     85 CA         -7.3439  -24.5520  -47.5378 C.3       15 UNK         0.1400 
     86 CB         -8.2821  -25.7296  -47.8757 C.3       15 UNK        -0.1800 
     87 C          -7.7825  -23.2144  -48.1733 C.2       15 UNK         0.5000 
     88 O          -8.8481  -23.1295  -48.7855 O.2       15 UNK        -0.5000 
     89 N          -6.9241  -22.1981  -48.0121 N.am      16 UNK        -0.5000 
     90 CA         -7.0430  -20.8083  -48.4661 C.3       16 UNK         0.1400 
     91 CB         -8.3279  -20.1424  -47.9314 C.3       16 UNK        -0.1800 
     92 C          -6.8602  -20.6079  -49.9842 C.2       16 UNK         0.5000 
     93 O          -7.0530  -19.4914  -50.4691 O.2       16 UNK        -0.5000 
     94 N          -6.4565  -21.6572  -50.7132 N.am      17 UNK        -0.5000 
     95 CA         -6.0908  -21.5872  -52.1254 C.3       17 UNK         0.1400 
     96 CB         -6.2512  -22.9759  -52.7659 C.3       17 UNK        -0.1800 
     97 C          -4.6573  -21.0456  -52.2630 C.2       17 UNK         0.5000 
     98 O          -3.7061  -21.8260  -52.3190 O.2       17 UNK        -0.5000 
     99 N          -4.5239  -19.7133  -52.2998 N.am      18 UNK        -0.5000 
    100 CA        -3.2508  -18.9888  -52.3833 C.3       18 UNK         0.1400 
    101 CB        -3.5285  -17.4785  -52.4104 C.3       18 UNK        -0.1800 
    102 C         -2.3715  -19.4059  -53.5785 C.2       18 UNK         0.5000 
    103 O         -1.1556  -19.5231  -53.4310 O.2       18 UNK        -0.5000 
    104 N         -3.0071  -19.6891  -54.7238 N.am      19 UNK        -0.5000 
    105 CA        -2.3523  -20.1932  -55.9322 C.3       19 UNK         0.1400 
    106 CB        -3.3744  -20.2446  -57.0774 C.3       19 UNK        -0.1800 
    107 C         -1.6876  -21.5702  -55.7372 C.2       19 UNK         0.5000 
    108 O         -0.6126  -21.8049  -56.2883 O.2       19 UNK        -0.5000 
    109 N         -2.3139  -22.4430  -54.9360 N.am      20 UNK        -0.5000 
    110 CA        -1.7708  -23.7522  -54.5731 C.3       20 UNK         0.1400 
    111 CB        -2.9148  -24.6832  -54.1446 C.3       20 UNK        -0.1800 
    112 C         -0.6988  -23.6468  -53.4731 C.2       20 UNK         0.5000 
    113 O          0.2363  -24.4476  -53.4675 O.2       20 UNK        -0.5000 
    114 N         -0.8404  -22.6575  -52.5794 N.am      21 UNK        -0.5000 
    115 CA         0.1197  -22.3438  -51.5224 C.3       21 UNK         0.1400 
    116 CB        -0.5080  -21.3548  -50.5305 C.3       21 UNK        -0.1800 
    117 C          1.4551  -21.8112  -52.0760 C.2       21 UNK         0.5000 
    118 O          2.5084  -22.3173  -51.6856 O.2       21 UNK        -0.5000 
    119 N          1.3938  -20.8219  -52.9795 N.am      22 UNK        -0.5000 
    120 CA         2.5771  -20.2782  -53.6723 C.3       22 UNK         0.1400 
    121 C          3.0773  -21.1565  -54.8541 C.2       22 UNK         0.5000 
    122 N          2.2391  -21.9560  -55.5006 N.am      22 UNK        -0.7600 
    123 O          4.2587  -21.1177  -55.1875 O.2       22 UNK        -0.5000 
    124 C124        2.3847  -18.8087  -54.1275 C.3       23 UNK        -0.0398 
    125 S125        2.3196  -17.6613  -52.7094 S.3       23 UNK        -0.2404 
    126 C126        0.7664  -16.7568  -53.0121 C.3       23 UNK        -0.0205 
    127 H127       -6.8072   -9.9519  -49.1678 H         1 UNK         0.0600 
    128 H128       -6.0961   -9.6426  -47.5729 H         1 UNK         0.0600 
    129 H129       -7.8397   -9.5867  -47.7925 H         1 UNK         0.0600 
    130 H130       -6.1359  -13.4036  -47.8618 H         1 UNK         0.3000 
    131 H131       -4.9655  -11.3375  -49.4978 H         1 UNK         0.0600 
    132 H132       -4.8766  -13.9474  -49.8059 H         1 UNK         0.0800 
    133 H133       -3.5608  -13.9193  -48.6753 H         1 UNK         0.0800 
    134 H134       -1.3189  -12.8995  -49.0858 H         1 UNK         0.0800 
    135 H135       -0.6568  -12.5139  -50.6493 H         1 UNK         0.0800 
    136 H136       -0.1172  -14.2723  -52.2933 H         1 UNK         0.1150 
    137 H137        0.1256  -18.3054  -50.8665 H         1 UNK         0.1150 
    138 H138       -1.6706  -15.2766  -48.4293 H         1 UNK         0.1150 
    139 H139       -0.3045  -18.7336  -48.5127 H         1 UNK         0.0800 
    140 H140       -0.8742  -17.4583  -47.4587 H         1 UNK         0.0800 
    141 H141       -3.7736  -19.3971  -46.5497 H         1 UNK         0.0800 
    142 H142       -2.1023  -19.1038  -46.2011 H         1 UNK         0.0800 
    143 H143       -2.6387  -21.3214  -48.1750 H         1 UNK         0.0600 
    144 H144       -0.4767  -20.6650  -46.4460 H         1 UNK         0.3000 
    145 H145        1.1326  -23.8823  -46.5715 H         1 UNK         0.0600 
    146 H146        2.9923  -22.3284  -47.1764 H         1 UNK         0.0600 
    147 H147        1.9086  -22.6045  -48.5316 H         1 UNK         0.0600 
    148 H148        1.8244  -21.0940  -47.6389 H         1 UNK         0.0600 
    149 H149        1.7652  -21.5227  -45.1070 H         1 UNK         0.3000 
    150 H150       -0.1353  -22.3088  -42.1671 H         1 UNK         0.0600 
    151 H151        1.9751  -23.5801  -41.9285 H         1 UNK         0.0600 
    152 H152        2.1167  -22.0085  -41.1572 H         1 UNK         0.0600 
    153 H153        2.8789  -22.2990  -42.7203 H         1 UNK         0.0600 
    154 H154        1.6064  -20.1386  -42.9303 H         1 UNK         0.3000 
    155 H155       -0.9533  -18.0263  -44.2218 H         1 UNK         0.0600 
    156 H156        0.6567  -17.8618  -41.6182 H         1 UNK         0.0600 
    157 H157       -1.0984  -17.7702  -41.7320 H         1 UNK         0.0600 
    158 H158       -0.1068  -16.5138  -42.4563 H         1 UNK         0.0600 
    159 H159        1.7674  -17.4606  -43.8332 H         1 UNK         0.3000 
    160 H160        3.0641  -18.9948  -46.8217 H         1 UNK         0.0600 
    161 H161        2.7490  -16.0930  -45.8865 H         1 UNK         0.0600 
    162 H162        2.1884  -16.7367  -47.4239 H         1 UNK         0.0600 
    163 H163        3.9096  -16.6814  -47.0733 H         1 UNK         0.0600 
    164 H164        4.3621  -17.6080  -44.6848 H         1 UNK         0.3000 
    165 H165        4.8979  -20.4227  -42.5609 H         1 UNK         0.0600 
    166 H166        6.8881  -18.9305  -44.3447 H         1 UNK         0.0600 
    167 H167        7.2796  -19.7242  -42.8192 H         1 UNK         0.0600 
    168 H168        6.7113  -20.6688  -44.1872 H         1 UNK         0.0600 
    169 H169        4.5157  -18.6015  -41.4163 H         1 UNK         0.3000 
    170 H170        3.9712  -16.5371  -40.8942 H         1 UNK         0.0600 
    171 H171        6.7358  -15.2204  -41.1226 H         1 UNK         0.0600 
    172 H172        5.6003  -15.0167  -39.7877 H         1 UNK         0.0600 
    173 H173        6.3421  -16.5817  -40.0799 H         1 UNK         0.0600 
    174 H174        4.7334  -14.0211  -41.9487 H         1 UNK         0.3000 
    175 H175        2.6631  -12.7627  -42.8743 H         1 UNK         0.0600 
    176 H176        4.4465  -13.7318  -45.1831 H         1 UNK         0.0600 
    177 H177        3.9162  -12.0655  -44.9556 H         1 UNK         0.0600 
    178 H178        4.9772  -12.8140  -43.7795 H         1 UNK         0.0600 
    179 H179        2.0199  -13.7880  -45.5416 H         1 UNK         0.3000 
    180 H180       -0.0322  -13.5458  -46.3437 H         1 UNK         0.0600 
    181 H181       -1.6663  -15.4724  -46.1814 H         1 UNK         0.0600 
    182 H182       -1.3410  -15.5794  -44.4578 H         1 UNK         0.0600 
    183 H183       -0.0578  -15.9017  -45.6194 H         1 UNK         0.0600 
    184 H184       -2.5925  -13.4855  -45.2151 H         1 UNK         0.3000 
    185 H185       -3.6734  -11.4061  -44.3804 H         1 UNK         0.0600 
    186 H186       -4.2444   -9.1226  -45.2000 H         1 UNK         0.0600 
    187 H187       -2.7075   -9.1378  -44.3494 H         1 UNK         0.0600 
    188 H188       -2.7330   -9.0508  -46.1035 H         1 UNK         0.0600 
    189 H189       -4.8121  -12.1035  -46.1566 H         1 UNK         0.3000 
    190 H190       -2.3411  -21.7218  -44.6082 H         1 UNK         0.3000 
    191 H191       -4.9522  -22.7247  -44.1949 H         1 UNK         0.0600 
    192 H192       -4.0179  -23.6232  -42.0714 H         1 UNK         0.0600 
    193 H193       -3.4840  -21.9729  -42.3491 H         1 UNK         0.0600 
    194 H194       -2.3823  -23.3173  -42.6374 H         1 UNK         0.0600 
    195 H195       -1.9028  -24.4798  -44.9431 H         1 UNK         0.3000 
    196 H196       -2.9991  -27.0995  -44.9906 H         1 UNK         0.0600 
    197 H197       -0.5526  -25.9496  -46.4357 H         1 UNK         0.0600 
    198 H198       -0.5700  -26.6383  -44.8143 H         1 UNK         0.0600 
    199 H199       -0.8904  -27.6614  -46.2071 H         1 UNK         0.0600 
    200 H200       -2.6727  -24.6418  -47.5629 H         1 UNK         0.3000 
    201 H201       -3.7461  -26.2886  -49.6765 H         1 UNK         0.0600 
    202 H202       -3.6348  -24.1718  -50.9578 H         1 UNK         0.0600 
    203 H203       -3.3583  -23.2551  -49.4868 H         1 UNK         0.0600 
    204 H204       -2.1480  -24.4035  -50.0602 H         1 UNK         0.0600 
    205 H205       -5.3182  -24.8801  -47.0525 H         1 UNK         0.3000 
    206 H206       -7.3866  -24.4020  -46.4580 H         1 UNK         0.0600 
    207 H207       -7.9476  -26.6491  -47.3953 H         1 UNK         0.0600 
    208 H208       -9.2960  -25.5314  -47.5263 H         1 UNK         0.0600 
    209 H209       -8.3381  -25.9128  -48.9490 H         1 UNK         0.0600 
    210 H210       -6.0452  -22.4006  -47.5337 H         1 UNK         0.3000 
    211 H211       -6.2006  -20.2887  -48.0070 H         1 UNK         0.0600 
    212 H212       -8.3155  -19.0674  -48.1146 H         1 UNK         0.0600 
    213 H213       -8.4284  -20.2847  -46.8554 H         1 UNK         0.0600 
    214 H214       -9.2227  -20.5408  -48.4098 H         1 UNK         0.0600 
    215 H215       -6.3145  -22.5450  -50.2517 H         1 UNK         0.3000 
    216 H216       -6.7693  -20.9073  -52.6451 H         1 UNK         0.0600 
    217 H217       -5.6078  -23.7184  -52.2959 H         1 UNK         0.0600 
    218 H218       -5.9969  -22.9481  -53.8260 H         1 UNK         0.0600 
    219 H219       -7.2790  -23.3299  -52.6853 H         1 UNK         0.0600 
    220 H220       -5.3554  -19.1493  -52.1854 H         1 UNK         0.3000 
    221 H221       -2.6906  -19.2113  -51.4748 H         1 UNK         0.0600 
    222 H222       -4.0157  -17.1526  -51.4910 H         1 UNK         0.0600 
    223 H223       -4.1669  -17.1998  -53.2493 H         1 UNK         0.0600 
    224 H224       -2.6031  -16.9097  -52.5008 H         1 UNK         0.0600 
    225 H225       -4.0095  -19.5779  -54.7583 H         1 UNK         0.3000 
    226 H226       -1.5672  -19.4850  -56.2056 H         1 UNK         0.0600 
    227 H227       -4.2026  -20.9166  -56.8487 H         1 UNK         0.0600 
    228 H228       -3.7886  -19.2571  -57.2814 H         1 UNK         0.0600 
    229 H229       -2.9100  -20.5976  -57.9992 H         1 UNK         0.0600 
    230 H230       -3.1498  -22.1511  -54.4479 H         1 UNK         0.3000 
    231 H231       -1.2980  -24.1927  -55.4536 H         1 UNK         0.0600 
    232 H232       -3.4430  -24.2993  -53.2739 H         1 UNK         0.0600 
    233 H233       -2.5367  -25.6735  -53.8878 H         1 UNK         0.0600 
    234 H234       -3.6416  -24.8097  -54.9471 H         1 UNK         0.0600 
    235 H235       -1.6764  -22.0860  -52.6237 H         1 UNK         0.3000 
    236 H236        0.3288  -23.2679  -50.9790 H         1 UNK         0.0600 
    237 H237       -0.7650  -20.4120  -51.0062 H         1 UNK         0.0600 
    238 H238       -1.4180  -21.7651  -50.0962 H         1 UNK         0.0600 
    239 H239        0.1760  -21.1280  -49.7132 H         1 UNK         0.0600 
    240 H240        0.4901  -20.4242  -53.2245 H         1 UNK         0.3000 
    241 H241        3.4015  -20.2734  -52.9559 H         1 UNK         0.0600 
    242 H242        2.5902  -22.5190  -56.2586 H         1 UNK         0.3800 
    243 H243        1.2441  -21.9439  -55.3188 H         1 UNK         0.3800 
    244 H244        1.4899  -18.7179  -54.7447 H         1 UNK         0.0800 
    245 H245        3.2177  -18.4840  -54.7539 H         1 UNK         0.0800 
    246 H246        0.9895  -15.8894  -53.6350 H         1 UNK         0.0800 
    247 H247        0.0671  -17.3646  -53.5811 H         1 UNK         0.0800 
@<TRIPOS>BOND
     1    1    2 1    
     2    1  127 1    
     3    1  128 1    
     4    1  129 1    
     5    2    3 2    
     6    2    4 am   BACKBONE|DICT|INTERRES
     7    4    5 1    
     8    4  130 1    
     9    5    6 1    
    10    5   65 1    
    11    5  131 1    
    12    6    7 1    
    13    6  132 1    
    14    6  133 1    
    15    7    8 1    
    16    8    9 1    
    17    8  134 1    
    18    8  135 1    
    19    9   10 ar   
    20    9   14 ar   
    21   10   11 ar   
    22   10  136 1    
    23   11   12 ar   
    24   11  126 1    
    25   12   13 ar   
    26   12  137 1    
    27   13   14 ar   
    28   13   15 1    
    29   14  138 1    
    30   15   16 1    
    31   15  139 1    
    32   15  140 1    
    33   16   17 1    
    34   17   18 1    
    35   17  141 1    
    36   17  142 1    
    37   18   19 1    
    38   18   67 1    
    39   18  143 1    
    40   19   20 am   BACKBONE|DICT|INTERRES
    41   19  144 1    
    42   20   21 2    
    43   20   22 1    
    44   22   23 1    
    45   22   24 1    
    46   22  145 1    
    47   23  146 1    
    48   23  147 1    
    49   23  148 1    
    50   24   25 am   BACKBONE|DICT|INTERRES
    51   24  149 1    
    52   25   26 2    
    53   25   27 1    
    54   27   28 1    
    55   27   29 1    
    56   27  150 1    
    57   28  151 1    
    58   28  152 1    
    59   28  153 1    
    60   29   30 am   BACKBONE|DICT|INTERRES
    61   29  154 1    
    62   30   31 2    
    63   30   32 1    
    64   32   33 1    
    65   32   34 1    
    66   32  155 1    
    67   33  156 1    
    68   33  157 1    
    69   33  158 1    
    70   34   35 am   BACKBONE|DICT|INTERRES
    71   34  159 1    
    72   35   36 2    
    73   35   37 1    
    74   37   38 1    
    75   37   39 1    
    76   37  160 1    
    77   38  161 1    
    78   38  162 1    
    79   38  163 1    
    80   39   40 am   BACKBONE|DICT|INTERRES
    81   39  164 1    
    82   40   41 2    
    83   40   42 1    
    84   42   43 1    
    85   42   44 1    
    86   42  165 1    
    87   43  166 1    
    88   43  167 1    
    89   43  168 1    
    90   44   45 am   BACKBONE|DICT|INTERRES
    91   44  169 1    
    92   45   46 2    
    93   45   47 1    
    94   47   48 1    
    95   47   49 1    
    96   47  170 1    
    97   48  171 1    
    98   48  172 1    
    99   48  173 1    
   100   49   50 am   BACKBONE|DICT|INTERRES
   101   49  174 1    
   102   50   51 2    
   103   50   52 1    
   104   52   53 1    
   105   52   54 1    
   106   52  175 1    
   107   53  176 1    
   108   53  177 1    
   109   53  178 1    
   110   54   55 am   BACKBONE|DICT|INTERRES
   111   54  179 1    
   112   55   56 2    
   113   55   57 1    
   114   57   58 1    
   115   57   59 1    
   116   57  180 1    
   117   58  181 1    
   118   58  182 1    
   119   58  183 1    
   120   59   60 am   BACKBONE|DICT|INTERRES
   121   59  184 1    
   122   60   61 2    
   123   60   62 1    
   124   62   63 1    
   125   62   64 1    
   126   62  185 1    
   127   63  186 1    
   128   63  187 1    
   129   63  188 1    
   130   64   65 am   BACKBONE|DICT|INTERRES
   131   64  189 1    
   132   65   66 2    
   133   67   68 2    
   134   67   69 am   BACKBONE|DICT|INTERRES
   135   69   70 1    
   136   69  190 1    
   137   70   71 1    
   138   70   72 1    
   139   70  191 1    
   140   71  192 1    
   141   71  193 1    
   142   71  194 1    
   143   72   73 2    
   144   72   74 am   BACKBONE|DICT|INTERRES
   145   74   75 1    
   146   74  195 1    
   147   75   76 1    
   148   75   77 1    
   149   75  196 1    
   150   76  197 1    
   151   76  198 1    
   152   76  199 1    
   153   77   78 2    
   154   77   79 am   BACKBONE|DICT|INTERRES
   155   79   80 1    
   156   79  200 1    
   157   80   81 1    
   158   80   82 1    
   159   80  201 1    
   160   81  202 1    
   161   81  203 1    
   162   81  204 1    
   163   82   83 2    
   164   82   84 am   BACKBONE|DICT|INTERRES
   165   84   85 1    
   166   84  205 1    
   167   85   86 1    
   168   85   87 1    
   169   85  206 1    
   170   86  207 1    
   171   86  208 1    
   172   86  209 1    
   173   87   88 2    
   174   87   89 am   BACKBONE|DICT|INTERRES
   175   89   90 1    
   176   89  210 1    
   177   90   91 1    
   178   90   92 1    
   179   90  211 1    
   180   91  212 1    
   181   91  213 1    
   182   91  214 1    
   183   92   93 2    
   184   92   94 am   BACKBONE|DICT|INTERRES
   185   94   95 1    
   186   94  215 1    
   187   95   96 1    
   188   95   97 1    
   189   95  216 1    
   190   96  217 1    
   191   96  218 1    
   192   96  219 1    
   193   97   98 2    
   194   97   99 am   BACKBONE|DICT|INTERRES
   195   99  100 1    
   196   99  220 1    
   197  100  101 1    
   198  100  102 1    
   199  100  221 1    
   200  101  222 1    
   201  101  223 1    
   202  101  224 1    
   203  102  103 2    
   204  102  104 am   BACKBONE|DICT|INTERRES
   205  104  105 1    
   206  104  225 1    
   207  105  106 1    
   208  105  107 1    
   209  105  226 1    
   210  106  227 1    
   211  106  228 1    
   212  106  229 1    
   213  107  108 2    
   214  107  109 am   BACKBONE|DICT|INTERRES
   215  109  110 1    
   216  109  230 1    
   217  110  111 1    
   218  110  112 1    
   219  110  231 1    
   220  111  232 1    
   221  111  233 1    
   222  111  234 1    
   223  112  113 2    
   224  112  114 am   BACKBONE|DICT|INTERRES
   225  114  115 1    
   226  114  235 1    
   227  115  116 1    
   228  115  117 1    
   229  115  236 1    
   230  116  237 1    
   231  116  238 1    
   232  116  239 1    
   233  117  118 2    
   234  117  119 am   BACKBONE|DICT|INTERRES
   235  119  120 1    
   236  119  240 1    
   237  120  121 1    
   238  120  124 1    
   239  120  241 1    
   240  121  122 am   BACKBONE|DICT|INTERRES
   241  121  123 2    
   242  122  242 1    
   243  122  243 1    
   244  124  125 1    
   245  124  244 1    
   246  124  245 1    
   247  125  126 1    
   248  126  246 1    
   249  126  247 1    
@<TRIPOS>SUBSTRUCTURE
     1 UNK         1 GROUP             0       ****    0 ROOT    
