@<TRIPOS>MOLECULE
3R540
247   249    1
SMALL
USER_CHARGES


@<TRIPOS>ATOM
      1 CA         -4.9242  -12.8280  -47.8268 C.3       0 UNK        -0.1800 
      2 C          -3.4629  -13.2315  -47.6921 C.2       0 UNK         0.5000 
      3 O          -2.6219  -12.3910  -47.3738 O.2       0 UNK        -0.5000 
      4 N          -3.1592  -14.5141  -47.9304 N.am      1 UNK        -0.5000 
      5 CA         -1.8063  -15.0857  -47.8648 C.3       1 UNK         0.1400 
      6 C6         -1.7302  -16.4806  -48.5341 C.3       23 UNK        -0.0398 
      7 S7         -2.2061  -16.4437  -50.2919 S.3       23 UNK        -0.2404 
      8 C8         -0.5955  -16.1652  -51.0876 C.3       23 UNK        -0.0205 
      9 C9          0.1629  -17.4611  -51.3350 C.ar      23 UNK        -0.0193 
     10 C10        -0.1414  -18.2352  -52.4578 C.ar      23 UNK        -0.1150 
     11 C11         0.5990  -19.3811  -52.7581 C.ar      23 UNK        -0.0193 
     12 C12         1.6517  -19.7540  -51.9160 C.ar      23 UNK        -0.1150 
     13 C13         1.9642  -18.9929  -50.7829 C.ar      23 UNK        -0.0193 
     14 C14         1.2084  -17.8521  -50.4919 C.ar      23 UNK        -0.1150 
     15 C15         3.1746  -19.3549  -49.9311 C.3       23 UNK        -0.0205 
     16 S16         2.9608  -20.9148  -49.0181 S.3       23 UNK        -0.2404 
     17 C17         2.3978  -20.3488  -47.3757 C.3       23 UNK        -0.0398 
     18 CA          1.4169  -21.3639  -46.7370 C.3       11 UNK         0.1400 
     19 N           1.5248  -21.4414  -45.2788 N.am      11 UNK        -0.5000 
     20 C           0.9601  -22.4041  -44.5333 C.2       10 UNK         0.5000 
     21 O           0.3543  -23.3668  -45.0063 O.2       10 UNK        -0.5000 
     22 CA          1.0297  -22.2314  -43.0038 C.3       10 UNK         0.1400 
     23 CB          2.3811  -22.7079  -42.4528 C.3       10 UNK        -0.1800 
     24 N           0.7800  -20.8482  -42.5927 N.am      10 UNK        -0.5000 
     25 C          -0.3831  -20.2110  -42.7873 C.2       9 UNK         0.5000 
     26 O          -1.3850  -20.7547  -43.2521 O.2       9 UNK        -0.5000 
     27 CA         -0.4263  -18.7077  -42.4590 C.3       9 UNK         0.1400 
     28 CB         -0.7921  -18.4791  -40.9863 C.3       9 UNK        -0.1800 
     29 N           0.8229  -18.0111  -42.7780 N.am      9 UNK        -0.5000 
     30 C           1.3135  -17.8619  -44.0172 C.2       8 UNK         0.5000 
     31 O           0.7350  -18.2567  -45.0286 O.2       8 UNK        -0.5000 
     32 CA          2.7111  -17.2269  -44.1413 C.3       8 UNK         0.1400 
     33 CB          2.6749  -15.7119  -43.8997 C.3       8 UNK        -0.1800 
     34 N           3.6778  -17.8400  -43.2306 N.am      8 UNK        -0.5000 
     35 C           4.1002  -19.1082  -43.3242 C.2       7 UNK         0.5000 
     36 O           3.7404  -19.8813  -44.2106 O.2       7 UNK        -0.5000 
     37 CA          5.0580  -19.6118  -42.2278 C.3       7 UNK         0.1400 
     38 CB          6.5168  -19.3482  -42.6291 C.3       7 UNK        -0.1800 
     39 N           4.8115  -19.0373  -40.9021 N.am      7 UNK        -0.5000 
     40 C           3.6649  -19.1298  -40.2144 C.2       6 UNK         0.5000 
     41 O           2.6499  -19.6704  -40.6584 O.2       6 UNK        -0.5000 
     42 CA          3.6267  -18.5031  -38.8104 C.3       6 UNK         0.1400 
     43 CB          4.8816  -17.6848  -38.4353 C.3       6 UNK        -0.1800 
     44 N           2.4445  -17.6574  -38.7291 N.am      6 UNK        -0.5000 
     45 C           1.7431  -17.3723  -37.6307 C.2       5 UNK         0.5000 
     46 O           2.0255  -17.8008  -36.5100 O.2       5 UNK        -0.5000 
     47 CA          0.5409  -16.4225  -37.8311 C.3       5 UNK         0.1400 
     48 CB         -0.1995  -16.1143  -36.5172 C.3       5 UNK        -0.1800 
     49 N           0.9342  -15.1560  -38.4570 N.am      5 UNK        -0.5000 
     50 C           1.2143  -14.9750  -39.7529 C.2       4 UNK         0.5000 
     51 O           1.1877  -15.8778  -40.5961 O.2       4 UNK        -0.5000 
     52 CA          1.6428  -13.5647  -40.1705 C.3       4 UNK         0.1400 
     53 CB          3.1719  -13.4160  -40.0946 C.3       4 UNK        -0.1800 
     54 N           1.1896  -13.3425  -41.5360 N.am      4 UNK        -0.5000 
     55 C           0.9150  -12.1583  -42.0924 C.2       3 UNK         0.5000 
     56 O           1.0690  -11.0808  -41.5156 O.2       3 UNK        -0.5000 
     57 CA          0.3720  -12.1734  -43.5364 C.3       3 UNK         0.1400 
     58 CB          1.4952  -11.8533  -44.5346 C.3       3 UNK        -0.1800 
     59 N          -0.2511  -13.4413  -43.9247 N.am      3 UNK        -0.5000 
     60 C          -1.3896  -13.9365  -43.4256 C.2       2 UNK         0.5000 
     61 O          -2.0650  -13.3620  -42.5704 O.2       2 UNK        -0.5000 
     62 CA         -1.8418  -15.2951  -43.9986 C.3       2 UNK         0.1400 
     63 CB         -3.0572  -15.8789  -43.2565 C.3       2 UNK        -0.1800 
     64 N          -2.1532  -15.2125  -45.4258 N.am      2 UNK        -0.5000 
     65 C          -1.2582  -15.1584  -46.4234 C.2       1 UNK         0.5000 
     66 O          -0.0407  -15.1599  -46.2414 O.2       1 UNK        -0.5000 
     67 C          -0.0342  -21.1123  -47.1845 C.2       11 UNK         0.5000 
     68 O          -0.4899  -21.7781  -48.1073 O.2       11 UNK        -0.5000 
     69 N          -0.7534  -20.2135  -46.4958 N.am      12 UNK        -0.5000 
     70 CA         -2.1679  -19.9127  -46.7367 C.3       12 UNK         0.1400 
     71 CB         -2.6257  -18.7879  -45.7965 C.3       12 UNK        -0.1800 
     72 C          -3.0837  -21.1410  -46.5847 C.2       12 UNK         0.5000 
     73 O          -3.9593  -21.3562  -47.4240 O.2       12 UNK        -0.5000 
     74 N          -2.8372  -21.9413  -45.5383 N.am      13 UNK        -0.5000 
     75 CA         -3.5351  -23.1985  -45.2696 C.3       13 UNK         0.1400 
     76 CB         -3.1173  -23.7279  -43.8895 C.3       13 UNK        -0.1800 
     77 C          -3.3019  -24.2619  -46.3601 C.2       13 UNK         0.5000 
     78 O          -4.2342  -24.9904  -46.7018 O.2       13 UNK        -0.5000 
     79 N          -2.0766  -24.3172  -46.8999 N.am      14 UNK        -0.5000 
     80 CA         -1.7117  -25.1768  -48.0261 C.3       14 UNK         0.1400 
     81 CB         -0.1824  -25.3148  -48.0873 C.3       14 UNK        -0.1800 
     82 C          -2.2726  -24.6570  -49.3642 C.2       14 UNK         0.5000 
     83 O          -2.7385  -25.4555  -50.1777 O.2       14 UNK        -0.5000 
     84 N          -2.2152  -23.3330  -49.5626 N.am      15 UNK        -0.5000 
     85 CA         -2.6695  -22.6206  -50.7541 C.3       15 UNK         0.1400 
     86 CB         -2.2527  -21.1431  -50.6653 C.3       15 UNK        -0.1800 
     87 C          -4.1820  -22.7294  -50.9856 C.2       15 UNK         0.5000 
     88 O          -4.5962  -22.9195  -52.1307 O.2       15 UNK        -0.5000 
     89 N          -4.9632  -22.6194  -49.9010 N.am      16 UNK        -0.5000 
     90 CA         -6.4242  -22.6910  -49.8459 C.3       16 UNK         0.1400 
     91 CB         -6.9159  -24.1170  -50.1778 C.3       16 UNK        -0.1800 
     92 C          -7.0814  -21.5928  -50.7053 C.2       16 UNK         0.5000 
     93 O          -7.2511  -20.4725  -50.2226 O.2       16 UNK        -0.5000 
     94 N          -7.4213  -21.9212  -51.9593 N.am      17 UNK        -0.5000 
     95 CA         -7.9464  -20.9851  -52.9546 C.3       17 UNK         0.1400 
     96 CB         -8.5362  -21.7790  -54.1294 C.3       17 UNK        -0.1800 
     97 C          -6.8922  -19.9729  -53.4482 C.2       17 UNK         0.5000 
     98 O          -7.2650  -18.8546  -53.8064 O.2       17 UNK        -0.5000 
     99 N          -5.6102  -20.3731  -53.4214 N.am      18 UNK        -0.5000 
    100 CA        -4.4215  -19.5879  -53.7732 C.3       18 UNK         0.1400 
    101 CB        -4.2621  -18.3994  -52.8001 C.3       18 UNK        -0.1800 
    102 C         -4.3646  -19.1545  -55.2558 C.2       18 UNK         0.5000 
    103 O         -5.1910  -19.5767  -56.0687 O.2       18 UNK        -0.5000 
    104 N         -3.3506  -18.3411  -55.5889 N.am      19 UNK        -0.5000 
    105 CA        -3.0526  -17.7971  -56.9183 C.3       19 UNK         0.1400 
    106 CB        -4.1046  -16.7338  -57.3080 C.3       19 UNK        -0.1800 
    107 C         -2.8624  -18.9160  -57.9651 C.2       19 UNK         0.5000 
    108 O         -1.9521  -19.7311  -57.8132 O.2       19 UNK        -0.5000 
    109 N         -3.7256  -18.9597  -58.9874 N.am      20 UNK        -0.5000 
    110 CA        -3.7407  -19.9899  -60.0284 C.3       20 UNK         0.1400 
    111 CB        -4.5926  -19.4860  -61.2042 C.3       20 UNK        -0.1800 
    112 C         -4.2545  -21.3615  -59.5401 C.2       20 UNK         0.5000 
    113 O         -4.0386  -22.3599  -60.2279 O.2       20 UNK        -0.5000 
    114 N         -4.9210  -21.3930  -58.3791 N.am      21 UNK        -0.5000 
    115 CA        -5.5133  -22.5788  -57.7625 C.3       21 UNK         0.1400 
    116 CB        -7.0238  -22.3335  -57.5919 C.3       21 UNK        -0.1800 
    117 C         -4.8198  -22.9122  -56.4266 C.2       21 UNK         0.5000 
    118 O         -5.4686  -23.4285  -55.5164 O.2       21 UNK        -0.5000 
    119 N         -3.5206  -22.5963  -56.3214 N.am      22 UNK        -0.5000 
    120 CA        -2.6814  -22.8541  -55.1432 C.3       22 UNK         0.1400 
    121 C         -2.5424  -24.3712  -54.8320 C.2       22 UNK         0.5000 
    122 N         -3.1260  -24.8445  -53.7404 N.am      22 UNK        -0.7600 
    123 O         -1.8982  -25.1133  -55.5698 O.2       22 UNK        -0.5000 
    124 C124       -1.3005  -22.1559  -55.2715 C.3       23 UNK        -0.0398 
    125 S125       -0.5967  -21.7192  -53.6468 S.3       23 UNK        -0.2404 
    126 C126        0.2913  -20.1766  -54.0201 C.3       23 UNK        -0.0205 
    127 H127       -5.0297  -12.0472  -48.5799 H         1 UNK         0.0600 
    128 H128       -5.5523  -13.6697  -48.1198 H         1 UNK         0.0600 
    129 H129       -5.2954  -12.4405  -46.8780 H         1 UNK         0.0600 
    130 H130       -3.8889  -15.1503  -48.2189 H         1 UNK         0.3000 
    131 H131       -1.1405  -14.4165  -48.4141 H         1 UNK         0.0600 
    132 H132       -2.4088  -17.1707  -48.0359 H         1 UNK         0.0800 
    133 H133       -0.7322  -16.9126  -48.4406 H         1 UNK         0.0800 
    134 H134       -0.7650  -15.6632  -52.0414 H         1 UNK         0.0800 
    135 H135        0.0020  -15.4746  -50.4907 H         1 UNK         0.0800 
    136 H136       -0.9389  -17.9242  -53.1159 H         1 UNK         0.1150 
    137 H137        2.2415  -20.6284  -52.1533 H         1 UNK         0.1150 
    138 H138        1.4606  -17.2453  -49.6337 H         1 UNK         0.1150 
    139 H139        4.0381  -19.4607  -50.5894 H         1 UNK         0.0800 
    140 H140        3.4261  -18.5496  -49.2392 H         1 UNK         0.0800 
    141 H141        1.9649  -19.3481  -47.4359 H         1 UNK         0.0800 
    142 H142        3.2933  -20.2502  -46.7622 H         1 UNK         0.0800 
    143 H143        1.6868  -22.3601  -47.0957 H         1 UNK         0.0600 
    144 H144        2.0562  -20.7083  -44.8195 H         1 UNK         0.3000 
    145 H145        0.2482  -22.8537  -42.5627 H         1 UNK         0.0600 
    146 H146        2.4364  -22.5785  -41.3717 H         1 UNK         0.0600 
    147 H147        2.5327  -23.7672  -42.6635 H         1 UNK         0.0600 
    148 H148        3.2133  -22.1659  -42.8994 H         1 UNK         0.0600 
    149 H149        1.5397  -20.3516  -42.1368 H         1 UNK         0.3000 
    150 H150       -1.2169  -18.2708  -43.0700 H         1 UNK         0.0600 
    151 H151       -1.6975  -19.0248  -40.7180 H         1 UNK         0.0600 
    152 H152       -0.9841  -17.4244  -40.7913 H         1 UNK         0.0600 
    153 H153        0.0028  -18.8103  -40.3174 H         1 UNK         0.0600 
    154 H154        1.3449  -17.6419  -41.9950 H         1 UNK         0.3000 
    155 H155        3.0561  -17.3941  -45.1640 H         1 UNK         0.0600 
    156 H156        1.9556  -15.2279  -44.5581 H         1 UNK         0.0600 
    157 H157        3.6465  -15.2597  -44.0987 H         1 UNK         0.0600 
    158 H158        2.4033  -15.4736  -42.8737 H         1 UNK         0.0600 
    159 H159        4.0180  -17.2733  -42.4685 H         1 UNK         0.3000 
    160 H160        4.9211  -20.6912  -42.1445 H         1 UNK         0.0600 
    161 H161        6.7388  -19.7848  -43.6040 H         1 UNK         0.0600 
    162 H162        7.2096  -19.7897  -41.9125 H         1 UNK         0.0600 
    163 H163        6.7311  -18.2806  -42.6909 H         1 UNK         0.0600 
    164 H164        5.5919  -18.5670  -40.4669 H         1 UNK         0.3000 
    165 H165        3.5246  -19.3305  -38.1055 H         1 UNK         0.0600 
    166 H166        4.7953  -17.2789  -37.4272 H         1 UNK         0.0600 
    167 H167        5.7802  -18.3029  -38.4486 H         1 UNK         0.0600 
    168 H168        5.0354  -16.8446  -39.1138 H         1 UNK         0.0600 
    169 H169        2.1175  -17.2631  -39.6057 H         1 UNK         0.3000 
    170 H170       -0.1630  -16.9329  -38.4907 H         1 UNK         0.0600 
    171 H171       -0.5506  -17.0306  -36.0409 H         1 UNK         0.0600 
    172 H172        0.4433  -15.5971  -35.8038 H         1 UNK         0.0600 
    173 H173       -1.0744  -15.4888  -36.6955 H         1 UNK         0.0600 
    174 H174        1.0273  -14.3702  -37.8296 H         1 UNK         0.3000 
    175 H175        1.1669  -12.8406  -39.5058 H         1 UNK         0.0600 
    176 H176        3.5339  -13.5988  -39.0821 H         1 UNK         0.0600 
    177 H177        3.6767  -14.1206  -40.7569 H         1 UNK         0.0600 
    178 H178        3.4860  -12.4105  -40.3748 H         1 UNK         0.0600 
    179 H179        0.9936  -14.1891  -42.0522 H         1 UNK         0.3000 
    180 H180       -0.3857  -11.3906  -43.6096 H         1 UNK         0.0600 
    181 H181        2.2799  -12.6105  -44.5136 H         1 UNK         0.0600 
    182 H182        1.9595  -10.8930  -44.3065 H         1 UNK         0.0600 
    183 H183        1.1124  -11.7944  -45.5538 H         1 UNK         0.0600 
    184 H184        0.1877  -13.9561  -44.6817 H         1 UNK         0.3000 
    185 H185       -1.0106  -15.9885  -43.8658 H         1 UNK         0.0600 
    186 H186       -3.3195  -16.8650  -43.6386 H         1 UNK         0.0600 
    187 H187       -2.8472  -15.9914  -42.1920 H         1 UNK         0.0600 
    188 H188       -3.9350  -15.2389  -43.3537 H         1 UNK         0.0600 
    189 H189       -3.1316  -15.1533  -45.6669 H         1 UNK         0.3000 
    190 H190       -0.2837  -19.6637  -45.7811 H         1 UNK         0.3000 
    191 H191       -2.2476  -19.5559  -47.7644 H         1 UNK         0.0600 
    192 H192       -2.7477  -19.1361  -44.7718 H         1 UNK         0.0600 
    193 H193       -3.5870  -18.3833  -46.1145 H         1 UNK         0.0600 
    194 H194       -1.9093  -17.9691  -45.7815 H         1 UNK         0.0600 
    195 H195       -2.1319  -21.6562  -44.8653 H         1 UNK         0.3000 
    196 H196       -4.6053  -22.9837  -45.2413 H         1 UNK         0.0600 
    197 H197       -2.0492  -23.9419  -43.8462 H         1 UNK         0.0600 
    198 H198       -3.6477  -24.6497  -43.6476 H         1 UNK         0.0600 
    199 H199       -3.3444  -23.0054  -43.1053 H         1 UNK         0.0600 
    200 H200       -1.3603  -23.6946  -46.5470 H         1 UNK         0.3000 
    201 H201       -2.1308  -26.1701  -47.8516 H         1 UNK         0.0600 
    202 H202        0.2132  -25.7280  -47.1593 H         1 UNK         0.0600 
    203 H203        0.3054  -24.3549  -48.2588 H         1 UNK         0.0600 
    204 H204        0.1161  -25.9830  -48.8959 H         1 UNK         0.0600 
    205 H205       -1.7296  -22.7646  -48.8700 H         1 UNK         0.3000 
    206 H206       -2.1685  -23.0724  -51.6108 H         1 UNK         0.0600 
    207 H207       -2.7006  -20.6471  -49.8054 H         1 UNK         0.0600 
    208 H208       -2.5605  -20.5921  -51.5523 H         1 UNK         0.0600 
    209 H209       -1.1701  -21.0394  -50.5884 H         1 UNK         0.0600 
    210 H210       -4.5120  -22.3842  -49.0209 H         1 UNK         0.3000 
    211 H211       -6.7011  -22.4829  -48.8112 H         1 UNK         0.0600 
    212 H212       -6.6101  -24.4469  -51.1708 H         1 UNK         0.0600 
    213 H213       -8.0039  -24.1760  -50.1300 H         1 UNK         0.0600 
    214 H214       -6.5218  -24.8366  -49.4598 H         1 UNK         0.0600 
    215 H215       -7.1927  -22.8492  -52.2867 H         1 UNK         0.3000 
    216 H216       -8.7554  -20.4156  -52.4921 H         1 UNK         0.0600 
    217 H217       -8.9281  -21.1104  -54.8970 H         1 UNK         0.0600 
    218 H218       -9.3581  -22.4158  -53.8021 H         1 UNK         0.0600 
    219 H219       -7.7862  -22.4150  -54.5990 H         1 UNK         0.0600 
    220 H220       -5.4277  -21.3258  -53.1230 H         1 UNK         0.3000 
    221 H221       -3.5710  -20.2507  -53.6226 H         1 UNK         0.0600 
    222 H222       -5.0140  -17.6290  -52.9728 H         1 UNK         0.0600 
    223 H223       -4.3522  -18.7247  -51.7632 H         1 UNK         0.0600 
    224 H224       -3.2857  -17.9268  -52.8972 H         1 UNK         0.0600 
    225 H225       -2.7046  -18.0685  -54.8638 H         1 UNK         0.3000 
    226 H226       -2.0889  -17.2921  -56.8389 H         1 UNK         0.0600 
    227 H227       -4.1399  -15.9359  -56.5661 H         1 UNK         0.0600 
    228 H228       -3.8608  -16.2678  -58.2636 H         1 UNK         0.0600 
    229 H229       -5.1089  -17.1521  -57.3842 H         1 UNK         0.0600 
    230 H230       -4.4589  -18.2667  -59.0277 H         1 UNK         0.3000 
    231 H231       -2.7185  -20.1334  -60.3849 H         1 UNK         0.0600 
    232 H232       -4.6006  -20.2092  -62.0207 H         1 UNK         0.0600 
    233 H233       -4.1995  -18.5514  -61.6048 H         1 UNK         0.0600 
    234 H234       -5.6280  -19.3159  -60.9064 H         1 UNK         0.0600 
    235 H235       -5.0099  -20.5397  -57.8345 H         1 UNK         0.3000 
    236 H236       -5.3851  -23.4523  -58.4042 H         1 UNK         0.0600 
    237 H237       -7.5239  -23.2082  -57.1745 H         1 UNK         0.0600 
    238 H238       -7.2172  -21.4911  -56.9266 H         1 UNK         0.0600 
    239 H239       -7.4974  -22.1181  -58.5497 H         1 UNK         0.0600 
    240 H240       -3.0646  -22.1781  -57.1192 H         1 UNK         0.3000 
    241 H241       -3.2090  -22.3920  -54.3093 H         1 UNK         0.0600 
    242 H242       -3.0415  -25.8219  -53.5125 H         1 UNK         0.3800 
    243 H243       -3.7164  -24.2443  -53.1714 H         1 UNK         0.3800 
    244 H244       -1.4117  -21.2320  -55.8356 H         1 UNK         0.0800 
    245 H245       -0.5854  -22.7604  -55.8322 H         1 UNK         0.0800 
    246 H246        1.2193  -20.4142  -54.5419 H         1 UNK         0.0800 
    247 H247       -0.2984  -19.5673  -54.7067 H         1 UNK         0.0800 
@<TRIPOS>BOND
     1    1    2 1    
     2    1  127 1    
     3    1  128 1    
     4    1  129 1    
     5    2    3 2    
     6    2    4 am   BACKBONE|DICT|INTERRES
     7    4    5 1    
     8    4  130 1    
     9    5    6 1    
    10    5   65 1    
    11    5  131 1    
    12    6    7 1    
    13    6  132 1    
    14    6  133 1    
    15    7    8 1    
    16    8    9 1    
    17    8  134 1    
    18    8  135 1    
    19    9   10 ar   
    20    9   14 ar   
    21   10   11 ar   
    22   10  136 1    
    23   11   12 ar   
    24   11  126 1    
    25   12   13 ar   
    26   12  137 1    
    27   13   14 ar   
    28   13   15 1    
    29   14  138 1    
    30   15   16 1    
    31   15  139 1    
    32   15  140 1    
    33   16   17 1    
    34   17   18 1    
    35   17  141 1    
    36   17  142 1    
    37   18   19 1    
    38   18   67 1    
    39   18  143 1    
    40   19   20 am   BACKBONE|DICT|INTERRES
    41   19  144 1    
    42   20   21 2    
    43   20   22 1    
    44   22   23 1    
    45   22   24 1    
    46   22  145 1    
    47   23  146 1    
    48   23  147 1    
    49   23  148 1    
    50   24   25 am   BACKBONE|DICT|INTERRES
    51   24  149 1    
    52   25   26 2    
    53   25   27 1    
    54   27   28 1    
    55   27   29 1    
    56   27  150 1    
    57   28  151 1    
    58   28  152 1    
    59   28  153 1    
    60   29   30 am   BACKBONE|DICT|INTERRES
    61   29  154 1    
    62   30   31 2    
    63   30   32 1    
    64   32   33 1    
    65   32   34 1    
    66   32  155 1    
    67   33  156 1    
    68   33  157 1    
    69   33  158 1    
    70   34   35 am   BACKBONE|DICT|INTERRES
    71   34  159 1    
    72   35   36 2    
    73   35   37 1    
    74   37   38 1    
    75   37   39 1    
    76   37  160 1    
    77   38  161 1    
    78   38  162 1    
    79   38  163 1    
    80   39   40 am   BACKBONE|DICT|INTERRES
    81   39  164 1    
    82   40   41 2    
    83   40   42 1    
    84   42   43 1    
    85   42   44 1    
    86   42  165 1    
    87   43  166 1    
    88   43  167 1    
    89   43  168 1    
    90   44   45 am   BACKBONE|DICT|INTERRES
    91   44  169 1    
    92   45   46 2    
    93   45   47 1    
    94   47   48 1    
    95   47   49 1    
    96   47  170 1    
    97   48  171 1    
    98   48  172 1    
    99   48  173 1    
   100   49   50 am   BACKBONE|DICT|INTERRES
   101   49  174 1    
   102   50   51 2    
   103   50   52 1    
   104   52   53 1    
   105   52   54 1    
   106   52  175 1    
   107   53  176 1    
   108   53  177 1    
   109   53  178 1    
   110   54   55 am   BACKBONE|DICT|INTERRES
   111   54  179 1    
   112   55   56 2    
   113   55   57 1    
   114   57   58 1    
   115   57   59 1    
   116   57  180 1    
   117   58  181 1    
   118   58  182 1    
   119   58  183 1    
   120   59   60 am   BACKBONE|DICT|INTERRES
   121   59  184 1    
   122   60   61 2    
   123   60   62 1    
   124   62   63 1    
   125   62   64 1    
   126   62  185 1    
   127   63  186 1    
   128   63  187 1    
   129   63  188 1    
   130   64   65 am   BACKBONE|DICT|INTERRES
   131   64  189 1    
   132   65   66 2    
   133   67   68 2    
   134   67   69 am   BACKBONE|DICT|INTERRES
   135   69   70 1    
   136   69  190 1    
   137   70   71 1    
   138   70   72 1    
   139   70  191 1    
   140   71  192 1    
   141   71  193 1    
   142   71  194 1    
   143   72   73 2    
   144   72   74 am   BACKBONE|DICT|INTERRES
   145   74   75 1    
   146   74  195 1    
   147   75   76 1    
   148   75   77 1    
   149   75  196 1    
   150   76  197 1    
   151   76  198 1    
   152   76  199 1    
   153   77   78 2    
   154   77   79 am   BACKBONE|DICT|INTERRES
   155   79   80 1    
   156   79  200 1    
   157   80   81 1    
   158   80   82 1    
   159   80  201 1    
   160   81  202 1    
   161   81  203 1    
   162   81  204 1    
   163   82   83 2    
   164   82   84 am   BACKBONE|DICT|INTERRES
   165   84   85 1    
   166   84  205 1    
   167   85   86 1    
   168   85   87 1    
   169   85  206 1    
   170   86  207 1    
   171   86  208 1    
   172   86  209 1    
   173   87   88 2    
   174   87   89 am   BACKBONE|DICT|INTERRES
   175   89   90 1    
   176   89  210 1    
   177   90   91 1    
   178   90   92 1    
   179   90  211 1    
   180   91  212 1    
   181   91  213 1    
   182   91  214 1    
   183   92   93 2    
   184   92   94 am   BACKBONE|DICT|INTERRES
   185   94   95 1    
   186   94  215 1    
   187   95   96 1    
   188   95   97 1    
   189   95  216 1    
   190   96  217 1    
   191   96  218 1    
   192   96  219 1    
   193   97   98 2    
   194   97   99 am   BACKBONE|DICT|INTERRES
   195   99  100 1    
   196   99  220 1    
   197  100  101 1    
   198  100  102 1    
   199  100  221 1    
   200  101  222 1    
   201  101  223 1    
   202  101  224 1    
   203  102  103 2    
   204  102  104 am   BACKBONE|DICT|INTERRES
   205  104  105 1    
   206  104  225 1    
   207  105  106 1    
   208  105  107 1    
   209  105  226 1    
   210  106  227 1    
   211  106  228 1    
   212  106  229 1    
   213  107  108 2    
   214  107  109 am   BACKBONE|DICT|INTERRES
   215  109  110 1    
   216  109  230 1    
   217  110  111 1    
   218  110  112 1    
   219  110  231 1    
   220  111  232 1    
   221  111  233 1    
   222  111  234 1    
   223  112  113 2    
   224  112  114 am   BACKBONE|DICT|INTERRES
   225  114  115 1    
   226  114  235 1    
   227  115  116 1    
   228  115  117 1    
   229  115  236 1    
   230  116  237 1    
   231  116  238 1    
   232  116  239 1    
   233  117  118 2    
   234  117  119 am   BACKBONE|DICT|INTERRES
   235  119  120 1    
   236  119  240 1    
   237  120  121 1    
   238  120  124 1    
   239  120  241 1    
   240  121  122 am   BACKBONE|DICT|INTERRES
   241  121  123 2    
   242  122  242 1    
   243  122  243 1    
   244  124  125 1    
   245  124  244 1    
   246  124  245 1    
   247  125  126 1    
   248  126  246 1    
   249  126  247 1    
@<TRIPOS>SUBSTRUCTURE
     1 UNK         1 GROUP             0       ****    0 ROOT    
