@<TRIPOS>MOLECULE
3R540
247   249    1
SMALL
USER_CHARGES


@<TRIPOS>ATOM
      1 CA         -1.0836  -13.3380  -47.4679 C.3       0 UNK        -0.1800 
      2 C           0.2514  -12.8986  -48.0518 C.2       0 UNK         0.5000 
      3 O           0.2854  -12.0217  -48.9146 O.2       0 UNK        -0.5000 
      4 N           1.3491  -13.5022  -47.5788 N.am      1 UNK        -0.5000 
      5 CA          2.7229  -13.2038  -48.0092 C.3       1 UNK         0.1400 
      6 C6          3.6604  -14.4220  -47.8026 C.3       23 UNK        -0.0398 
      7 S7          3.5020  -15.6456  -49.1454 S.3       23 UNK        -0.2404 
      8 C8          2.1219  -16.6886  -48.5833 C.3       23 UNK        -0.0205 
      9 C9          1.7942  -17.7475  -49.6235 C.ar      23 UNK        -0.0193 
     10 C10         1.1609  -17.3837  -50.8158 C.ar      23 UNK        -0.1150 
     11 C11         0.8843  -18.3406  -51.7966 C.ar      23 UNK        -0.0193 
     12 C12         1.2351  -19.6744  -51.5711 C.ar      23 UNK        -0.1150 
     13 C13         1.8662  -20.0511  -50.3820 C.ar      23 UNK        -0.0193 
     14 C14         2.1416  -19.0841  -49.4100 C.ar      23 UNK        -0.1150 
     15 C15         2.2694  -21.5007  -50.1627 C.3       23 UNK        -0.0205 
     16 S16         0.8583  -22.5152  -49.6330 S.3       23 UNK        -0.2404 
     17 C17         0.5398  -21.8465  -47.9618 C.3       23 UNK        -0.0398 
     18 CA          0.0910  -22.9179  -46.9419 C.3       11 UNK         0.1400 
     19 N          -0.0157  -22.3765  -45.5873 N.am      11 UNK        -0.5000 
     20 C          -0.1807  -23.1192  -44.4828 C.2       10 UNK         0.5000 
     21 O          -0.1710  -24.3499  -44.4757 O.2       10 UNK        -0.5000 
     22 CA         -0.4411  -22.3593  -43.1707 C.3       10 UNK         0.1400 
     23 CB          0.8832  -21.9164  -42.5312 C.3       10 UNK        -0.1800 
     24 N          -1.3074  -21.1951  -43.3585 N.am      10 UNK        -0.5000 
     25 C          -2.5879  -21.2476  -43.7529 C.2       9 UNK         0.5000 
     26 O          -3.2009  -22.2974  -43.9486 O.2       9 UNK        -0.5000 
     27 CA         -3.2803  -19.8975  -44.0262 C.3       9 UNK         0.1400 
     28 CB         -3.7382  -19.2375  -42.7175 C.3       9 UNK        -0.1800 
     29 N          -2.4296  -18.9707  -44.7789 N.am      9 UNK        -0.5000 
     30 C          -1.9971  -19.1992  -46.0275 C.2       8 UNK         0.5000 
     31 O          -2.2971  -20.1981  -46.6762 O.2       8 UNK        -0.5000 
     32 CA         -1.0247  -18.1774  -46.6365 C.3       8 UNK         0.1400 
     33 CB         -1.7821  -17.0085  -47.2821 C.3       8 UNK        -0.1800 
     34 N          -0.0779  -17.6817  -45.6386 N.am      8 UNK        -0.5000 
     35 C           0.9575  -18.4005  -45.1799 C.2       7 UNK         0.5000 
     36 O           1.2448  -19.5231  -45.5960 O.2       7 UNK        -0.5000 
     37 CA          1.7884  -17.7764  -44.0424 C.3       7 UNK         0.1400 
     38 CB          2.8453  -16.8182  -44.6087 C.3       7 UNK        -0.1800 
     39 N           0.9699  -17.0569  -43.0659 N.am      7 UNK        -0.5000 
     40 C           0.0479  -17.6277  -42.2791 C.2       6 UNK         0.5000 
     41 O          -0.1795  -18.8355  -42.2625 O.2       6 UNK        -0.5000 
     42 CA         -0.7959  -16.6926  -41.3942 C.3       6 UNK         0.1400 
     43 CB         -0.1496  -16.5436  -40.0090 C.3       6 UNK        -0.1800 
     44 N          -1.0229  -15.3606  -41.9599 N.am      6 UNK        -0.5000 
     45 C          -1.5722  -15.0796  -43.1519 C.2       5 UNK         0.5000 
     46 O          -1.9056  -15.9409  -43.9670 O.2       5 UNK        -0.5000 
     47 CA         -1.7713  -13.5884  -43.4946 C.3       5 UNK         0.1400 
     48 CB         -3.2644  -13.2292  -43.4738 C.3       5 UNK        -0.1800 
     49 N          -1.0528  -12.7028  -42.5726 N.am      5 UNK        -0.5000 
     50 C           0.2402  -12.3771  -42.6885 C.2       4 UNK         0.5000 
     51 O           0.9460  -12.6888  -43.6523 O.2       4 UNK        -0.5000 
     52 CA          0.8543  -11.6422  -41.4853 C.3       4 UNK         0.1400 
     53 CB          1.3698  -12.6597  -40.4543 C.3       4 UNK        -0.1800 
     54 N           1.9705  -10.8030  -41.9083 N.am      4 UNK        -0.5000 
     55 C           1.8652   -9.5169  -42.2606 C.2       3 UNK         0.5000 
     56 O           0.8167   -8.8742  -42.2044 O.2       3 UNK        -0.5000 
     57 CA          3.1393   -8.8367  -42.7980 C.3       3 UNK         0.1400 
     58 CB          3.8083   -8.0147  -41.6859 C.3       3 UNK        -0.1800 
     59 N           4.1231   -9.7850  -43.3368 N.am      3 UNK        -0.5000 
     60 C           4.0675  -10.4841  -44.4820 C.2       2 UNK         0.5000 
     61 O           4.9424  -11.3089  -44.7461 O.2       2 UNK        -0.5000 
     62 CA          2.9071  -10.2433  -45.4802 C.3       2 UNK         0.1400 
     63 CB          3.1532   -8.9981  -46.3614 C.3       2 UNK        -0.1800 
     64 N           2.6071  -11.4268  -46.2958 N.am      2 UNK        -0.5000 
     65 C           3.2900  -11.9315  -47.3374 C.2       1 UNK         0.5000 
     66 O           4.3166  -11.4322  -47.8007 O.2       1 UNK        -0.5000 
     67 C          -1.2152  -23.6226  -47.3596 C.2       11 UNK         0.5000 
     68 O          -1.1590  -24.7793  -47.7656 O.2       11 UNK        -0.5000 
     69 N          -2.3648  -22.9508  -47.2029 N.am      12 UNK        -0.5000 
     70 CA         -3.6926  -23.4529  -47.5747 C.3       12 UNK         0.1400 
     71 CB         -4.7333  -22.3474  -47.3405 C.3       12 UNK        -0.1800 
     72 C          -4.1077  -24.7437  -46.8417 C.2       12 UNK         0.5000 
     73 O          -4.8807  -25.5333  -47.3844 O.2       12 UNK        -0.5000 
     74 N          -3.5769  -24.9428  -45.6295 N.am      13 UNK        -0.5000 
     75 CA         -3.7514  -26.1551  -44.8338 C.3       13 UNK         0.1400 
     76 CB         -3.4108  -25.8307  -43.3707 C.3       13 UNK        -0.1800 
     77 C          -2.9082  -27.3491  -45.3311 C.2       13 UNK         0.5000 
     78 O          -3.2139  -28.4824  -44.9567 O.2       13 UNK        -0.5000 
     79 N          -1.8619  -27.0915  -46.1288 N.am      14 UNK        -0.5000 
     80 CA         -0.8772  -28.0845  -46.5622 C.3       14 UNK         0.1400 
     81 CB          0.5179  -27.6088  -46.1255 C.3       14 UNK        -0.1800 
     82 C          -0.8965  -28.3319  -48.0808 C.2       14 UNK         0.5000 
     83 O          -0.6800  -29.4689  -48.5031 O.2       14 UNK        -0.5000 
     84 N          -1.1269  -27.2807  -48.8740 N.am      15 UNK        -0.5000 
     85 CA         -1.0551  -27.2788  -50.3311 C.3       15 UNK         0.1400 
     86 CB          0.2611  -26.6062  -50.7565 C.3       15 UNK        -0.1800 
     87 C          -2.2552  -26.5319  -50.9297 C.2       15 UNK         0.5000 
     88 O          -2.8711  -25.6944  -50.2678 O.2       15 UNK        -0.5000 
     89 N          -2.5500  -26.8374  -52.1984 N.am      16 UNK        -0.5000 
     90 CA         -3.6815  -26.2845  -52.9434 C.3       16 UNK         0.1400 
     91 CB         -3.9502  -27.1744  -54.1668 C.3       16 UNK        -0.1800 
     92 C          -3.4964  -24.8192  -53.3833 C.2       16 UNK         0.5000 
     93 O          -4.4924  -24.1703  -53.6960 O.2       16 UNK        -0.5000 
     94 N          -2.2472  -24.3302  -53.4211 N.am      17 UNK        -0.5000 
     95 CA         -1.8582  -23.0156  -53.9425 C.3       17 UNK         0.1400 
     96 CB         -0.3346  -22.8437  -53.8180 C.3       17 UNK        -0.1800 
     97 C          -2.6078  -21.8421  -53.2871 C.2       17 UNK         0.5000 
     98 O          -3.3712  -21.1489  -53.9605 O.2       17 UNK        -0.5000 
     99 N          -2.4106  -21.6648  -51.9755 N.am      18 UNK        -0.5000 
    100 CA        -3.0697  -20.6127  -51.2015 C.3       18 UNK         0.1400 
    101 CB        -2.2979  -20.3752  -49.9018 C.3       18 UNK        -0.1800 
    102 C         -4.5548  -20.9084  -50.9226 C.2       18 UNK         0.5000 
    103 O         -5.3221  -19.9688  -50.7157 O.2       18 UNK        -0.5000 
    104 N         -4.9544  -22.1893  -50.9645 N.am      19 UNK        -0.5000 
    105 CA        -6.3542  -22.6167  -50.8651 C.3       19 UNK         0.1400 
    106 CB        -6.4209  -24.1382  -50.6725 C.3       19 UNK        -0.1800 
    107 C         -7.1850  -22.1761  -52.0878 C.2       19 UNK         0.5000 
    108 O         -8.3508  -21.8124  -51.9356 O.2       19 UNK        -0.5000 
    109 N         -6.5445  -22.1492  -53.2642 N.am      20 UNK        -0.5000 
    110 CA        -7.0559  -21.5894  -54.5165 C.3       20 UNK         0.1400 
    111 CB        -6.4121  -22.3501  -55.6887 C.3       20 UNK        -0.1800 
    112 C         -6.8156  -20.0662  -54.6323 C.2       20 UNK         0.5000 
    113 O         -6.8919  -19.5225  -55.7362 O.2       20 UNK        -0.5000 
    114 N         -6.5056  -19.4031  -53.5067 N.am      21 UNK        -0.5000 
    115 CA        -6.2526  -17.9668  -53.3491 C.3       21 UNK         0.1400 
    116 CB        -7.5418  -17.1594  -53.6077 C.3       21 UNK        -0.1800 
    117 C         -5.0504  -17.4549  -54.1695 C.2       21 UNK         0.5000 
    118 O         -5.0234  -16.2816  -54.5452 O.2       21 UNK        -0.5000 
    119 N         -4.0827  -18.3438  -54.4350 N.am      22 UNK        -0.5000 
    120 CA        -2.8735  -18.1019  -55.2390 C.3       22 UNK         0.1400 
    121 C         -3.1498  -17.8875  -56.7595 C.2       22 UNK         0.5000 
    122 N         -4.3262  -18.2286  -57.2756 N.am      22 UNK        -0.7600 
    123 O         -2.2761  -17.4359  -57.4949 O.2       22 UNK        -0.5000 
    124 C124       -1.9361  -17.0205  -54.6290 C.3       23 UNK        -0.0398 
    125 S125       -1.4730  -17.3871  -52.8986 S.3       23 UNK        -0.2404 
    126 C126        0.2493  -17.9247  -53.1146 C.3       23 UNK        -0.0205 
    127 H127       -0.9602  -14.1303  -46.7302 H         1 UNK         0.0600 
    128 H128       -1.7352  -13.7099  -48.2586 H         1 UNK         0.0600 
    129 H129       -1.5781  -12.4956  -46.9842 H         1 UNK         0.0600 
    130 H130        1.2569  -14.1999  -46.8562 H         1 UNK         0.3000 
    131 H131        2.7030  -12.9770  -49.0778 H         1 UNK         0.0600 
    132 H132        3.4985  -14.8949  -46.8347 H         1 UNK         0.0800 
    133 H133        4.7077  -14.1137  -47.8060 H         1 UNK         0.0800 
    134 H134        1.2375  -16.0768  -48.4109 H         1 UNK         0.0800 
    135 H135        2.3787  -17.1507  -47.6299 H         1 UNK         0.0800 
    136 H136        0.9001  -16.3489  -50.9894 H         1 UNK         0.1150 
    137 H137        1.0277  -20.4215  -52.3239 H         1 UNK         0.1150 
    138 H138        2.6359  -19.3694  -48.4919 H         1 UNK         0.1150 
    139 H139        2.6675  -21.9110  -51.0918 H         1 UNK         0.0800 
    140 H140        3.0737  -21.5747  -49.4292 H         1 UNK         0.0800 
    141 H141       -0.1927  -21.0448  -48.0394 H         1 UNK         0.0800 
    142 H142        1.4541  -21.3784  -47.5961 H         1 UNK         0.0800 
    143 H143        0.8711  -23.6822  -46.9137 H         1 UNK         0.0600 
    144 H144        0.0050  -21.3684  -45.4983 H         1 UNK         0.3000 
    145 H145       -0.9425  -23.0437  -42.4832 H         1 UNK         0.0600 
    146 H146        0.7147  -21.4515  -41.5597 H         1 UNK         0.0600 
    147 H147        1.4118  -21.1973  -43.1583 H         1 UNK         0.0600 
    148 H148        1.5464  -22.7679  -42.3739 H         1 UNK         0.0600 
    149 H149       -0.8938  -20.2880  -43.1549 H         1 UNK         0.3000 
    150 H150       -4.1670  -20.0958  -44.6320 H         1 UNK         0.0600 
    151 H151       -4.4619  -19.8681  -42.1998 H         1 UNK         0.0600 
    152 H152       -4.2172  -18.2760  -42.9036 H         1 UNK         0.0600 
    153 H153       -2.9052  -19.0734  -42.0353 H         1 UNK         0.0600 
    154 H154       -2.1555  -18.1110  -44.3198 H         1 UNK         0.3000 
    155 H155       -0.4648  -18.6812  -47.4276 H         1 UNK         0.0600 
    156 H156       -2.4976  -17.3709  -48.0213 H         1 UNK         0.0600 
    157 H157       -1.0987  -16.3384  -47.8016 H         1 UNK         0.0600 
    158 H158       -2.3382  -16.4255  -46.5480 H         1 UNK         0.0600 
    159 H159       -0.3192  -16.8145  -45.1769 H         1 UNK         0.3000 
    160 H160        2.3017  -18.5885  -43.5231 H         1 UNK         0.0600 
    161 H161        2.3824  -15.9526  -45.0823 H         1 UNK         0.0600 
    162 H162        3.4684  -17.3145  -45.3540 H         1 UNK         0.0600 
    163 H163        3.5081  -16.4546  -43.8232 H         1 UNK         0.0600 
    164 H164        1.0909  -16.0563  -43.0147 H         1 UNK         0.3000 
    165 H165       -1.7739  -17.1582  -41.2648 H         1 UNK         0.0600 
    166 H166       -0.7843  -15.9667  -39.3361 H         1 UNK         0.0600 
    167 H167        0.0103  -17.5181  -39.5453 H         1 UNK         0.0600 
    168 H168        0.8189  -16.0453  -40.0680 H         1 UNK         0.0600 
    169 H169       -0.7862  -14.5833  -41.3638 H         1 UNK         0.3000 
    170 H170       -1.3990  -13.4308  -44.5074 H         1 UNK         0.0600 
    171 H171       -3.7011  -13.3739  -42.4849 H         1 UNK         0.0600 
    172 H172       -3.4232  -12.1902  -43.7631 H         1 UNK         0.0600 
    173 H173       -3.8253  -13.8491  -44.1747 H         1 UNK         0.0600 
    174 H174       -1.5687  -12.3883  -41.7625 H         1 UNK         0.3000 
    175 H175        0.0860  -11.0275  -41.0110 H         1 UNK         0.0600 
    176 H176        2.1105  -13.3343  -40.8862 H         1 UNK         0.0600 
    177 H177        1.8316  -12.1575  -39.6040 H         1 UNK         0.0600 
    178 H178        0.5564  -13.2709  -40.0622 H         1 UNK         0.0600 
    179 H179        2.8572  -11.2679  -42.0395 H         1 UNK         0.3000 
    180 H180        2.8365   -8.1416  -43.5802 H         1 UNK         0.0600 
    181 H181        4.6730   -7.4691  -42.0644 H         1 UNK         0.0600 
    182 H182        4.1436   -8.6468  -40.8625 H         1 UNK         0.0600 
    183 H183        3.1173   -7.2781  -41.2734 H         1 UNK         0.0600 
    184 H184        4.9148   -9.9549  -42.7343 H         1 UNK         0.3000 
    185 H185        1.9879  -10.0755  -44.9230 H         1 UNK         0.0600 
    186 H186        4.1169   -9.0406  -46.8692 H         1 UNK         0.0600 
    187 H187        2.3785   -8.8927  -47.1211 H         1 UNK         0.0600 
    188 H188        3.1508   -8.0809  -45.7750 H         1 UNK         0.0600 
    189 H189        1.8049  -11.9557  -45.9813 H         1 UNK         0.3000 
    190 H190       -2.3293  -21.9888  -46.8691 H         1 UNK         0.3000 
    191 H191       -3.6676  -23.6773  -48.6422 H         1 UNK         0.0600 
    192 H192       -4.4976  -21.4515  -47.9140 H         1 UNK         0.0600 
    193 H193       -4.7861  -22.0649  -46.2887 H         1 UNK         0.0600 
    194 H194       -5.7279  -22.6754  -47.6445 H         1 UNK         0.0600 
    195 H195       -2.9974  -24.2135  -45.2328 H         1 UNK         0.3000 
    196 H196       -4.8011  -26.4523  -44.8797 H         1 UNK         0.0600 
    197 H197       -4.0372  -25.0239  -42.9892 H         1 UNK         0.0600 
    198 H198       -2.3696  -25.5264  -43.2588 H         1 UNK         0.0600 
    199 H199       -3.5708  -26.6980  -42.7289 H         1 UNK         0.0600 
    200 H200       -1.6997  -26.1381  -46.4358 H         1 UNK         0.3000 
    201 H201       -1.0644  -29.0454  -46.0787 H         1 UNK         0.0600 
    202 H202        0.5746  -27.5005  -45.0422 H         1 UNK         0.0600 
    203 H203        0.7711  -26.6446  -46.5689 H         1 UNK         0.0600 
    204 H204        1.2878  -28.3218  -46.4231 H         1 UNK         0.0600 
    205 H205       -1.3083  -26.3660  -48.4599 H         1 UNK         0.3000 
    206 H206       -1.0734  -28.3020  -50.7119 H         1 UNK         0.0600 
    207 H207        0.3142  -25.5748  -50.4045 H         1 UNK         0.0600 
    208 H208        1.1229  -27.1394  -50.3547 H         1 UNK         0.0600 
    209 H209        0.3670  -26.5906  -51.8417 H         1 UNK         0.0600 
    210 H210       -1.9903  -27.5261  -52.6808 H         1 UNK         0.3000 
    211 H211       -4.5624  -26.3242  -52.3003 H         1 UNK         0.0600 
    212 H212       -3.0976  -27.1926  -54.8469 H         1 UNK         0.0600 
    213 H213       -4.8119  -26.8145  -54.7309 H         1 UNK         0.0600 
    214 H214       -4.1659  -28.2007  -53.8692 H         1 UNK         0.0600 
    215 H215       -1.4971  -24.9403  -53.1341 H         1 UNK         0.3000 
    216 H216       -2.1103  -23.0025  -55.0047 H         1 UNK         0.0600 
    217 H217       -0.0206  -21.8649  -54.1834 H         1 UNK         0.0600 
    218 H218        0.1943  -23.5924  -54.4078 H         1 UNK         0.0600 
    219 H219        0.0046  -22.9339  -52.7853 H         1 UNK         0.0600 
    220 H220       -1.7782  -22.2771  -51.4806 H         1 UNK         0.3000 
    221 H221       -3.0336  -19.6863  -51.7779 H         1 UNK         0.0600 
    222 H222       -2.2414  -21.2838  -49.3065 H         1 UNK         0.0600 
    223 H223       -1.2817  -20.0365  -50.1018 H         1 UNK         0.0600 
    224 H224       -2.7805  -19.6087  -49.2949 H         1 UNK         0.0600 
    225 H225       -4.2705  -22.9035  -51.1673 H         1 UNK         0.3000 
    226 H226       -6.7866  -22.1449  -49.9801 H         1 UNK         0.0600 
    227 H227       -5.8160  -24.4608  -49.8253 H         1 UNK         0.0600 
    228 H228       -7.4455  -24.4591  -50.4817 H         1 UNK         0.0600 
    229 H229       -6.0737  -24.6717  -51.5558 H         1 UNK         0.0600 
    230 H230       -5.6043  -22.5304  -53.3102 H         1 UNK         0.3000 
    231 H231       -8.1349  -21.7483  -54.5632 H         1 UNK         0.0600 
    232 H232       -6.8218  -22.0255  -56.6458 H         1 UNK         0.0600 
    233 H233       -6.5916  -23.4224  -55.6080 H         1 UNK         0.0600 
    234 H234       -5.3329  -22.1946  -55.7210 H         1 UNK         0.0600 
    235 H235       -6.4267  -19.9399  -52.6527 H         1 UNK         0.3000 
    236 H236       -5.9806  -17.8208  -52.3031 H         1 UNK         0.0600 
    237 H237       -7.8409  -17.1989  -54.6555 H         1 UNK         0.0600 
    238 H238       -8.3699  -17.5364  -53.0075 H         1 UNK         0.0600 
    239 H239       -7.4064  -16.1094  -53.3461 H         1 UNK         0.0600 
    240 H240       -4.1868  -19.3003  -54.1138 H         1 UNK         0.3000 
    241 H241       -2.3207  -19.0406  -55.2073 H         1 UNK         0.0600 
    242 H242       -4.4919  -18.0967  -58.2608 H         1 UNK         0.3800 
    243 H243       -5.0604  -18.6059  -56.6900 H         1 UNK         0.3800 
    244 H244       -2.4105  -16.0392  -54.6573 H         1 UNK         0.0800 
    245 H245       -1.0269  -16.9240  -55.2243 H         1 UNK         0.0800 
    246 H246        0.2785  -18.7471  -53.8312 H         1 UNK         0.0800 
    247 H247        0.8316  -17.1110  -53.5494 H         1 UNK         0.0800 
@<TRIPOS>BOND
     1    1    2 1    
     2    1  127 1    
     3    1  128 1    
     4    1  129 1    
     5    2    3 2    
     6    2    4 am   BACKBONE|DICT|INTERRES
     7    4    5 1    
     8    4  130 1    
     9    5    6 1    
    10    5   65 1    
    11    5  131 1    
    12    6    7 1    
    13    6  132 1    
    14    6  133 1    
    15    7    8 1    
    16    8    9 1    
    17    8  134 1    
    18    8  135 1    
    19    9   10 ar   
    20    9   14 ar   
    21   10   11 ar   
    22   10  136 1    
    23   11   12 ar   
    24   11  126 1    
    25   12   13 ar   
    26   12  137 1    
    27   13   14 ar   
    28   13   15 1    
    29   14  138 1    
    30   15   16 1    
    31   15  139 1    
    32   15  140 1    
    33   16   17 1    
    34   17   18 1    
    35   17  141 1    
    36   17  142 1    
    37   18   19 1    
    38   18   67 1    
    39   18  143 1    
    40   19   20 am   BACKBONE|DICT|INTERRES
    41   19  144 1    
    42   20   21 2    
    43   20   22 1    
    44   22   23 1    
    45   22   24 1    
    46   22  145 1    
    47   23  146 1    
    48   23  147 1    
    49   23  148 1    
    50   24   25 am   BACKBONE|DICT|INTERRES
    51   24  149 1    
    52   25   26 2    
    53   25   27 1    
    54   27   28 1    
    55   27   29 1    
    56   27  150 1    
    57   28  151 1    
    58   28  152 1    
    59   28  153 1    
    60   29   30 am   BACKBONE|DICT|INTERRES
    61   29  154 1    
    62   30   31 2    
    63   30   32 1    
    64   32   33 1    
    65   32   34 1    
    66   32  155 1    
    67   33  156 1    
    68   33  157 1    
    69   33  158 1    
    70   34   35 am   BACKBONE|DICT|INTERRES
    71   34  159 1    
    72   35   36 2    
    73   35   37 1    
    74   37   38 1    
    75   37   39 1    
    76   37  160 1    
    77   38  161 1    
    78   38  162 1    
    79   38  163 1    
    80   39   40 am   BACKBONE|DICT|INTERRES
    81   39  164 1    
    82   40   41 2    
    83   40   42 1    
    84   42   43 1    
    85   42   44 1    
    86   42  165 1    
    87   43  166 1    
    88   43  167 1    
    89   43  168 1    
    90   44   45 am   BACKBONE|DICT|INTERRES
    91   44  169 1    
    92   45   46 2    
    93   45   47 1    
    94   47   48 1    
    95   47   49 1    
    96   47  170 1    
    97   48  171 1    
    98   48  172 1    
    99   48  173 1    
   100   49   50 am   BACKBONE|DICT|INTERRES
   101   49  174 1    
   102   50   51 2    
   103   50   52 1    
   104   52   53 1    
   105   52   54 1    
   106   52  175 1    
   107   53  176 1    
   108   53  177 1    
   109   53  178 1    
   110   54   55 am   BACKBONE|DICT|INTERRES
   111   54  179 1    
   112   55   56 2    
   113   55   57 1    
   114   57   58 1    
   115   57   59 1    
   116   57  180 1    
   117   58  181 1    
   118   58  182 1    
   119   58  183 1    
   120   59   60 am   BACKBONE|DICT|INTERRES
   121   59  184 1    
   122   60   61 2    
   123   60   62 1    
   124   62   63 1    
   125   62   64 1    
   126   62  185 1    
   127   63  186 1    
   128   63  187 1    
   129   63  188 1    
   130   64   65 am   BACKBONE|DICT|INTERRES
   131   64  189 1    
   132   65   66 2    
   133   67   68 2    
   134   67   69 am   BACKBONE|DICT|INTERRES
   135   69   70 1    
   136   69  190 1    
   137   70   71 1    
   138   70   72 1    
   139   70  191 1    
   140   71  192 1    
   141   71  193 1    
   142   71  194 1    
   143   72   73 2    
   144   72   74 am   BACKBONE|DICT|INTERRES
   145   74   75 1    
   146   74  195 1    
   147   75   76 1    
   148   75   77 1    
   149   75  196 1    
   150   76  197 1    
   151   76  198 1    
   152   76  199 1    
   153   77   78 2    
   154   77   79 am   BACKBONE|DICT|INTERRES
   155   79   80 1    
   156   79  200 1    
   157   80   81 1    
   158   80   82 1    
   159   80  201 1    
   160   81  202 1    
   161   81  203 1    
   162   81  204 1    
   163   82   83 2    
   164   82   84 am   BACKBONE|DICT|INTERRES
   165   84   85 1    
   166   84  205 1    
   167   85   86 1    
   168   85   87 1    
   169   85  206 1    
   170   86  207 1    
   171   86  208 1    
   172   86  209 1    
   173   87   88 2    
   174   87   89 am   BACKBONE|DICT|INTERRES
   175   89   90 1    
   176   89  210 1    
   177   90   91 1    
   178   90   92 1    
   179   90  211 1    
   180   91  212 1    
   181   91  213 1    
   182   91  214 1    
   183   92   93 2    
   184   92   94 am   BACKBONE|DICT|INTERRES
   185   94   95 1    
   186   94  215 1    
   187   95   96 1    
   188   95   97 1    
   189   95  216 1    
   190   96  217 1    
   191   96  218 1    
   192   96  219 1    
   193   97   98 2    
   194   97   99 am   BACKBONE|DICT|INTERRES
   195   99  100 1    
   196   99  220 1    
   197  100  101 1    
   198  100  102 1    
   199  100  221 1    
   200  101  222 1    
   201  101  223 1    
   202  101  224 1    
   203  102  103 2    
   204  102  104 am   BACKBONE|DICT|INTERRES
   205  104  105 1    
   206  104  225 1    
   207  105  106 1    
   208  105  107 1    
   209  105  226 1    
   210  106  227 1    
   211  106  228 1    
   212  106  229 1    
   213  107  108 2    
   214  107  109 am   BACKBONE|DICT|INTERRES
   215  109  110 1    
   216  109  230 1    
   217  110  111 1    
   218  110  112 1    
   219  110  231 1    
   220  111  232 1    
   221  111  233 1    
   222  111  234 1    
   223  112  113 2    
   224  112  114 am   BACKBONE|DICT|INTERRES
   225  114  115 1    
   226  114  235 1    
   227  115  116 1    
   228  115  117 1    
   229  115  236 1    
   230  116  237 1    
   231  116  238 1    
   232  116  239 1    
   233  117  118 2    
   234  117  119 am   BACKBONE|DICT|INTERRES
   235  119  120 1    
   236  119  240 1    
   237  120  121 1    
   238  120  124 1    
   239  120  241 1    
   240  121  122 am   BACKBONE|DICT|INTERRES
   241  121  123 2    
   242  122  242 1    
   243  122  243 1    
   244  124  125 1    
   245  124  244 1    
   246  124  245 1    
   247  125  126 1    
   248  126  246 1    
   249  126  247 1    
@<TRIPOS>SUBSTRUCTURE
     1 UNK         1 GROUP             0       ****    0 ROOT    
