@<TRIPOS>MOLECULE
3R540
247   249    1
SMALL
USER_CHARGES


@<TRIPOS>ATOM
      1 CA         -3.0050  -12.3987  -47.5821 C.3       0 UNK        -0.1800 
      2 C          -1.7283  -13.2126  -47.7368 C.2       0 UNK         0.5000 
      3 O          -0.6399  -12.7061  -47.4606 O.2       0 UNK        -0.5000 
      4 N          -1.8542  -14.4705  -48.1771 N.am      1 UNK        -0.5000 
      5 CA         -0.7516  -15.4185  -48.3615 C.3       1 UNK         0.1400 
      6 C6         -1.0883  -16.4975  -49.4221 C.3       23 UNK        -0.0398 
      7 S7         -1.1153  -15.8138  -51.1150 S.3       23 UNK        -0.2404 
      8 C8          0.6246  -16.0028  -51.6383 C.3       23 UNK        -0.0205 
      9 C9          0.9825  -17.4523  -51.9371 C.ar      23 UNK        -0.0193 
     10 C10         0.6974  -18.0033  -53.1885 C.ar      23 UNK        -0.1150 
     11 C11         0.9986  -19.3407  -53.4586 C.ar      23 UNK        -0.0193 
     12 C12         1.5614  -20.1323  -52.4533 C.ar      23 UNK        -0.1150 
     13 C13         1.8689  -19.5966  -51.1978 C.ar      23 UNK        -0.0193 
     14 C14         1.6061  -18.2401  -50.9655 C.ar      23 UNK        -0.1150 
     15 C15         2.4701  -20.5372  -50.1478 C.3       23 UNK        -0.0205 
     16 S16         3.1203  -19.7865  -48.6098 S.3       23 UNK        -0.2404 
     17 C17         1.6337  -19.2885  -47.6731 C.3       23 UNK        -0.0398 
     18 CA          0.7538  -20.4563  -47.1598 C.3       11 UNK         0.1400 
     19 N           0.4601  -20.3424  -45.7287 N.am      11 UNK        -0.5000 
     20 C           0.0091  -21.3538  -44.9740 C.2       10 UNK         0.5000 
     21 O          -0.1566  -22.4990  -45.3946 O.2       10 UNK        -0.5000 
     22 CA         -0.3669  -21.0132  -43.5207 C.3       10 UNK         0.1400 
     23 CB          0.8570  -21.0965  -42.6033 C.3       10 UNK        -0.1800 
     24 N          -0.9845  -19.6903  -43.3897 N.am      10 UNK        -0.5000 
     25 C          -2.2090  -19.4031  -43.8558 C.2       9 UNK         0.5000 
     26 O          -2.8977  -20.2223  -44.4620 O.2       9 UNK        -0.5000 
     27 CA         -2.7605  -17.9881  -43.6139 C.3       9 UNK         0.1400 
     28 CB         -4.2650  -17.9952  -43.2858 C.3       9 UNK        -0.1800 
     29 N          -2.0331  -17.3006  -42.5475 N.am      9 UNK        -0.5000 
     30 C          -1.6997  -16.0069  -42.5737 C.2       8 UNK         0.5000 
     31 O          -2.0116  -15.2415  -43.4858 O.2       8 UNK        -0.5000 
     32 CA         -0.8784  -15.4591  -41.3918 C.3       8 UNK         0.1400 
     33 CB         -1.7783  -14.6325  -40.4601 C.3       8 UNK        -0.1800 
     34 N          -0.1595  -16.4475  -40.5830 N.am      8 UNK        -0.5000 
     35 C           0.8011  -17.2967  -40.9787 C.2       7 UNK         0.5000 
     36 O           1.0934  -17.5204  -42.1576 O.2       7 UNK        -0.5000 
     37 CA          1.5771  -17.9659  -39.8284 C.3       7 UNK         0.1400 
     38 CB          2.8456  -18.7052  -40.2869 C.3       7 UNK        -0.1800 
     39 N           1.9498  -16.9281  -38.8679 N.am      7 UNK        -0.5000 
     40 C           1.7455  -16.9605  -37.5446 C.2       6 UNK         0.5000 
     41 O           1.2546  -17.9278  -36.9609 O.2       6 UNK        -0.5000 
     42 CA          2.0975  -15.6844  -36.7419 C.3       6 UNK         0.1400 
     43 CB          2.6967  -16.0007  -35.3550 C.3       6 UNK        -0.1800 
     44 N           2.9240  -14.7183  -37.4814 N.am      6 UNK        -0.5000 
     45 C           4.1958  -14.8744  -37.8729 C.2       5 UNK         0.5000 
     46 O           4.9020  -15.8417  -37.5801 O.2       5 UNK        -0.5000 
     47 CA          4.7625  -13.7753  -38.7932 C.3       5 UNK         0.1400 
     48 CB          5.7696  -12.8941  -38.0389 C.3       5 UNK        -0.1800 
     49 N           5.4144  -14.3658  -39.9631 N.am      5 UNK        -0.5000 
     50 C           4.7868  -15.1188  -40.8755 C.2       4 UNK         0.5000 
     51 O           3.5596  -15.2643  -40.9129 O.2       4 UNK        -0.5000 
     52 CA          5.6805  -15.8622  -41.8818 C.3       4 UNK         0.1400 
     53 CB          6.6048  -16.8612  -41.1508 C.3       4 UNK        -0.1800 
     54 N           4.8133  -16.5654  -42.8204 N.am      4 UNK        -0.5000 
     55 C           5.1790  -17.2331  -43.9204 C.2       3 UNK         0.5000 
     56 O           6.3355  -17.2901  -44.3393 O.2       3 UNK        -0.5000 
     57 CA          4.0593  -17.9656  -44.6810 C.3       3 UNK         0.1400 
     58 CB          3.9330  -19.4111  -44.1810 C.3       3 UNK        -0.1800 
     59 N           2.7703  -17.2814  -44.5415 N.am      3 UNK        -0.5000 
     60 C           2.3914  -16.2796  -45.3427 C.2       2 UNK         0.5000 
     61 O           3.0473  -15.8892  -46.3118 O.2       2 UNK        -0.5000 
     62 CA          1.0722  -15.5781  -44.9919 C.3       2 UNK         0.1400 
     63 CB          1.3558  -14.3226  -44.1533 C.3       2 UNK        -0.1800 
     64 N           0.3667  -15.1859  -46.2069 N.am      2 UNK        -0.5000 
     65 C          -0.3161  -16.0144  -47.0038 C.2       1 UNK         0.5000 
     66 O          -0.5934  -17.1791  -46.7037 O.2       1 UNK        -0.5000 
     67 C          -0.5575  -20.5857  -47.9638 C.2       11 UNK         0.5000 
     68 O          -0.6321  -21.4129  -48.8686 O.2       11 UNK        -0.5000 
     69 N          -1.5880  -19.8138  -47.5812 N.am      12 UNK        -0.5000 
     70 CA         -2.9438  -19.9031  -48.1286 C.3       12 UNK         0.1400 
     71 CB         -3.8409  -18.8182  -47.5114 C.3       12 UNK        -0.1800 
     72 C          -3.5666  -21.2973  -47.9317 C.2       12 UNK         0.5000 
     73 O          -4.1352  -21.8411  -48.8767 O.2       12 UNK        -0.5000 
     74 N          -3.4097  -21.8712  -46.7308 N.am      13 UNK        -0.5000 
     75 CA         -3.8298  -23.2318  -46.3934 C.3       13 UNK         0.1400 
     76 CB         -3.6400  -23.4772  -44.8895 C.3       13 UNK        -0.1800 
     77 C          -3.1003  -24.3031  -47.2249 C.2       13 UNK         0.5000 
     78 O          -3.7528  -25.2135  -47.7370 O.2       13 UNK        -0.5000 
     79 N          -1.7783  -24.1468  -47.3966 N.am      14 UNK        -0.5000 
     80 CA         -0.9469  -24.9887  -48.2654 C.3       14 UNK         0.1400 
     81 CB          0.5346  -24.6367  -48.0621 C.3       14 UNK        -0.1800 
     82 C          -1.3385  -24.8873  -49.7546 C.2       14 UNK         0.5000 
     83 O          -1.2746  -25.8851  -50.4724 O.2       14 UNK        -0.5000 
     84 N          -1.7999  -23.7015  -50.1699 N.am      15 UNK        -0.5000 
     85 CA         -2.3824  -23.3967  -51.4772 C.3       15 UNK         0.1400 
     86 CB         -2.1862  -21.8975  -51.7622 C.3       15 UNK        -0.1800 
     87 C          -3.8679  -23.8097  -51.6052 C.2       15 UNK         0.5000 
     88 O          -4.5555  -23.3021  -52.4921 O.2       15 UNK        -0.5000 
     89 N          -4.3448  -24.7060  -50.7271 N.am      16 UNK        -0.5000 
     90 CA         -5.6899  -25.2888  -50.6816 C.3       16 UNK         0.1400 
     91 CB         -5.9420  -26.1775  -51.9175 C.3       16 UNK        -0.1800 
     92 C          -6.7887  -24.2332  -50.4471 C.2       16 UNK         0.5000 
     93 O          -7.7921  -24.2070  -51.1616 O.2       16 UNK        -0.5000 
     94 N          -6.5535  -23.3772  -49.4425 N.am      17 UNK        -0.5000 
     95 CA         -7.3556  -22.2114  -49.0548 C.3       17 UNK         0.1400 
     96 CB         -8.7712  -22.6225  -48.5977 C.3       17 UNK        -0.1800 
     97 C          -7.3466  -21.1251  -50.1497 C.2       17 UNK         0.5000 
     98 O          -8.3896  -20.5483  -50.4624 O.2       17 UNK        -0.5000 
     99 N          -6.1481  -20.8828  -50.7025 N.am      18 UNK        -0.5000 
    100 CA        -5.8271  -19.9644  -51.7976 C.3       18 UNK         0.1400 
    101 CB        -5.9349  -18.5008  -51.3244 C.3       18 UNK        -0.1800 
    102 C         -6.6519  -20.2610  -53.0666 C.2       18 UNK         0.5000 
    103 O         -7.4221  -19.4145  -53.5265 O.2       18 UNK        -0.5000 
    104 N         -6.4872  -21.4826  -53.5901 N.am      19 UNK        -0.5000 
    105 CA        -7.1168  -21.9700  -54.8176 C.3       19 UNK         0.1400 
    106 CB        -6.8438  -23.4779  -54.9382 C.3       19 UNK        -0.1800 
    107 C         -6.6322  -21.2238  -56.0775 C.2       19 UNK         0.5000 
    108 O         -5.6537  -20.4742  -56.0245 O.2       19 UNK        -0.5000 
    109 N         -7.3080  -21.4716  -57.2081 N.am      20 UNK        -0.5000 
    110 CA        -7.0914  -20.8266  -58.5115 C.3       20 UNK         0.1400 
    111 CB        -8.1186  -21.3814  -59.5108 C.3       20 UNK        -0.1800 
    112 C         -5.6639  -20.9405  -59.0910 C.2       20 UNK         0.5000 
    113 O         -5.2995  -20.1393  -59.9523 O.2       20 UNK        -0.5000 
    114 N         -4.8768  -21.9086  -58.6021 N.am      21 UNK        -0.5000 
    115 CA        -3.4505  -22.0581  -58.8957 C.3       21 UNK         0.1400 
    116 CB        -2.9761  -23.4203  -58.3660 C.3       21 UNK        -0.1800 
    117 C         -2.5818  -20.9235  -58.3103 C.2       21 UNK         0.5000 
    118 O         -1.5250  -20.6303  -58.8717 O.2       21 UNK        -0.5000 
    119 N         -3.0376  -20.3134  -57.2088 N.am      22 UNK        -0.5000 
    120 CA        -2.3817  -19.1921  -56.5182 C.3       22 UNK         0.1400 
    121 C         -3.2253  -17.8895  -56.5644 C.2       22 UNK         0.5000 
    122 N         -4.5504  -17.9571  -56.5807 N.am      22 UNK        -0.7600 
    123 O         -2.6660  -16.7971  -56.5969 O.2       22 UNK        -0.5000 
    124 C124       -2.0345  -19.5495  -55.0514 C.3       23 UNK        -0.0398 
    125 S125       -0.7913  -20.8807  -54.9395 S.3       23 UNK        -0.2404 
    126 C126        0.7542  -19.9257  -54.8430 C.3       23 UNK        -0.0205 
    127 H127       -3.8873  -12.9679  -47.8757 H         1 UNK         0.0600 
    128 H128       -3.1289  -12.0905  -46.5439 H         1 UNK         0.0600 
    129 H129       -2.9564  -11.5032  -48.2017 H         1 UNK         0.0600 
    130 H130       -2.7761  -14.8299  -48.3778 H         1 UNK         0.3000 
    131 H131        0.1145  -14.8682  -48.7364 H         1 UNK         0.0600 
    132 H132       -0.3820  -17.3223  -49.3932 H         1 UNK         0.0800 
    133 H133       -2.0615  -16.9434  -49.2216 H         1 UNK         0.0800 
    134 H134        1.2863  -15.5922  -50.8742 H         1 UNK         0.0800 
    135 H135        0.7871  -15.3988  -52.5322 H         1 UNK         0.0800 
    136 H136        0.2473  -17.3858  -53.9531 H         1 UNK         0.1150 
    137 H137        1.7729  -21.1730  -52.6565 H         1 UNK         0.1150 
    138 H138        1.8725  -17.7784  -50.0295 H         1 UNK         0.1150 
    139 H139        1.7387  -21.3039  -49.8951 H         1 UNK         0.0800 
    140 H140        3.3019  -21.0678  -50.6132 H         1 UNK         0.0800 
    141 H141        1.0557  -18.5680  -48.2421 H         1 UNK         0.0800 
    142 H142        2.0144  -18.7165  -46.8297 H         1 UNK         0.0800 
    143 H143        1.3063  -21.3888  -47.2952 H         1 UNK         0.0600 
    144 H144        0.5236  -19.4225  -45.3197 H         1 UNK         0.3000 
    145 H145       -1.0878  -21.7622  -43.1853 H         1 UNK         0.0600 
    146 H146        0.5753  -20.9688  -41.5580 H         1 UNK         0.0600 
    147 H147        1.3531  -22.0638  -42.6927 H         1 UNK         0.0600 
    148 H148        1.5836  -20.3268  -42.8525 H         1 UNK         0.0600 
    149 H149       -0.4343  -18.9642  -42.9499 H         1 UNK         0.3000 
    150 H150       -2.6191  -17.4587  -44.5587 H         1 UNK         0.0600 
    151 H151       -4.8438  -18.4606  -44.0844 H         1 UNK         0.0600 
    152 H152       -4.6454  -16.9811  -43.1633 H         1 UNK         0.0600 
    153 H153       -4.4706  -18.5441  -42.3662 H         1 UNK         0.0600 
    154 H154       -1.7691  -17.8543  -41.7452 H         1 UNK         0.3000 
    155 H155       -0.1280  -14.7873  -41.8076 H         1 UNK         0.0600 
    156 H156       -2.5298  -15.2547  -39.9725 H         1 UNK         0.0600 
    157 H157       -2.3056  -13.8531  -41.0120 H         1 UNK         0.0600 
    158 H158       -1.1952  -14.1371  -39.6834 H         1 UNK         0.0600 
    159 H159       -0.3146  -16.3759  -39.5882 H         1 UNK         0.3000 
    160 H160        0.9020  -18.6905  -39.3692 H         1 UNK         0.0600 
    161 H161        3.3971  -19.1022  -39.4347 H         1 UNK         0.0600 
    162 H162        3.5178  -18.0510  -40.8394 H         1 UNK         0.0600 
    163 H163        2.5999  -19.5484  -40.9287 H         1 UNK         0.0600 
    164 H164        2.3614  -16.0978  -39.2793 H         1 UNK         0.3000 
    165 H165        1.1457  -15.1801  -36.5699 H         1 UNK         0.0600 
    166 H166        2.9419  -15.0876  -34.8128 H         1 UNK         0.0600 
    167 H167        1.9881  -16.5591  -34.7423 H         1 UNK         0.0600 
    168 H168        3.6027  -16.6025  -35.4288 H         1 UNK         0.0600 
    169 H169        2.4362  -13.8849  -37.7809 H         1 UNK         0.3000 
    170 H170        3.9451  -13.1425  -39.1458 H         1 UNK         0.0600 
    171 H171        5.3036  -12.4254  -37.1712 H         1 UNK         0.0600 
    172 H172        6.6224  -13.4724  -37.6809 H         1 UNK         0.0600 
    173 H173        6.1490  -12.0943  -38.6752 H         1 UNK         0.0600 
    174 H174        6.4223  -14.3168  -39.9819 H         1 UNK         0.3000 
    175 H175        6.2760  -15.1285  -42.4278 H         1 UNK         0.0600 
    176 H176        6.0303  -17.6056  -40.5980 H         1 UNK         0.0600 
    177 H177        7.2572  -17.3921  -41.8433 H         1 UNK         0.0600 
    178 H178        7.2550  -16.3552  -40.4366 H         1 UNK         0.0600 
    179 H179        3.8342  -16.5198  -42.5650 H         1 UNK         0.3000 
    180 H180        4.3419  -18.0066  -45.7355 H         1 UNK         0.0600 
    181 H181        3.7063  -19.4482  -43.1161 H         1 UNK         0.0600 
    182 H182        4.8658  -19.9556  -44.3326 H         1 UNK         0.0600 
    183 H183        3.1547  -19.9511  -44.7192 H         1 UNK         0.0600 
    184 H184        2.2012  -17.5119  -43.7307 H         1 UNK         0.3000 
    185 H185        0.4429  -16.2636  -44.4245 H         1 UNK         0.0600 
    186 H186        1.8392  -14.5840  -43.2108 H         1 UNK         0.0600 
    187 H187        2.0149  -13.6291  -44.6772 H         1 UNK         0.0600 
    188 H188        0.4354  -13.7885  -43.9172 H         1 UNK         0.0600 
    189 H189        0.4983  -14.2314  -46.5204 H         1 UNK         0.3000 
    190 H190       -1.4256  -19.1067  -46.8748 H         1 UNK         0.3000 
    191 H191       -2.8743  -19.7131  -49.2012 H         1 UNK         0.0600 
    192 H192       -4.0316  -18.9988  -46.4548 H         1 UNK         0.0600 
    193 H193       -4.8095  -18.7892  -48.0118 H         1 UNK         0.0600 
    194 H194       -3.3988  -17.8272  -47.5990 H         1 UNK         0.0600 
    195 H195       -2.9970  -21.3242  -45.9794 H         1 UNK         0.3000 
    196 H196       -4.8961  -23.3112  -46.6144 H         1 UNK         0.0600 
    197 H197       -3.9744  -24.4774  -44.6117 H         1 UNK         0.0600 
    198 H198       -4.2172  -22.7653  -44.2991 H         1 UNK         0.0600 
    199 H199       -2.5952  -23.3859  -44.5934 H         1 UNK         0.0600 
    200 H200       -1.3086  -23.3899  -46.9119 H         1 UNK         0.3000 
    201 H201       -1.0931  -26.0258  -47.9568 H         1 UNK         0.0600 
    202 H202        0.8268  -24.7462  -47.0176 H         1 UNK         0.0600 
    203 H203        0.7534  -23.6132  -48.3649 H         1 UNK         0.0600 
    204 H204        1.1749  -25.2950  -48.6504 H         1 UNK         0.0600 
    205 H205       -1.7455  -22.9213  -49.5225 H         1 UNK         0.3000 
    206 H206       -1.8359  -23.9544  -52.2399 H         1 UNK         0.0600 
    207 H207       -2.5814  -21.6270  -52.7406 H         1 UNK         0.0600 
    208 H208       -2.6925  -21.2762  -51.0260 H         1 UNK         0.0600 
    209 H209       -1.1296  -21.6285  -51.7540 H         1 UNK         0.0600 
    210 H210       -3.7213  -25.0166  -49.9933 H         1 UNK         0.3000 
    211 H211       -5.7087  -25.9397  -49.8063 H         1 UNK         0.0600 
    212 H212       -5.9375  -25.6012  -52.8421 H         1 UNK         0.0600 
    213 H213       -6.9078  -26.6794  -51.8488 H         1 UNK         0.0600 
    214 H214       -5.1804  -26.9523  -52.0047 H         1 UNK         0.0600 
    215 H215       -5.6495  -23.4366  -48.9906 H         1 UNK         0.3000 
    216 H216       -6.8541  -21.7726  -48.1910 H         1 UNK         0.0600 
    217 H217       -9.3042  -21.7706  -48.1742 H         1 UNK         0.0600 
    218 H218       -8.7286  -23.3933  -47.8283 H         1 UNK         0.0600 
    219 H219       -9.3736  -23.0035  -49.4226 H         1 UNK         0.0600 
    220 H220       -5.3644  -21.4099  -50.3292 H         1 UNK         0.3000 
    221 H221       -4.7838  -20.1466  -52.0592 H         1 UNK         0.0600 
    222 H222       -6.9529  -18.2418  -51.0318 H         1 UNK         0.0600 
    223 H223       -5.2825  -18.3143  -50.4716 H         1 UNK         0.0600 
    224 H224       -5.6365  -17.8133  -52.1168 H         1 UNK         0.0600 
    225 H225       -5.8243  -22.1179  -53.1499 H         1 UNK         0.3000 
    226 H226       -8.1936  -21.8141  -54.7281 H         1 UNK         0.0600 
    227 H227       -7.3290  -23.9065  -55.8156 H         1 UNK         0.0600 
    228 H228       -5.7762  -23.6881  -55.0151 H         1 UNK         0.0600 
    229 H229       -7.2279  -24.0110  -54.0685 H         1 UNK         0.0600 
    230 H230       -8.0824  -22.1186  -57.1678 H         1 UNK         0.3000 
    231 H231       -7.2898  -19.7614  -58.3773 H         1 UNK         0.0600 
    232 H232       -9.1387  -21.2024  -59.1705 H         1 UNK         0.0600 
    233 H233       -7.9954  -22.4551  -59.6575 H         1 UNK         0.0600 
    234 H234       -8.0163  -20.9031  -60.4860 H         1 UNK         0.0600 
    235 H235       -5.2629  -22.5246  -57.9025 H         1 UNK         0.3000 
    236 H236       -3.3230  -22.0477  -59.9801 H         1 UNK         0.0600 
    237 H237       -1.9210  -23.5806  -58.5915 H         1 UNK         0.0600 
    238 H238       -3.0948  -23.4940  -57.2841 H         1 UNK         0.0600 
    239 H239       -3.5332  -24.2383  -58.8231 H         1 UNK         0.0600 
    240 H240       -3.9395  -20.5882  -56.8330 H         1 UNK         0.3000 
    241 H241       -1.4449  -18.9510  -57.0239 H         1 UNK         0.0600 
    242 H242       -5.0251  -18.8494  -56.4633 H         1 UNK         0.3800 
    243 H243       -5.0883  -17.1064  -56.6183 H         1 UNK         0.3800 
    244 H244       -1.6720  -18.6761  -54.5094 H         1 UNK         0.0800 
    245 H245       -2.9319  -19.8754  -54.5226 H         1 UNK         0.0800 
    246 H246        1.5841  -20.5836  -55.1050 H         1 UNK         0.0800 
    247 H247        0.7470  -19.1384  -55.5984 H         1 UNK         0.0800 
@<TRIPOS>BOND
     1    1    2 1    
     2    1  127 1    
     3    1  128 1    
     4    1  129 1    
     5    2    3 2    
     6    2    4 am   BACKBONE|DICT|INTERRES
     7    4    5 1    
     8    4  130 1    
     9    5    6 1    
    10    5   65 1    
    11    5  131 1    
    12    6    7 1    
    13    6  132 1    
    14    6  133 1    
    15    7    8 1    
    16    8    9 1    
    17    8  134 1    
    18    8  135 1    
    19    9   10 ar   
    20    9   14 ar   
    21   10   11 ar   
    22   10  136 1    
    23   11   12 ar   
    24   11  126 1    
    25   12   13 ar   
    26   12  137 1    
    27   13   14 ar   
    28   13   15 1    
    29   14  138 1    
    30   15   16 1    
    31   15  139 1    
    32   15  140 1    
    33   16   17 1    
    34   17   18 1    
    35   17  141 1    
    36   17  142 1    
    37   18   19 1    
    38   18   67 1    
    39   18  143 1    
    40   19   20 am   BACKBONE|DICT|INTERRES
    41   19  144 1    
    42   20   21 2    
    43   20   22 1    
    44   22   23 1    
    45   22   24 1    
    46   22  145 1    
    47   23  146 1    
    48   23  147 1    
    49   23  148 1    
    50   24   25 am   BACKBONE|DICT|INTERRES
    51   24  149 1    
    52   25   26 2    
    53   25   27 1    
    54   27   28 1    
    55   27   29 1    
    56   27  150 1    
    57   28  151 1    
    58   28  152 1    
    59   28  153 1    
    60   29   30 am   BACKBONE|DICT|INTERRES
    61   29  154 1    
    62   30   31 2    
    63   30   32 1    
    64   32   33 1    
    65   32   34 1    
    66   32  155 1    
    67   33  156 1    
    68   33  157 1    
    69   33  158 1    
    70   34   35 am   BACKBONE|DICT|INTERRES
    71   34  159 1    
    72   35   36 2    
    73   35   37 1    
    74   37   38 1    
    75   37   39 1    
    76   37  160 1    
    77   38  161 1    
    78   38  162 1    
    79   38  163 1    
    80   39   40 am   BACKBONE|DICT|INTERRES
    81   39  164 1    
    82   40   41 2    
    83   40   42 1    
    84   42   43 1    
    85   42   44 1    
    86   42  165 1    
    87   43  166 1    
    88   43  167 1    
    89   43  168 1    
    90   44   45 am   BACKBONE|DICT|INTERRES
    91   44  169 1    
    92   45   46 2    
    93   45   47 1    
    94   47   48 1    
    95   47   49 1    
    96   47  170 1    
    97   48  171 1    
    98   48  172 1    
    99   48  173 1    
   100   49   50 am   BACKBONE|DICT|INTERRES
   101   49  174 1    
   102   50   51 2    
   103   50   52 1    
   104   52   53 1    
   105   52   54 1    
   106   52  175 1    
   107   53  176 1    
   108   53  177 1    
   109   53  178 1    
   110   54   55 am   BACKBONE|DICT|INTERRES
   111   54  179 1    
   112   55   56 2    
   113   55   57 1    
   114   57   58 1    
   115   57   59 1    
   116   57  180 1    
   117   58  181 1    
   118   58  182 1    
   119   58  183 1    
   120   59   60 am   BACKBONE|DICT|INTERRES
   121   59  184 1    
   122   60   61 2    
   123   60   62 1    
   124   62   63 1    
   125   62   64 1    
   126   62  185 1    
   127   63  186 1    
   128   63  187 1    
   129   63  188 1    
   130   64   65 am   BACKBONE|DICT|INTERRES
   131   64  189 1    
   132   65   66 2    
   133   67   68 2    
   134   67   69 am   BACKBONE|DICT|INTERRES
   135   69   70 1    
   136   69  190 1    
   137   70   71 1    
   138   70   72 1    
   139   70  191 1    
   140   71  192 1    
   141   71  193 1    
   142   71  194 1    
   143   72   73 2    
   144   72   74 am   BACKBONE|DICT|INTERRES
   145   74   75 1    
   146   74  195 1    
   147   75   76 1    
   148   75   77 1    
   149   75  196 1    
   150   76  197 1    
   151   76  198 1    
   152   76  199 1    
   153   77   78 2    
   154   77   79 am   BACKBONE|DICT|INTERRES
   155   79   80 1    
   156   79  200 1    
   157   80   81 1    
   158   80   82 1    
   159   80  201 1    
   160   81  202 1    
   161   81  203 1    
   162   81  204 1    
   163   82   83 2    
   164   82   84 am   BACKBONE|DICT|INTERRES
   165   84   85 1    
   166   84  205 1    
   167   85   86 1    
   168   85   87 1    
   169   85  206 1    
   170   86  207 1    
   171   86  208 1    
   172   86  209 1    
   173   87   88 2    
   174   87   89 am   BACKBONE|DICT|INTERRES
   175   89   90 1    
   176   89  210 1    
   177   90   91 1    
   178   90   92 1    
   179   90  211 1    
   180   91  212 1    
   181   91  213 1    
   182   91  214 1    
   183   92   93 2    
   184   92   94 am   BACKBONE|DICT|INTERRES
   185   94   95 1    
   186   94  215 1    
   187   95   96 1    
   188   95   97 1    
   189   95  216 1    
   190   96  217 1    
   191   96  218 1    
   192   96  219 1    
   193   97   98 2    
   194   97   99 am   BACKBONE|DICT|INTERRES
   195   99  100 1    
   196   99  220 1    
   197  100  101 1    
   198  100  102 1    
   199  100  221 1    
   200  101  222 1    
   201  101  223 1    
   202  101  224 1    
   203  102  103 2    
   204  102  104 am   BACKBONE|DICT|INTERRES
   205  104  105 1    
   206  104  225 1    
   207  105  106 1    
   208  105  107 1    
   209  105  226 1    
   210  106  227 1    
   211  106  228 1    
   212  106  229 1    
   213  107  108 2    
   214  107  109 am   BACKBONE|DICT|INTERRES
   215  109  110 1    
   216  109  230 1    
   217  110  111 1    
   218  110  112 1    
   219  110  231 1    
   220  111  232 1    
   221  111  233 1    
   222  111  234 1    
   223  112  113 2    
   224  112  114 am   BACKBONE|DICT|INTERRES
   225  114  115 1    
   226  114  235 1    
   227  115  116 1    
   228  115  117 1    
   229  115  236 1    
   230  116  237 1    
   231  116  238 1    
   232  116  239 1    
   233  117  118 2    
   234  117  119 am   BACKBONE|DICT|INTERRES
   235  119  120 1    
   236  119  240 1    
   237  120  121 1    
   238  120  124 1    
   239  120  241 1    
   240  121  122 am   BACKBONE|DICT|INTERRES
   241  121  123 2    
   242  122  242 1    
   243  122  243 1    
   244  124  125 1    
   245  124  244 1    
   246  124  245 1    
   247  125  126 1    
   248  126  246 1    
   249  126  247 1    
@<TRIPOS>SUBSTRUCTURE
     1 UNK         1 GROUP             0       ****    0 ROOT    
