@<TRIPOS>MOLECULE
3R540
247   249    1
SMALL
USER_CHARGES


@<TRIPOS>ATOM
      1 CA         -1.7104  -15.1181  -49.4012 C.3       0 UNK        -0.1800 
      2 C          -0.3073  -14.8156  -48.8946 C.2       0 UNK         0.5000 
      3 O           0.2976  -15.6662  -48.2435 O.2       0 UNK        -0.5000 
      4 N           0.1996  -13.6087  -49.1901 N.am      1 UNK        -0.5000 
      5 CA          1.5454  -13.1122  -48.8565 C.3       1 UNK         0.1400 
      6 C6          2.6710  -13.7926  -49.6806 C.3       23 UNK        -0.0398 
      7 S7          2.4505  -13.5721  -51.4830 S.3       23 UNK        -0.2404 
      8 C8          3.0258  -15.1699  -52.1420 C.3       23 UNK        -0.0205 
      9 C9          1.9039  -16.1925  -52.2640 C.ar      23 UNK        -0.0193 
     10 C10         1.2797  -16.4162  -53.4948 C.ar      23 UNK        -0.1150 
     11 C11         0.2877  -17.3945  -53.6238 C.ar      23 UNK        -0.0193 
     12 C12        -0.0906  -18.1453  -52.5057 C.ar      23 UNK        -0.1150 
     13 C13         0.5189  -17.9237  -51.2670 C.ar      23 UNK        -0.0193 
     14 C14         1.5136  -16.9475  -51.1570 C.ar      23 UNK        -0.1150 
     15 C15         0.0967  -18.7145  -50.0369 C.3       23 UNK        -0.0205 
     16 S16         1.5133  -19.5558  -49.2576 S.3       23 UNK        -0.2404 
     17 C17         1.0012  -19.5875  -47.5069 C.3       23 UNK        -0.0398 
     18 CA          0.4734  -20.9732  -47.0757 C.3       11 UNK         0.1400 
     19 N           0.6037  -21.1944  -45.6359 N.am      11 UNK        -0.5000 
     20 C           0.4628  -22.3877  -45.0430 C.2       10 UNK         0.5000 
     21 O           0.2263  -23.4312  -45.6530 O.2       10 UNK        -0.5000 
     22 CA          0.5604  -22.4122  -43.5080 C.3       10 UNK         0.1400 
     23 CB          2.0259  -22.3495  -43.0527 C.3       10 UNK        -0.1800 
     24 N          -0.1991  -21.3305  -42.8803 N.am      10 UNK        -0.5000 
     25 C          -1.5302  -21.1938  -42.9671 C.2       9 UNK         0.5000 
     26 O          -2.2625  -21.9847  -43.5629 O.2       9 UNK        -0.5000 
     27 CA         -2.1435  -19.9424  -42.3149 C.3       9 UNK         0.1400 
     28 CB         -2.2500  -20.1161  -40.7926 C.3       9 UNK        -0.1800 
     29 N          -1.4013  -18.7187  -42.6193 N.am      9 UNK        -0.5000 
     30 C          -1.2334  -18.2131  -43.8503 C.2       8 UNK         0.5000 
     31 O          -1.6929  -18.7207  -44.8713 O.2       8 UNK        -0.5000 
     32 CA         -0.3627  -16.9517  -43.9662 C.3       8 UNK         0.1400 
     33 CB         -1.1311  -15.7210  -43.4612 C.3       8 UNK        -0.1800 
     34 N           0.8973  -17.0826  -43.2360 N.am      8 UNK        -0.5000 
     35 C           1.8284  -18.0185  -43.4728 C.2       7 UNK         0.5000 
     36 O           1.7494  -18.8593  -44.3678 O.2       7 UNK        -0.5000 
     37 CA          3.0216  -18.0592  -42.5048 C.3       7 UNK         0.1400 
     38 CB          4.0583  -16.9811  -42.8580 C.3       7 UNK        -0.1800 
     39 N           2.5967  -17.9063  -41.1135 N.am      7 UNK        -0.5000 
     40 C           1.8576  -18.8033  -40.4439 C.2       6 UNK         0.5000 
     41 O           1.4857  -19.8776  -40.9160 O.2       6 UNK        -0.5000 
     42 CA          1.4249  -18.4082  -39.0211 C.3       6 UNK         0.1400 
     43 CB          2.5472  -18.6936  -38.0121 C.3       6 UNK        -0.1800 
     44 N           1.0347  -17.0003  -38.9312 N.am      6 UNK        -0.5000 
     45 C          -0.0460  -16.4778  -39.5278 C.2       5 UNK         0.5000 
     46 O          -0.8486  -17.1370  -40.1884 O.2       5 UNK        -0.5000 
     47 CA         -0.2308  -14.9541  -39.4035 C.3       5 UNK         0.1400 
     48 CB         -0.9472  -14.6003  -38.0918 C.3       5 UNK        -0.1800 
     49 N           1.0317  -14.2117  -39.4877 N.am      5 UNK        -0.5000 
     50 C           1.8110  -14.1792  -40.5754 C.2       4 UNK         0.5000 
     51 O           1.5607  -14.7983  -41.6138 O.2       4 UNK        -0.5000 
     52 CA          3.0957  -13.3458  -40.4886 C.3       4 UNK         0.1400 
     53 CB          4.2369  -14.1532  -39.8472 C.3       4 UNK        -0.1800 
     54 N           3.4562  -12.9690  -41.8476 N.am      4 UNK        -0.5000 
     55 C           4.1391  -11.8842  -42.2264 C.2       3 UNK         0.5000 
     56 O           4.6667  -11.0957  -41.4410 O.2       3 UNK        -0.5000 
     57 CA          4.2244  -11.6263  -43.7460 C.3       3 UNK         0.1400 
     58 CB          5.5309  -12.1984  -44.3163 C.3       3 UNK        -0.1800 
     59 N           3.0936  -12.1986  -44.4836 N.am      3 UNK        -0.5000 
     60 C           1.8259  -11.7772  -44.4014 C.2       2 UNK         0.5000 
     61 O           1.4857  -10.7655  -43.7854 O.2       2 UNK        -0.5000 
     62 CA          0.7707  -12.6500  -45.1120 C.3       2 UNK         0.1400 
     63 CB         -0.6668  -12.2884  -44.6955 C.3       2 UNK        -0.1800 
     64 N           0.8536  -12.5999  -46.5705 N.am      2 UNK        -0.5000 
     65 C           1.8061  -13.1550  -47.3322 C.2       1 UNK         0.5000 
     66 O           2.8070  -13.7143  -46.8776 O.2       1 UNK        -0.5000 
     67 C          -0.9654  -21.2222  -47.5679 C.2       11 UNK         0.5000 
     68 O          -1.1380  -21.8654  -48.6004 O.2       11 UNK        -0.5000 
     69 N          -1.9729  -20.7637  -46.8099 N.am      12 UNK        -0.5000 
     70 CA         -3.3886  -21.0142  -47.0839 C.3       12 UNK         0.1400 
     71 CB         -4.2682  -20.2356  -46.0954 C.3       12 UNK        -0.1800 
     72 C          -3.7394  -22.5104  -47.0588 C.2       12 UNK         0.5000 
     73 O          -4.4484  -22.9727  -47.9522 O.2       12 UNK        -0.5000 
     74 N          -3.2090  -23.2446  -46.0707 N.am      13 UNK        -0.5000 
     75 CA         -3.3430  -24.6971  -45.9578 C.3       13 UNK         0.1400 
     76 CB         -2.7735  -25.1698  -44.6119 C.3       13 UNK        -0.1800 
     77 C          -2.6837  -25.4420  -47.1332 C.2       13 UNK         0.5000 
     78 O          -3.3124  -26.3266  -47.7162 O.2       13 UNK        -0.5000 
     79 N          -1.4565  -25.0376  -47.4946 N.am      14 UNK        -0.5000 
     80 CA         -0.7134  -25.5554  -48.6481 C.3       14 UNK         0.1400 
     81 CB          0.7106  -24.9798  -48.6418 C.3       14 UNK        -0.1800 
     82 C          -1.4121  -25.2703  -49.9927 C.2       14 UNK         0.5000 
     83 O          -1.3989  -26.1229  -50.8805 O.2       14 UNK        -0.5000 
     84 N          -2.0537  -24.1000  -50.0947 N.am      15 UNK        -0.5000 
     85 CA         -2.8726  -23.6584  -51.2225 C.3       15 UNK         0.1400 
     86 CB         -2.8465  -22.1205  -51.2848 C.3       15 UNK        -0.1800 
     87 C          -4.3183  -24.2014  -51.1887 C.2       15 UNK         0.5000 
     88 O          -5.1706  -23.6539  -51.8858 O.2       15 UNK        -0.5000 
     89 N          -4.5819  -25.2534  -50.3980 N.am      16 UNK        -0.5000 
     90 CA         -5.8453  -25.9933  -50.3005 C.3       16 UNK         0.1400 
     91 CB         -6.1314  -26.7468  -51.6169 C.3       16 UNK        -0.1800 
     92 C          -7.0241  -25.1114  -49.8409 C.2       16 UNK         0.5000 
     93 O          -8.0558  -25.0486  -50.5118 O.2       16 UNK        -0.5000 
     94 N          -6.8247  -24.4403  -48.6989 N.am      17 UNK        -0.5000 
     95 CA         -7.7174  -23.4607  -48.0710 C.3       17 UNK         0.1400 
     96 CB         -9.0886  -24.0736  -47.7138 C.3       17 UNK        -0.1800 
     97 C          -7.8097  -22.1629  -48.8977 C.2       17 UNK         0.5000 
     98 O          -8.9016  -21.6330  -49.1109 O.2       17 UNK        -0.5000 
     99 N          -6.6351  -21.6795  -49.3278 N.am      18 UNK        -0.5000 
    100 CA        -6.3966  -20.4475  -50.0844 C.3       18 UNK         0.1400 
    101 CB        -6.6731  -19.2106  -49.2043 C.3       18 UNK        -0.1800 
    102 C         -7.1324  -20.4050  -51.4401 C.2       18 UNK         0.5000 
    103 O         -7.7473  -19.3924  -51.7833 O.2       18 UNK        -0.5000 
    104 N         -7.0406  -21.5040  -52.1989 N.am      19 UNK        -0.5000 
    105 CA        -7.4596  -21.5755  -53.5972 C.3       19 UNK         0.1400 
    106 CB        -7.6709  -23.0515  -53.9766 C.3       19 UNK        -0.1800 
    107 C         -6.4098  -20.9129  -54.5126 C.2       19 UNK         0.5000 
    108 O         -5.3190  -20.5524  -54.0588 O.2       19 UNK        -0.5000 
    109 N         -6.7360  -20.7899  -55.8053 N.am      20 UNK        -0.5000 
    110 CA        -5.8802  -20.2220  -56.8539 C.3       20 UNK         0.1400 
    111 CB        -6.7659  -19.8168  -58.0460 C.3       20 UNK        -0.1800 
    112 C         -4.7218  -21.1616  -57.2670 C.2       20 UNK         0.5000 
    113 O         -4.5309  -21.4337  -58.4540 O.2       20 UNK        -0.5000 
    114 N         -3.9589  -21.6390  -56.2756 N.am      21 UNK        -0.5000 
    115 CA        -2.8455  -22.5822  -56.4081 C.3       21 UNK         0.1400 
    116 CB        -2.3680  -22.9784  -55.0027 C.3       21 UNK        -0.1800 
    117 C         -1.6724  -22.0524  -57.2557 C.2       21 UNK         0.5000 
    118 O         -0.9553  -22.8490  -57.8625 O.2       21 UNK        -0.5000 
    119 N         -1.5194  -20.7235  -57.3040 N.am      22 UNK        -0.5000 
    120 CA        -0.5762  -20.0170  -58.1845 C.3       22 UNK         0.1400 
    121 C         -1.0511  -19.9007  -59.6656 C.2       22 UNK         0.5000 
    122 N         -2.2610  -20.3139  -60.0276 N.am      22 UNK        -0.7600 
    123 O         -0.2970  -19.4318  -60.5139 O.2       22 UNK        -0.5000 
    124 C124       -0.1880  -18.6282  -57.6145 C.3       23 UNK        -0.0398 
    125 S125        0.6587  -18.7402  -56.0005 S.3       23 UNK        -0.2404 
    126 C126       -0.3647  -17.6397  -54.9756 C.3       23 UNK        -0.0205 
    127 H127       -2.1755  -14.2428  -49.8551 H         1 UNK         0.0600 
    128 H128       -2.3434  -15.4517  -48.5788 H         1 UNK         0.0600 
    129 H129       -1.6742  -15.9104  -50.1490 H         1 UNK         0.0600 
    130 H130       -0.3646  -12.9689  -49.7312 H         1 UNK         0.3000 
    131 H131        1.5495  -12.0538  -49.1218 H         1 UNK         0.0600 
    132 H132        3.6413  -13.3667  -49.4197 H         1 UNK         0.0800 
    133 H133        2.7329  -14.8513  -49.4327 H         1 UNK         0.0800 
    134 H134        3.8289  -15.5655  -51.5183 H         1 UNK         0.0800 
    135 H135        3.4711  -14.9953  -53.1226 H         1 UNK         0.0800 
    136 H136        1.5785  -15.8416  -54.3605 H         1 UNK         0.1150 
    137 H137       -0.8577  -18.9011  -52.6015 H         1 UNK         0.1150 
    138 H138        1.9886  -16.7878  -50.2006 H         1 UNK         0.1150 
    139 H139       -0.3691  -18.0254  -49.3331 H         1 UNK         0.0800 
    140 H140       -0.6601  -19.4595  -50.2883 H         1 UNK         0.0800 
    141 H141        0.2888  -18.7917  -47.2808 H         1 UNK         0.0800 
    142 H142        1.8976  -19.3449  -46.9358 H         1 UNK         0.0800 
    143 H143        1.1056  -21.7271  -47.5501 H         1 UNK         0.0600 
    144 H144        0.8277  -20.3806  -45.0687 H         1 UNK         0.3000 
    145 H145        0.1384  -23.3590  -43.1646 H         1 UNK         0.0600 
    146 H146        2.1064  -22.4598  -41.9712 H         1 UNK         0.0600 
    147 H147        2.6113  -23.1503  -43.5061 H         1 UNK         0.0600 
    148 H148        2.4933  -21.4031  -43.3269 H         1 UNK         0.0600 
    149 H149        0.3332  -20.6534  -42.3419 H         1 UNK         0.3000 
    150 H150       -3.1530  -19.8235  -42.7134 H         1 UNK         0.0600 
    151 H151       -2.8079  -21.0186  -40.5396 H         1 UNK         0.0600 
    152 H152       -2.7697  -19.2735  -40.3361 H         1 UNK         0.0600 
    153 H153       -1.2675  -20.1940  -40.3259 H         1 UNK         0.0600 
    154 H154       -1.0133  -18.2154  -41.8267 H         1 UNK         0.3000 
    155 H155       -0.1186  -16.7984  -45.0198 H         1 UNK         0.0600 
    156 H156       -1.5071  -15.8612  -42.4481 H         1 UNK         0.0600 
    157 H157       -1.9877  -15.5085  -44.1016 H         1 UNK         0.0600 
    158 H158       -0.4997  -14.8359  -43.4511 H         1 UNK         0.0600 
    159 H159        1.0678  -16.4015  -42.5014 H         1 UNK         0.3000 
    160 H160        3.5003  -19.0357  -42.6059 H         1 UNK         0.0600 
    161 H161        3.6459  -15.9755  -42.7798 H         1 UNK         0.0600 
    162 H162        4.4149  -17.1072  -43.8811 H         1 UNK         0.0600 
    163 H163        4.9272  -17.0394  -42.2025 H         1 UNK         0.0600 
    164 H164        2.8197  -17.0326  -40.6629 H         1 UNK         0.3000 
    165 H165        0.5606  -19.0198  -38.7533 H         1 UNK         0.0600 
    166 H166        2.2221  -18.4864  -36.9924 H         1 UNK         0.0600 
    167 H167        2.8474  -19.7417  -38.0497 H         1 UNK         0.0600 
    168 H168        3.4340  -18.0905  -38.2112 H         1 UNK         0.0600 
    169 H169        1.6405  -16.3876  -38.4059 H         1 UNK         0.3000 
    170 H170       -0.8638  -14.6322  -40.2332 H         1 UNK         0.0600 
    171 H171       -1.8990  -15.1274  -38.0129 H         1 UNK         0.0600 
    172 H172       -0.3498  -14.8686  -37.2197 H         1 UNK         0.0600 
    173 H173       -1.1632  -13.5332  -38.0361 H         1 UNK         0.0600 
    174 H174        1.3017  -13.6840  -38.6699 H         1 UNK         0.3000 
    175 H175        2.8944  -12.4484  -39.8999 H         1 UNK         0.0600 
    176 H176        4.4625  -15.0551  -40.4170 H         1 UNK         0.0600 
    177 H177        5.1506  -13.5619  -39.7855 H         1 UNK         0.0600 
    178 H178        3.9803  -14.4589  -38.8323 H         1 UNK         0.0600 
    179 H179        3.0168  -13.5431  -42.5556 H         1 UNK         0.3000 
    180 H180        4.2234  -10.5454  -43.9012 H         1 UNK         0.0600 
    181 H181        5.5796  -13.2820  -44.2005 H         1 UNK         0.0600 
    182 H182        6.3980  -11.7739  -43.8086 H         1 UNK         0.0600 
    183 H183        5.6315  -11.9695  -45.3775 H         1 UNK         0.0600 
    184 H184        3.2889  -12.9835  -45.0977 H         1 UNK         0.3000 
    185 H185        0.9568  -13.6808  -44.8047 H         1 UNK         0.0600 
    186 H186       -0.7847  -12.3354  -43.6120 H         1 UNK         0.0600 
    187 H187       -0.9374  -11.2802  -45.0118 H         1 UNK         0.0600 
    188 H188       -1.3891  -12.9805  -45.1291 H         1 UNK         0.0600 
    189 H189        0.0750  -12.1599  -47.0389 H         1 UNK         0.3000 
    190 H190       -1.7650  -20.1941  -45.9924 H         1 UNK         0.3000 
    191 H191       -3.6017  -20.6430  -48.0882 H         1 UNK         0.0600 
    192 H192       -4.0486  -20.5044  -45.0621 H         1 UNK         0.0600 
    193 H193       -5.3261  -20.4370  -46.2681 H         1 UNK         0.0600 
    194 H194       -4.1199  -19.1608  -46.2001 H         1 UNK         0.0600 
    195 H195       -2.6727  -22.7778  -45.3452 H         1 UNK         0.3000 
    196 H196       -4.4090  -24.9333  -45.9731 H         1 UNK         0.0600 
    197 H197       -2.8800  -26.2494  -44.5000 H         1 UNK         0.0600 
    198 H198       -3.2977  -24.7025  -43.7781 H         1 UNK         0.0600 
    199 H199       -1.7144  -24.9317  -44.5137 H         1 UNK         0.0600 
    200 H200       -0.9941  -24.3228  -46.9401 H         1 UNK         0.3000 
    201 H201       -0.6422  -26.6391  -48.5360 H         1 UNK         0.0600 
    202 H202        1.2327  -25.2284  -47.7176 H         1 UNK         0.0600 
    203 H203        0.7064  -23.8943  -48.7416 H         1 UNK         0.0600 
    204 H204        1.2985  -25.3830  -49.4672 H         1 UNK         0.0600 
    205 H205       -1.9464  -23.4281  -49.3393 H         1 UNK         0.3000 
    206 H206       -2.4215  -24.0338  -52.1425 H         1 UNK         0.0600 
    207 H207       -1.8258  -21.7487  -51.3765 H         1 UNK         0.0600 
    208 H208       -3.4037  -21.7432  -52.1434 H         1 UNK         0.0600 
    209 H209       -3.2815  -21.6805  -50.3879 H         1 UNK         0.0600 
    210 H210       -3.8350  -25.5967  -49.8077 H         1 UNK         0.3000 
    211 H211       -5.7007  -26.7424  -49.5205 H         1 UNK         0.0600 
    212 H212       -6.3172  -26.0624  -52.4455 H         1 UNK         0.0600 
    213 H213       -7.0102  -27.3848  -51.5176 H         1 UNK         0.0600 
    214 H214       -5.2945  -27.3881  -51.8934 H         1 UNK         0.0600 
    215 H215       -5.8973  -24.4839  -48.2924 H         1 UNK         0.3000 
    216 H216       -7.2383  -23.1819  -47.1312 H         1 UNK         0.0600 
    217 H217       -9.6747  -23.3818  -47.1081 H         1 UNK         0.0600 
    218 H218       -8.9725  -24.9912  -47.1372 H         1 UNK         0.0600 
    219 H219       -9.6789  -24.3053  -48.6004 H         1 UNK         0.0600 
    220 H220       -5.8060  -22.2112  -49.0781 H         1 UNK         0.3000 
    221 H221       -5.3334  -20.4399  -50.3253 H         1 UNK         0.0600 
    222 H222       -7.7271  -19.1312  -48.9365 H         1 UNK         0.0600 
    223 H223       -6.0944  -19.2441  -48.2823 H         1 UNK         0.0600 
    224 H224       -6.3972  -18.2919  -49.7231 H         1 UNK         0.0600 
    225 H225       -6.4622  -22.2779  -51.8804 H         1 UNK         0.3000 
    226 H226       -8.4071  -21.0455  -53.7141 H         1 UNK         0.0600 
    227 H227       -8.3270  -23.5529  -53.2644 H         1 UNK         0.0600 
    228 H228       -8.1311  -23.1441  -54.9606 H         1 UNK         0.0600 
    229 H229       -6.7295  -23.6011  -54.0050 H         1 UNK         0.0600 
    230 H230       -7.6323  -21.1397  -56.1120 H         1 UNK         0.3000 
    231 H231       -5.4205  -19.3115  -56.4640 H         1 UNK         0.0600 
    232 H232       -7.5386  -19.1106  -57.7415 H         1 UNK         0.0600 
    233 H233       -7.2580  -20.6811  -58.4937 H         1 UNK         0.0600 
    234 H234       -6.1773  -19.3320  -58.8260 H         1 UNK         0.0600 
    235 H235       -4.2009  -21.3463  -55.3320 H         1 UNK         0.3000 
    236 H236       -3.2287  -23.4758  -56.9049 H         1 UNK         0.0600 
    237 H237       -1.5618  -23.7113  -55.0535 H         1 UNK         0.0600 
    238 H238       -1.9959  -22.1167  -54.4468 H         1 UNK         0.0600 
    239 H239       -3.1786  -23.4251  -54.4265 H         1 UNK         0.0600 
    240 H240       -2.1531  -20.1495  -56.7694 H         1 UNK         0.3000 
    241 H241        0.3398  -20.6095  -58.2267 H         1 UNK         0.0600 
    242 H242       -2.5364  -20.2309  -60.9934 H         1 UNK         0.3800 
    243 H243       -2.9094  -20.7222  -59.3629 H         1 UNK         0.3800 
    244 H244        0.4922  -18.1107  -58.2934 H         1 UNK         0.0800 
    245 H245       -1.0720  -17.9939  -57.5325 H         1 UNK         0.0800 
    246 H246       -1.3563  -18.0771  -54.8494 H         1 UNK         0.0800 
    247 H247       -0.5066  -16.6872  -55.4888 H         1 UNK         0.0800 
@<TRIPOS>BOND
     1    1    2 1    
     2    1  127 1    
     3    1  128 1    
     4    1  129 1    
     5    2    3 2    
     6    2    4 am   BACKBONE|DICT|INTERRES
     7    4    5 1    
     8    4  130 1    
     9    5    6 1    
    10    5   65 1    
    11    5  131 1    
    12    6    7 1    
    13    6  132 1    
    14    6  133 1    
    15    7    8 1    
    16    8    9 1    
    17    8  134 1    
    18    8  135 1    
    19    9   10 ar   
    20    9   14 ar   
    21   10   11 ar   
    22   10  136 1    
    23   11   12 ar   
    24   11  126 1    
    25   12   13 ar   
    26   12  137 1    
    27   13   14 ar   
    28   13   15 1    
    29   14  138 1    
    30   15   16 1    
    31   15  139 1    
    32   15  140 1    
    33   16   17 1    
    34   17   18 1    
    35   17  141 1    
    36   17  142 1    
    37   18   19 1    
    38   18   67 1    
    39   18  143 1    
    40   19   20 am   BACKBONE|DICT|INTERRES
    41   19  144 1    
    42   20   21 2    
    43   20   22 1    
    44   22   23 1    
    45   22   24 1    
    46   22  145 1    
    47   23  146 1    
    48   23  147 1    
    49   23  148 1    
    50   24   25 am   BACKBONE|DICT|INTERRES
    51   24  149 1    
    52   25   26 2    
    53   25   27 1    
    54   27   28 1    
    55   27   29 1    
    56   27  150 1    
    57   28  151 1    
    58   28  152 1    
    59   28  153 1    
    60   29   30 am   BACKBONE|DICT|INTERRES
    61   29  154 1    
    62   30   31 2    
    63   30   32 1    
    64   32   33 1    
    65   32   34 1    
    66   32  155 1    
    67   33  156 1    
    68   33  157 1    
    69   33  158 1    
    70   34   35 am   BACKBONE|DICT|INTERRES
    71   34  159 1    
    72   35   36 2    
    73   35   37 1    
    74   37   38 1    
    75   37   39 1    
    76   37  160 1    
    77   38  161 1    
    78   38  162 1    
    79   38  163 1    
    80   39   40 am   BACKBONE|DICT|INTERRES
    81   39  164 1    
    82   40   41 2    
    83   40   42 1    
    84   42   43 1    
    85   42   44 1    
    86   42  165 1    
    87   43  166 1    
    88   43  167 1    
    89   43  168 1    
    90   44   45 am   BACKBONE|DICT|INTERRES
    91   44  169 1    
    92   45   46 2    
    93   45   47 1    
    94   47   48 1    
    95   47   49 1    
    96   47  170 1    
    97   48  171 1    
    98   48  172 1    
    99   48  173 1    
   100   49   50 am   BACKBONE|DICT|INTERRES
   101   49  174 1    
   102   50   51 2    
   103   50   52 1    
   104   52   53 1    
   105   52   54 1    
   106   52  175 1    
   107   53  176 1    
   108   53  177 1    
   109   53  178 1    
   110   54   55 am   BACKBONE|DICT|INTERRES
   111   54  179 1    
   112   55   56 2    
   113   55   57 1    
   114   57   58 1    
   115   57   59 1    
   116   57  180 1    
   117   58  181 1    
   118   58  182 1    
   119   58  183 1    
   120   59   60 am   BACKBONE|DICT|INTERRES
   121   59  184 1    
   122   60   61 2    
   123   60   62 1    
   124   62   63 1    
   125   62   64 1    
   126   62  185 1    
   127   63  186 1    
   128   63  187 1    
   129   63  188 1    
   130   64   65 am   BACKBONE|DICT|INTERRES
   131   64  189 1    
   132   65   66 2    
   133   67   68 2    
   134   67   69 am   BACKBONE|DICT|INTERRES
   135   69   70 1    
   136   69  190 1    
   137   70   71 1    
   138   70   72 1    
   139   70  191 1    
   140   71  192 1    
   141   71  193 1    
   142   71  194 1    
   143   72   73 2    
   144   72   74 am   BACKBONE|DICT|INTERRES
   145   74   75 1    
   146   74  195 1    
   147   75   76 1    
   148   75   77 1    
   149   75  196 1    
   150   76  197 1    
   151   76  198 1    
   152   76  199 1    
   153   77   78 2    
   154   77   79 am   BACKBONE|DICT|INTERRES
   155   79   80 1    
   156   79  200 1    
   157   80   81 1    
   158   80   82 1    
   159   80  201 1    
   160   81  202 1    
   161   81  203 1    
   162   81  204 1    
   163   82   83 2    
   164   82   84 am   BACKBONE|DICT|INTERRES
   165   84   85 1    
   166   84  205 1    
   167   85   86 1    
   168   85   87 1    
   169   85  206 1    
   170   86  207 1    
   171   86  208 1    
   172   86  209 1    
   173   87   88 2    
   174   87   89 am   BACKBONE|DICT|INTERRES
   175   89   90 1    
   176   89  210 1    
   177   90   91 1    
   178   90   92 1    
   179   90  211 1    
   180   91  212 1    
   181   91  213 1    
   182   91  214 1    
   183   92   93 2    
   184   92   94 am   BACKBONE|DICT|INTERRES
   185   94   95 1    
   186   94  215 1    
   187   95   96 1    
   188   95   97 1    
   189   95  216 1    
   190   96  217 1    
   191   96  218 1    
   192   96  219 1    
   193   97   98 2    
   194   97   99 am   BACKBONE|DICT|INTERRES
   195   99  100 1    
   196   99  220 1    
   197  100  101 1    
   198  100  102 1    
   199  100  221 1    
   200  101  222 1    
   201  101  223 1    
   202  101  224 1    
   203  102  103 2    
   204  102  104 am   BACKBONE|DICT|INTERRES
   205  104  105 1    
   206  104  225 1    
   207  105  106 1    
   208  105  107 1    
   209  105  226 1    
   210  106  227 1    
   211  106  228 1    
   212  106  229 1    
   213  107  108 2    
   214  107  109 am   BACKBONE|DICT|INTERRES
   215  109  110 1    
   216  109  230 1    
   217  110  111 1    
   218  110  112 1    
   219  110  231 1    
   220  111  232 1    
   221  111  233 1    
   222  111  234 1    
   223  112  113 2    
   224  112  114 am   BACKBONE|DICT|INTERRES
   225  114  115 1    
   226  114  235 1    
   227  115  116 1    
   228  115  117 1    
   229  115  236 1    
   230  116  237 1    
   231  116  238 1    
   232  116  239 1    
   233  117  118 2    
   234  117  119 am   BACKBONE|DICT|INTERRES
   235  119  120 1    
   236  119  240 1    
   237  120  121 1    
   238  120  124 1    
   239  120  241 1    
   240  121  122 am   BACKBONE|DICT|INTERRES
   241  121  123 2    
   242  122  242 1    
   243  122  243 1    
   244  124  125 1    
   245  124  244 1    
   246  124  245 1    
   247  125  126 1    
   248  126  246 1    
   249  126  247 1    
@<TRIPOS>SUBSTRUCTURE
     1 UNK         1 GROUP             0       ****    0 ROOT    
