@<TRIPOS>MOLECULE
3R540
247   249    1
SMALL
USER_CHARGES


@<TRIPOS>ATOM
      1 CA         -0.6994  -14.7567  -43.9423 C.3       0 UNK        -0.1800 
      2 C           0.1347  -14.2410  -45.1017 C.2       0 UNK         0.5000 
      3 O          -0.3600  -13.4429  -45.8967 O.2       0 UNK        -0.5000 
      4 N           1.4012  -14.6683  -45.1916 N.am      1 UNK        -0.5000 
      5 CA          2.3567  -14.3337  -46.2612 C.3       1 UNK         0.1400 
      6 C6          3.6819  -15.1182  -46.1042 C.3       23 UNK        -0.0398 
      7 S7          3.4529  -16.8787  -46.5144 S.3       23 UNK        -0.2404 
      8 C8          4.1559  -16.9228  -48.1931 C.3       23 UNK        -0.0205 
      9 C9          3.4621  -17.9464  -49.0774 C.ar      23 UNK        -0.0193 
     10 C10         2.6899  -17.5278  -50.1638 C.ar      23 UNK        -0.1150 
     11 C11         2.0919  -18.4608  -51.0160 C.ar      23 UNK        -0.0193 
     12 C12         2.2674  -19.8265  -50.7659 C.ar      23 UNK        -0.1150 
     13 C13         3.0377  -20.2635  -49.6780 C.ar      23 UNK        -0.0193 
     14 C14         3.6298  -19.3125  -48.8416 C.ar      23 UNK        -0.1150 
     15 C15         3.3276  -21.7403  -49.4074 C.3       23 UNK        -0.0205 
     16 S16         2.1242  -22.9294  -50.0912 S.3       23 UNK        -0.2404 
     17 C17         0.7144  -22.7319  -48.9554 C.3       23 UNK        -0.0398 
     18 CA          0.6875  -23.8328  -47.8727 C.3       11 UNK         0.1400 
     19 N           1.7812  -23.7062  -46.9064 N.am      11 UNK        -0.5000 
     20 C           2.1964  -24.7072  -46.1187 C.2       10 UNK         0.5000 
     21 O           1.6965  -25.8305  -46.1322 O.2       10 UNK        -0.5000 
     22 CA          3.3337  -24.4086  -45.1253 C.3       10 UNK         0.1400 
     23 CB          4.6938  -24.7249  -45.7644 C.3       10 UNK        -0.1800 
     24 N           3.3470  -23.0322  -44.6327 N.am      10 UNK        -0.5000 
     25 C           2.3633  -22.4386  -43.9438 C.2       9 UNK         0.5000 
     26 O           1.3033  -22.9963  -43.6513 O.2       9 UNK        -0.5000 
     27 CA          2.5850  -20.9641  -43.5400 C.3       9 UNK         0.1400 
     28 CB          4.0147  -20.4459  -43.8154 C.3       9 UNK        -0.1800 
     29 N           1.6192  -20.0508  -44.1557 N.am      9 UNK        -0.5000 
     30 C           1.2798  -19.9582  -45.4480 C.2       8 UNK         0.5000 
     31 O           1.6574  -20.7546  -46.3101 O.2       8 UNK        -0.5000 
     32 CA          0.3597  -18.7765  -45.8294 C.3       8 UNK         0.1400 
     33 CB          0.0034  -18.7712  -47.3257 C.3       8 UNK        -0.1800 
     34 N          -0.8883  -18.7247  -45.0700 N.am      8 UNK        -0.5000 
     35 C          -1.0529  -18.3975  -43.7800 C.2       7 UNK         0.5000 
     36 O          -0.1198  -18.1405  -43.0182 O.2       7 UNK        -0.5000 
     37 CA         -2.5099  -18.3245  -43.2833 C.3       7 UNK         0.1400 
     38 CB         -2.7013  -17.3950  -42.0709 C.3       7 UNK        -0.1800 
     39 N          -3.3711  -17.8976  -44.3833 N.am      7 UNK        -0.5000 
     40 C          -4.6042  -18.3285  -44.6503 C.2       6 UNK         0.5000 
     41 O          -5.2260  -19.0921  -43.9101 O.2       6 UNK        -0.5000 
     42 CA         -5.2306  -17.8470  -45.9832 C.3       6 UNK         0.1400 
     43 CB         -6.7451  -18.1158  -46.0438 C.3       6 UNK        -0.1800 
     44 N          -4.9989  -16.4330  -46.3139 N.am      6 UNK        -0.5000 
     45 C          -3.8389  -15.8589  -46.6639 C.2       5 UNK         0.5000 
     46 O          -2.7584  -16.4524  -46.6627 O.2       5 UNK        -0.5000 
     47 CA         -3.9037  -14.3620  -47.0131 C.3       5 UNK         0.1400 
     48 CB         -4.1618  -13.5223  -45.7508 C.3       5 UNK        -0.1800 
     49 N          -2.6532  -13.9044  -47.6106 N.am      5 UNK        -0.5000 
     50 C          -2.3754  -13.8675  -48.9197 C.2       4 UNK         0.5000 
     51 O          -3.1698  -14.1945  -49.8006 O.2       4 UNK        -0.5000 
     52 CA         -0.9769  -13.3220  -49.2870 C.3       4 UNK         0.1400 
     53 CB         -0.8098  -13.0131  -50.7886 C.3       4 UNK        -0.1800 
     54 N          -0.6113  -12.1662  -48.4571 N.am      4 UNK        -0.5000 
     55 C          -1.2503  -10.9884  -48.3733 C.2       3 UNK         0.5000 
     56 O          -2.1404  -10.6336  -49.1469 O.2       3 UNK        -0.5000 
     57 CA         -0.8656  -10.0561  -47.2073 C.3       3 UNK         0.1400 
     58 CB         -2.0530   -9.8881  -46.2437 C.3       3 UNK        -0.1800 
     59 N           0.2769  -10.5530  -46.4354 N.am      3 UNK        -0.5000 
     60 C           1.4270   -9.8905  -46.2485 C.2       2 UNK         0.5000 
     61 O           1.6652   -8.7814  -46.7283 O.2       2 UNK        -0.5000 
     62 CA          2.4992  -10.5730  -45.3721 C.3       2 UNK         0.1400 
     63 CB          2.4163  -10.0573  -43.9272 C.3       2 UNK        -0.1800 
     64 N           2.4022  -12.0340  -45.3590 N.am      2 UNK        -0.5000 
     65 C           2.6406  -12.8231  -46.4156 C.2       1 UNK         0.5000 
     66 O           3.0395  -12.3990  -47.5002 O.2       1 UNK        -0.5000 
     67 C          -0.6772  -23.8821  -47.1631 C.2       11 UNK         0.5000 
     68 O          -1.5502  -24.6360  -47.5925 O.2       11 UNK        -0.5000 
     69 N          -0.8274  -23.1293  -46.0641 N.am      12 UNK        -0.5000 
     70 CA         -2.0090  -23.1901  -45.2038 C.3       12 UNK         0.1400 
     71 CB         -2.0543  -21.9686  -44.2781 C.3       12 UNK        -0.1800 
     72 C          -2.0732  -24.5041  -44.4074 C.2       12 UNK         0.5000 
     73 O          -3.1535  -25.0813  -44.2889 O.2       12 UNK        -0.5000 
     74 N          -0.9152  -24.9831  -43.9287 N.am      13 UNK        -0.5000 
     75 CA         -0.7683  -26.2746  -43.2507 C.3       13 UNK         0.1400 
     76 CB          0.6483  -26.3922  -42.6696 C.3       13 UNK        -0.1800 
     77 C          -1.0874  -27.4730  -44.1679 C.2       13 UNK         0.5000 
     78 O          -1.7345  -28.4225  -43.7255 O.2       13 UNK        -0.5000 
     79 N          -0.6629  -27.3892  -45.4366 N.am      14 UNK        -0.5000 
     80 CA         -0.9644  -28.3594  -46.4930 C.3       14 UNK         0.1400 
     81 CB          0.0401  -28.1684  -47.6407 C.3       14 UNK        -0.1800 
     82 C          -2.4068  -28.2619  -47.0328 C.2       14 UNK         0.5000 
     83 O          -2.8357  -29.1645  -47.7527 O.2       14 UNK        -0.5000 
     84 N          -3.1142  -27.1731  -46.6958 N.am      15 UNK        -0.5000 
     85 CA         -4.4574  -26.7998  -47.1481 C.3       15 UNK         0.1400 
     86 CB         -5.5143  -27.8004  -46.6361 C.3       15 UNK        -0.1800 
     87 C          -4.5283  -26.5588  -48.6714 C.2       15 UNK         0.5000 
     88 O          -5.5096  -26.9322  -49.3177 O.2       15 UNK        -0.5000 
     89 N          -3.4830  -25.9256  -49.2196 N.am      16 UNK        -0.5000 
     90 CA         -3.3946  -25.4965  -50.6113 C.3       16 UNK         0.1400 
     91 CB         -1.9138  -25.3385  -50.9957 C.3       16 UNK        -0.1800 
     92 C          -4.1852  -24.1887  -50.7840 C.2       16 UNK         0.5000 
     93 O          -3.6355  -23.1038  -50.5850 O.2       16 UNK        -0.5000 
     94 N          -5.4774  -24.3247  -51.1117 N.am      17 UNK        -0.5000 
     95 CA         -6.4804  -23.2543  -51.1608 C.3       17 UNK         0.1400 
     96 CB         -7.8347  -23.8601  -51.5588 C.3       17 UNK        -0.1800 
     97 C          -6.1383  -22.0615  -52.0746 C.2       17 UNK         0.5000 
     98 O          -6.6148  -20.9562  -51.8205 O.2       17 UNK        -0.5000 
     99 N          -5.2941  -22.2822  -53.0922 N.am      18 UNK        -0.5000 
    100 CA        -4.7626  -21.2419  -53.9764 C.3       18 UNK         0.1400 
    101 CB        -3.9183  -21.8994  -55.0777 C.3       18 UNK        -0.1800 
    102 C         -3.9366  -20.1710  -53.2356 C.2       18 UNK         0.5000 
    103 O         -3.9470  -19.0079  -53.6406 O.2       18 UNK        -0.5000 
    104 N         -3.2774  -20.5560  -52.1329 N.am      19 UNK        -0.5000 
    105 CA        -2.4687  -19.6680  -51.2951 C.3       19 UNK         0.1400 
    106 CB        -1.5006  -20.5067  -50.4541 C.3       19 UNK        -0.1800 
    107 C         -3.2953  -18.7012  -50.4208 C.2       19 UNK         0.5000 
    108 O         -2.7108  -17.8633  -49.7384 O.2       19 UNK        -0.5000 
    109 N         -4.6335  -18.7908  -50.4808 N.am      20 UNK        -0.5000 
    110 CA        -5.5534  -17.7909  -49.9337 C.3       20 UNK         0.1400 
    111 CB        -6.9665  -18.3885  -49.8628 C.3       20 UNK        -0.1800 
    112 C         -5.5636  -16.4713  -50.7349 C.2       20 UNK         0.5000 
    113 O         -6.1065  -15.4816  -50.2419 O.2       20 UNK        -0.5000 
    114 N         -4.9851  -16.4840  -51.9439 N.am      21 UNK        -0.5000 
    115 CA        -4.7665  -15.3096  -52.7862 C.3       21 UNK         0.1400 
    116 CB        -5.8275  -15.2784  -53.8982 C.3       21 UNK        -0.1800 
    117 C         -3.3470  -15.2820  -53.3835 C.2       21 UNK         0.5000 
    118 O         -2.8241  -14.1907  -53.6134 O.2       21 UNK        -0.5000 
    119 N         -2.7569  -16.4617  -53.6346 N.am      22 UNK        -0.5000 
    120 CA        -1.4676  -16.6765  -54.3159 C.3       22 UNK         0.1400 
    121 C         -1.4950  -16.2912  -55.8295 C.2       22 UNK         0.5000 
    122 N         -0.3870  -16.4437  -56.5440 N.am      22 UNK        -0.7600 
    123 O         -2.5156  -15.8953  -56.3895 O.2       22 UNK        -0.5000 
    124 C124       -0.2512  -16.0685  -53.5556 C.3       23 UNK        -0.0398 
    125 S125        0.0138  -16.7966  -51.8995 S.3       23 UNK        -0.2404 
    126 C126        1.3444  -17.9928  -52.2598 C.3       23 UNK        -0.0205 
    127 H127       -0.1110  -15.3706  -43.2605 H         1 UNK         0.0600 
    128 H128       -1.5246  -15.3564  -44.3238 H         1 UNK         0.0600 
    129 H129       -1.1151  -13.9225  -43.3776 H         1 UNK         0.0600 
    130 H130        1.7443  -15.3198  -44.5003 H         1 UNK         0.3000 
    131 H131        1.8909  -14.6377  -47.2015 H         1 UNK         0.0600 
    132 H132        4.0563  -15.0401  -45.0823 H         1 UNK         0.0800 
    133 H133        4.4722  -14.7099  -46.7373 H         1 UNK         0.0800 
    134 H134        4.0846  -15.9359  -48.6527 H         1 UNK         0.0800 
    135 H135        5.2199  -17.1548  -48.1298 H         1 UNK         0.0800 
    136 H136        2.5730  -16.4724  -50.3661 H         1 UNK         0.1150 
    137 H137        1.8301  -20.5452  -51.4432 H         1 UNK         0.1150 
    138 H138        4.2372  -19.6346  -48.0072 H         1 UNK         0.1150 
    139 H139        4.3052  -21.9708  -49.8320 H         1 UNK         0.0800 
    140 H140        3.4156  -21.9086  -48.3336 H         1 UNK         0.0800 
    141 H141       -0.1845  -22.7939  -49.5673 H         1 UNK         0.0800 
    142 H142        0.7163  -21.7328  -48.5185 H         1 UNK         0.0800 
    143 H143        0.8013  -24.7926  -48.3822 H         1 UNK         0.0600 
    144 H144        2.1718  -22.7790  -46.7838 H         1 UNK         0.3000 
    145 H145        3.2011  -25.0650  -44.2637 H         1 UNK         0.0600 
    146 H146        5.5058  -24.6033  -45.0471 H         1 UNK         0.0600 
    147 H147        4.7279  -25.7557  -46.1198 H         1 UNK         0.0600 
    148 H148        4.8978  -24.0767  -46.6177 H         1 UNK         0.0600 
    149 H149        4.1693  -22.4877  -44.8475 H         1 UNK         0.3000 
    150 H150        2.4149  -20.9168  -42.4637 H         1 UNK         0.0600 
    151 H151        4.7656  -21.0638  -43.3212 H         1 UNK         0.0600 
    152 H152        4.2437  -20.4197  -44.8818 H         1 UNK         0.0600 
    153 H153        4.1380  -19.4323  -43.4332 H         1 UNK         0.0600 
    154 H154        1.1868  -19.3772  -43.5283 H         1 UNK         0.3000 
    155 H155        0.9102  -17.8603  -45.6146 H         1 UNK         0.0600 
    156 H156       -0.5932  -19.6432  -47.5938 H         1 UNK         0.0600 
    157 H157        0.8988  -18.7803  -47.9466 H         1 UNK         0.0600 
    158 H158       -0.5631  -17.8802  -47.5976 H         1 UNK         0.0600 
    159 H159       -1.7199  -18.9128  -45.6094 H         1 UNK         0.3000 
    160 H160       -2.7809  -19.3381  -42.9820 H         1 UNK         0.0600 
    161 H161       -2.4455  -16.3628  -42.3070 H         1 UNK         0.0600 
    162 H162       -2.0775  -17.7072  -41.2326 H         1 UNK         0.0600 
    163 H163       -3.7353  -17.4102  -41.7260 H         1 UNK         0.0600 
    164 H164       -2.9406  -17.2872  -45.0772 H         1 UNK         0.3000 
    165 H165       -4.7599  -18.4455  -46.7656 H         1 UNK         0.0600 
    166 H166       -7.1686  -17.7987  -46.9957 H         1 UNK         0.0600 
    167 H167       -6.9619  -19.1793  -45.9353 H         1 UNK         0.0600 
    168 H168       -7.2766  -17.5883  -45.2508 H         1 UNK         0.0600 
    169 H169       -5.8223  -15.8491  -46.2879 H         1 UNK         0.3000 
    170 H170       -4.7259  -14.2078  -47.7154 H         1 UNK         0.0600 
    171 H171       -5.0971  -13.8050  -45.2667 H         1 UNK         0.0600 
    172 H172       -3.3631  -13.6403  -45.0175 H         1 UNK         0.0600 
    173 H173       -4.2355  -12.4626  -45.9952 H         1 UNK         0.0600 
    174 H174       -1.9063  -13.6751  -46.9612 H         1 UNK         0.3000 
    175 H175       -0.2704  -14.1149  -49.0363 H         1 UNK         0.0600 
    176 H176       -1.5183  -12.2606  -51.1345 H         1 UNK         0.0600 
    177 H177        0.1966  -12.6588  -51.0104 H         1 UNK         0.0600 
    178 H178       -0.9785  -13.9094  -51.3846 H         1 UNK         0.0600 
    179 H179        0.0693  -12.3637  -47.7373 H         1 UNK         0.3000 
    180 H180       -0.6420   -9.0828  -47.6482 H         1 UNK         0.0600 
    181 H181       -1.8180   -9.1778  -45.4509 H         1 UNK         0.0600 
    182 H182       -2.3238  -10.8350  -45.7750 H         1 UNK         0.0600 
    183 H183       -2.9354   -9.5128  -46.7634 H         1 UNK         0.0600 
    184 H184        0.1610  -11.4639  -46.0045 H         1 UNK         0.3000 
    185 H185        3.4765  -10.3011  -45.7767 H         1 UNK         0.0600 
    186 H186        3.2154  -10.4727  -43.3130 H         1 UNK         0.0600 
    187 H187        2.5137   -8.9713  -43.8936 H         1 UNK         0.0600 
    188 H188        1.4642  -10.3158  -43.4618 H         1 UNK         0.0600 
    189 H189        2.0742  -12.4614  -44.5052 H         1 UNK         0.3000 
    190 H190       -0.0464  -22.5739  -45.7418 H         1 UNK         0.3000 
    191 H191       -2.8969  -23.1533  -45.8393 H         1 UNK         0.0600 
    192 H192       -2.8793  -22.0431  -43.5683 H         1 UNK         0.0600 
    193 H193       -2.2147  -21.0632  -44.8595 H         1 UNK         0.0600 
    194 H194       -1.1342  -21.8513  -43.7052 H         1 UNK         0.0600 
    195 H195       -0.0799  -24.4133  -44.0190 H         1 UNK         0.3000 
    196 H196       -1.4771  -26.2938  -42.4202 H         1 UNK         0.0600 
    197 H197        1.4040  -26.4191  -43.4539 H         1 UNK         0.0600 
    198 H198        0.8774  -25.5545  -42.0105 H         1 UNK         0.0600 
    199 H199        0.7532  -27.3065  -42.0844 H         1 UNK         0.0600 
    200 H200       -0.0569  -26.6174  -45.6981 H         1 UNK         0.3000 
    201 H201       -0.8334  -29.3649  -46.0879 H         1 UNK         0.0600 
    202 H202       -0.0428  -27.1751  -48.0835 H         1 UNK         0.0600 
    203 H203       -0.1261  -28.8968  -48.4352 H         1 UNK         0.0600 
    204 H204        1.0655  -28.2971  -47.2935 H         1 UNK         0.0600 
    205 H205       -2.6574  -26.4910  -46.1057 H         1 UNK         0.3000 
    206 H206       -4.6709  -25.8360  -46.6840 H         1 UNK         0.0600 
    207 H207       -5.4384  -27.9342  -45.5569 H         1 UNK         0.0600 
    208 H208       -6.5231  -27.4442  -46.8479 H         1 UNK         0.0600 
    209 H209       -5.4097  -28.7793  -47.1045 H         1 UNK         0.0600 
    210 H210       -2.7461  -25.5869  -48.6036 H         1 UNK         0.3000 
    211 H211       -3.8286  -26.2617  -51.2585 H         1 UNK         0.0600 
    212 H212       -1.8120  -25.0059  -52.0293 H         1 UNK         0.0600 
    213 H213       -1.3808  -26.2848  -50.9020 H         1 UNK         0.0600 
    214 H214       -1.4072  -24.6094  -50.3651 H         1 UNK         0.0600 
    215 H215       -5.8366  -25.2647  -51.2097 H         1 UNK         0.3000 
    216 H216       -6.5714  -22.8577  -50.1476 H         1 UNK         0.0600 
    217 H217       -7.7958  -24.3124  -52.5506 H         1 UNK         0.0600 
    218 H218       -8.6157  -23.0986  -51.5752 H         1 UNK         0.0600 
    219 H219       -8.1476  -24.6278  -50.8507 H         1 UNK         0.0600 
    220 H220       -4.9467  -23.2197  -53.2288 H         1 UNK         0.3000 
    221 H221       -5.6091  -20.7369  -54.4462 H         1 UNK         0.0600 
    222 H222       -4.5121  -22.5997  -55.6655 H         1 UNK         0.0600 
    223 H223       -3.0688  -22.4435  -54.6626 H         1 UNK         0.0600 
    224 H224       -3.5244  -21.1511  -55.7668 H         1 UNK         0.0600 
    225 H225       -3.3715  -21.5133  -51.8064 H         1 UNK         0.3000 
    226 H226       -1.8660  -19.0497  -51.9617 H         1 UNK         0.0600 
    227 H227       -2.0244  -21.0921  -49.6977 H         1 UNK         0.0600 
    228 H228       -0.9312  -21.1890  -51.0849 H         1 UNK         0.0600 
    229 H229       -0.7802  -19.8672  -49.9439 H         1 UNK         0.0600 
    230 H230       -5.0507  -19.5231  -51.0421 H         1 UNK         0.3000 
    231 H231       -5.2319  -17.5492  -48.9210 H         1 UNK         0.0600 
    232 H232       -7.3596  -18.6050  -50.8564 H         1 UNK         0.0600 
    233 H233       -7.6606  -17.6954  -49.3863 H         1 UNK         0.0600 
    234 H234       -6.9791  -19.3128  -49.2848 H         1 UNK         0.0600 
    235 H235       -4.5895  -17.3544  -52.2704 H         1 UNK         0.3000 
    236 H236       -4.8675  -14.4025  -52.1861 H         1 UNK         0.0600 
    237 H237       -6.8329  -15.2154  -53.4816 H         1 UNK         0.0600 
    238 H238       -5.6880  -14.4127  -54.5469 H         1 UNK         0.0600 
    239 H239       -5.7776  -16.1705  -54.5239 H         1 UNK         0.0600 
    240 H240       -3.2973  -17.3142  -53.5258 H         1 UNK         0.3000 
    241 H241       -1.3398  -17.7595  -54.3185 H         1 UNK         0.0600 
    242 H242       -0.4090  -16.2099  -57.5248 H         1 UNK         0.3800 
    243 H243        0.4657  -16.8029  -56.1451 H         1 UNK         0.3800 
    244 H244       -0.3696  -14.9912  -53.4429 H         1 UNK         0.0800 
    245 H245        0.6685  -16.1888  -54.1272 H         1 UNK         0.0800 
    246 H246        2.0762  -17.5393  -52.9292 H         1 UNK         0.0800 
    247 H247        0.9144  -18.8397  -52.7966 H         1 UNK         0.0800 
@<TRIPOS>BOND
     1    1    2 1    
     2    1  127 1    
     3    1  128 1    
     4    1  129 1    
     5    2    3 2    
     6    2    4 am   BACKBONE|DICT|INTERRES
     7    4    5 1    
     8    4  130 1    
     9    5    6 1    
    10    5   65 1    
    11    5  131 1    
    12    6    7 1    
    13    6  132 1    
    14    6  133 1    
    15    7    8 1    
    16    8    9 1    
    17    8  134 1    
    18    8  135 1    
    19    9   10 ar   
    20    9   14 ar   
    21   10   11 ar   
    22   10  136 1    
    23   11   12 ar   
    24   11  126 1    
    25   12   13 ar   
    26   12  137 1    
    27   13   14 ar   
    28   13   15 1    
    29   14  138 1    
    30   15   16 1    
    31   15  139 1    
    32   15  140 1    
    33   16   17 1    
    34   17   18 1    
    35   17  141 1    
    36   17  142 1    
    37   18   19 1    
    38   18   67 1    
    39   18  143 1    
    40   19   20 am   BACKBONE|DICT|INTERRES
    41   19  144 1    
    42   20   21 2    
    43   20   22 1    
    44   22   23 1    
    45   22   24 1    
    46   22  145 1    
    47   23  146 1    
    48   23  147 1    
    49   23  148 1    
    50   24   25 am   BACKBONE|DICT|INTERRES
    51   24  149 1    
    52   25   26 2    
    53   25   27 1    
    54   27   28 1    
    55   27   29 1    
    56   27  150 1    
    57   28  151 1    
    58   28  152 1    
    59   28  153 1    
    60   29   30 am   BACKBONE|DICT|INTERRES
    61   29  154 1    
    62   30   31 2    
    63   30   32 1    
    64   32   33 1    
    65   32   34 1    
    66   32  155 1    
    67   33  156 1    
    68   33  157 1    
    69   33  158 1    
    70   34   35 am   BACKBONE|DICT|INTERRES
    71   34  159 1    
    72   35   36 2    
    73   35   37 1    
    74   37   38 1    
    75   37   39 1    
    76   37  160 1    
    77   38  161 1    
    78   38  162 1    
    79   38  163 1    
    80   39   40 am   BACKBONE|DICT|INTERRES
    81   39  164 1    
    82   40   41 2    
    83   40   42 1    
    84   42   43 1    
    85   42   44 1    
    86   42  165 1    
    87   43  166 1    
    88   43  167 1    
    89   43  168 1    
    90   44   45 am   BACKBONE|DICT|INTERRES
    91   44  169 1    
    92   45   46 2    
    93   45   47 1    
    94   47   48 1    
    95   47   49 1    
    96   47  170 1    
    97   48  171 1    
    98   48  172 1    
    99   48  173 1    
   100   49   50 am   BACKBONE|DICT|INTERRES
   101   49  174 1    
   102   50   51 2    
   103   50   52 1    
   104   52   53 1    
   105   52   54 1    
   106   52  175 1    
   107   53  176 1    
   108   53  177 1    
   109   53  178 1    
   110   54   55 am   BACKBONE|DICT|INTERRES
   111   54  179 1    
   112   55   56 2    
   113   55   57 1    
   114   57   58 1    
   115   57   59 1    
   116   57  180 1    
   117   58  181 1    
   118   58  182 1    
   119   58  183 1    
   120   59   60 am   BACKBONE|DICT|INTERRES
   121   59  184 1    
   122   60   61 2    
   123   60   62 1    
   124   62   63 1    
   125   62   64 1    
   126   62  185 1    
   127   63  186 1    
   128   63  187 1    
   129   63  188 1    
   130   64   65 am   BACKBONE|DICT|INTERRES
   131   64  189 1    
   132   65   66 2    
   133   67   68 2    
   134   67   69 am   BACKBONE|DICT|INTERRES
   135   69   70 1    
   136   69  190 1    
   137   70   71 1    
   138   70   72 1    
   139   70  191 1    
   140   71  192 1    
   141   71  193 1    
   142   71  194 1    
   143   72   73 2    
   144   72   74 am   BACKBONE|DICT|INTERRES
   145   74   75 1    
   146   74  195 1    
   147   75   76 1    
   148   75   77 1    
   149   75  196 1    
   150   76  197 1    
   151   76  198 1    
   152   76  199 1    
   153   77   78 2    
   154   77   79 am   BACKBONE|DICT|INTERRES
   155   79   80 1    
   156   79  200 1    
   157   80   81 1    
   158   80   82 1    
   159   80  201 1    
   160   81  202 1    
   161   81  203 1    
   162   81  204 1    
   163   82   83 2    
   164   82   84 am   BACKBONE|DICT|INTERRES
   165   84   85 1    
   166   84  205 1    
   167   85   86 1    
   168   85   87 1    
   169   85  206 1    
   170   86  207 1    
   171   86  208 1    
   172   86  209 1    
   173   87   88 2    
   174   87   89 am   BACKBONE|DICT|INTERRES
   175   89   90 1    
   176   89  210 1    
   177   90   91 1    
   178   90   92 1    
   179   90  211 1    
   180   91  212 1    
   181   91  213 1    
   182   91  214 1    
   183   92   93 2    
   184   92   94 am   BACKBONE|DICT|INTERRES
   185   94   95 1    
   186   94  215 1    
   187   95   96 1    
   188   95   97 1    
   189   95  216 1    
   190   96  217 1    
   191   96  218 1    
   192   96  219 1    
   193   97   98 2    
   194   97   99 am   BACKBONE|DICT|INTERRES
   195   99  100 1    
   196   99  220 1    
   197  100  101 1    
   198  100  102 1    
   199  100  221 1    
   200  101  222 1    
   201  101  223 1    
   202  101  224 1    
   203  102  103 2    
   204  102  104 am   BACKBONE|DICT|INTERRES
   205  104  105 1    
   206  104  225 1    
   207  105  106 1    
   208  105  107 1    
   209  105  226 1    
   210  106  227 1    
   211  106  228 1    
   212  106  229 1    
   213  107  108 2    
   214  107  109 am   BACKBONE|DICT|INTERRES
   215  109  110 1    
   216  109  230 1    
   217  110  111 1    
   218  110  112 1    
   219  110  231 1    
   220  111  232 1    
   221  111  233 1    
   222  111  234 1    
   223  112  113 2    
   224  112  114 am   BACKBONE|DICT|INTERRES
   225  114  115 1    
   226  114  235 1    
   227  115  116 1    
   228  115  117 1    
   229  115  236 1    
   230  116  237 1    
   231  116  238 1    
   232  116  239 1    
   233  117  118 2    
   234  117  119 am   BACKBONE|DICT|INTERRES
   235  119  120 1    
   236  119  240 1    
   237  120  121 1    
   238  120  124 1    
   239  120  241 1    
   240  121  122 am   BACKBONE|DICT|INTERRES
   241  121  123 2    
   242  122  242 1    
   243  122  243 1    
   244  124  125 1    
   245  124  244 1    
   246  124  245 1    
   247  125  126 1    
   248  126  246 1    
   249  126  247 1    
@<TRIPOS>SUBSTRUCTURE
     1 UNK         1 GROUP             0       ****    0 ROOT    
