@<TRIPOS>MOLECULE
3R540
247   249    1
SMALL
USER_CHARGES


@<TRIPOS>ATOM
      1 CA         -2.7145  -12.5354  -49.9003 C.3       0 UNK        -0.1800 
      2 C          -1.2888  -12.6295  -49.3758 C.2       0 UNK         0.5000 
      3 O          -1.0820  -13.0361  -48.2323 O.2       0 UNK        -0.5000 
      4 N          -0.3035  -12.2508  -50.2040 N.am      1 UNK        -0.5000 
      5 CA          1.1313  -12.2771  -49.8917 C.3       1 UNK         0.1400 
      6 C6          1.6393  -13.7370  -49.7117 C.3       23 UNK        -0.0398 
      7 S7          3.4265  -13.9375  -50.0249 S.3       23 UNK        -0.2404 
      8 C8          3.8314  -15.3745  -48.9649 C.3       23 UNK        -0.0205 
      9 C9          3.3405  -16.7468  -49.4399 C.ar      23 UNK        -0.0193 
     10 C10         2.5913  -16.9260  -50.6102 C.ar      23 UNK        -0.1150 
     11 C11         2.1799  -18.1971  -51.0145 C.ar      23 UNK        -0.0193 
     12 C12         2.5535  -19.3104  -50.2584 C.ar      23 UNK        -0.1150 
     13 C13         3.2933  -19.1572  -49.0840 C.ar      23 UNK        -0.0193 
     14 C14         3.6737  -17.8734  -48.6770 C.ar      23 UNK        -0.1150 
     15 C15         3.7135  -20.3839  -48.2836 C.3       23 UNK        -0.0205 
     16 S16         2.4966  -20.8488  -47.0103 S.3       23 UNK        -0.2404 
     17 C17         1.0724  -21.3784  -48.0209 C.3       23 UNK        -0.0398 
     18 CA          0.1117  -22.3448  -47.2825 C.3       11 UNK         0.1400 
     19 N          -0.3504  -21.8424  -45.9817 N.am      11 UNK        -0.5000 
     20 C          -1.0682  -22.5567  -45.1007 C.2       10 UNK         0.5000 
     21 O          -1.3492  -23.7426  -45.2559 O.2       10 UNK        -0.5000 
     22 CA         -1.6257  -21.8206  -43.8712 C.3       10 UNK         0.1400 
     23 CB         -0.6536  -21.9007  -42.6843 C.3       10 UNK        -0.1800 
     24 N          -1.9490  -20.4288  -44.1812 N.am      10 UNK        -0.5000 
     25 C          -3.0128  -20.0567  -44.9096 C.2       9 UNK         0.5000 
     26 O          -3.8568  -20.8492  -45.3286 O.2       9 UNK        -0.5000 
     27 CA         -3.1330  -18.5620  -45.2674 C.3       9 UNK         0.1400 
     28 CB         -3.9087  -17.8057  -44.1791 C.3       9 UNK        -0.1800 
     29 N          -1.8329  -17.9206  -45.4632 N.am      9 UNK        -0.5000 
     30 C          -0.9859  -18.2131  -46.4601 C.2       8 UNK         0.5000 
     31 O          -1.2475  -19.0137  -47.3587 O.2       8 UNK        -0.5000 
     32 CA          0.4121  -17.5647  -46.3858 C.3       8 UNK         0.1400 
     33 CB          0.4550  -16.2349  -47.1442 C.3       8 UNK        -0.1800 
     34 N           0.8800  -17.3339  -45.0156 N.am      8 UNK        -0.5000 
     35 C           1.1141  -18.2951  -44.1116 C.2       7 UNK         0.5000 
     36 O           0.8493  -19.4798  -44.3073 O.2       7 UNK        -0.5000 
     37 CA          1.7266  -17.8437  -42.7695 C.3       7 UNK         0.1400 
     38 CB          2.2788  -19.0114  -41.9266 C.3       7 UNK        -0.1800 
     39 N           2.7333  -16.7948  -42.9534 N.am      7 UNK        -0.5000 
     40 C           3.8863  -16.8741  -43.6351 C.2       6 UNK         0.5000 
     41 O           4.3419  -17.9181  -44.1019 O.2       6 UNK        -0.5000 
     42 CA          4.6493  -15.5557  -43.8663 C.3       6 UNK         0.1400 
     43 CB          4.6377  -15.1946  -45.3586 C.3       6 UNK        -0.1800 
     44 N           4.0690  -14.4383  -43.1159 N.am      6 UNK        -0.5000 
     45 C           4.5797  -13.9268  -41.9880 C.2       5 UNK         0.5000 
     46 O           5.6441  -14.2913  -41.4875 O.2       5 UNK        -0.5000 
     47 CA          3.7464  -12.8381  -41.2834 C.3       5 UNK         0.1400 
     48 CB          4.1601  -11.4412  -41.7683 C.3       5 UNK        -0.1800 
     49 N           2.3023  -13.0146  -41.4672 N.am      5 UNK        -0.5000 
     50 C           1.5940  -14.0159  -40.9228 C.2       4 UNK         0.5000 
     51 O           2.0880  -14.8778  -40.1965 O.2       4 UNK        -0.5000 
     52 CA          0.0919  -14.1030  -41.2568 C.3       4 UNK         0.1400 
     53 CB         -0.7479  -13.5473  -40.0969 C.3       4 UNK        -0.1800 
     54 N          -0.3021  -13.4239  -42.4917 N.am      4 UNK        -0.5000 
     55 C           0.1117  -13.7333  -43.7270 C.2       3 UNK         0.5000 
     56 O           0.9350  -14.6204  -43.9684 O.2       3 UNK        -0.5000 
     57 CA         -0.4828  -12.9165  -44.8924 C.3       3 UNK         0.1400 
     58 CB         -1.4738  -11.8112  -44.4631 C.3       3 UNK        -0.1800 
     59 N           0.5590  -12.3551  -45.7521 N.am      3 UNK        -0.5000 
     60 C           1.5635  -11.5398  -45.3913 C.2       2 UNK         0.5000 
     61 O           1.7390  -11.1532  -44.2347 O.2       2 UNK        -0.5000 
     62 CA          2.5489  -11.0882  -46.4935 C.3       2 UNK         0.1400 
     63 CB          4.0045  -11.3510  -46.0774 C.3       2 UNK        -0.1800 
     64 N           2.2998  -11.7552  -47.7741 N.am      2 UNK        -0.5000 
     65 C           1.4494  -11.3210  -48.7125 C.2       1 UNK         0.5000 
     66 O           0.8942  -10.2206  -48.6608 O.2       1 UNK        -0.5000 
     67 C          -1.0808  -22.7149  -48.1909 C.2       11 UNK         0.5000 
     68 O          -1.0828  -23.7965  -48.7795 O.2       11 UNK        -0.5000 
     69 N          -2.0962  -21.8377  -48.2406 N.am      12 UNK        -0.5000 
     70 CA         -3.3591  -22.0731  -48.9453 C.3       12 UNK         0.1400 
     71 CB         -4.2129  -20.7956  -48.9300 C.3       12 UNK        -0.1800 
     72 C          -4.1537  -23.2597  -48.3664 C.2       12 UNK         0.5000 
     73 O          -4.6788  -24.0707  -49.1320 O.2       12 UNK        -0.5000 
     74 N          -4.2069  -23.3543  -47.0295 N.am      13 UNK        -0.5000 
     75 CA         -4.8612  -24.4421  -46.3006 C.3       13 UNK         0.1400 
     76 CB         -4.9491  -24.0924  -44.8083 C.3       13 UNK        -0.1800 
     77 C          -4.1658  -25.8003  -46.5042 C.2       13 UNK         0.5000 
     78 O          -4.8485  -26.7954  -46.7456 O.2       13 UNK        -0.5000 
     79 N          -2.8260  -25.8173  -46.4525 N.am      14 UNK        -0.5000 
     80 CA         -1.9882  -26.9945  -46.7052 C.3       14 UNK         0.1400 
     81 CB         -0.5251  -26.6650  -46.3735 C.3       14 UNK        -0.1800 
     82 C          -2.1086  -27.5191  -48.1478 C.2       14 UNK         0.5000 
     83 O          -2.0465  -28.7295  -48.3647 O.2       14 UNK        -0.5000 
     84 N          -2.3289  -26.6017  -49.0979 N.am      15 UNK        -0.5000 
     85 CA         -2.6382  -26.8930  -50.4968 C.3       15 UNK         0.1400 
     86 CB         -2.2952  -25.6553  -51.3399 C.3       15 UNK        -0.1800 
     87 C          -4.1054  -27.3146  -50.7275 C.2       15 UNK         0.5000 
     88 O          -4.4744  -27.5632  -51.8741 O.2       15 UNK        -0.5000 
     89 N          -4.9310  -27.3540  -49.6694 N.am      16 UNK        -0.5000 
     90 CA         -6.3608  -27.6858  -49.6740 C.3       16 UNK         0.1400 
     91 CB         -6.5719  -29.1758  -50.0139 C.3       16 UNK        -0.1800 
     92 C          -7.1889  -26.7365  -50.5656 C.2       16 UNK         0.5000 
     93 O          -8.1085  -27.1777  -51.2565 O.2       16 UNK        -0.5000 
     94 N          -6.8159  -25.4481  -50.5474 N.am      17 UNK        -0.5000 
     95 CA         -7.3663  -24.3437  -51.3376 C.3       17 UNK         0.1400 
     96 CB         -8.8663  -24.1279  -51.0486 C.3       17 UNK        -0.1800 
     97 C          -7.0557  -24.4203  -52.8481 C.2       17 UNK         0.5000 
     98 O          -7.6097  -23.6290  -53.6114 O.2       17 UNK        -0.5000 
     99 N          -6.1348  -25.3034  -53.2691 N.am      18 UNK        -0.5000 
    100 CA        -5.5982  -25.3184  -54.6364 C.3       18 UNK         0.1400 
    101 CB        -4.8668  -26.6427  -54.8988 C.3       18 UNK        -0.1800 
    102 C         -4.6608  -24.1231  -54.9044 C.2       18 UNK         0.5000 
    103 O         -4.5096  -23.7138  -56.0555 O.2       18 UNK        -0.5000 
    104 N         -4.0798  -23.5719  -53.8304 N.am      19 UNK        -0.5000 
    105 CA        -3.2575  -22.3656  -53.8209 C.3       19 UNK         0.1400 
    106 CB        -1.8680  -22.7023  -53.2507 C.3       19 UNK        -0.1800 
    107 C         -3.9735  -21.2597  -53.0235 C.2       19 UNK         0.5000 
    108 O         -3.3478  -20.5743  -52.2156 O.2       19 UNK        -0.5000 
    109 N         -5.2837  -21.0887  -53.2645 N.am      20 UNK        -0.5000 
    110 CA        -6.1311  -20.0658  -52.6338 C.3       20 UNK         0.1400 
    111 CB        -7.5840  -20.2408  -53.0992 C.3       20 UNK        -0.1800 
    112 C         -5.6612  -18.6169  -52.8770 C.2       20 UNK         0.5000 
    113 O         -5.9414  -17.7427  -52.0560 O.2       20 UNK        -0.5000 
    114 N         -4.9069  -18.4011  -53.9647 N.am      21 UNK        -0.5000 
    115 CA        -4.2190  -17.1526  -54.3010 C.3       21 UNK         0.1400 
    116 CB        -3.5291  -17.3203  -55.6635 C.3       21 UNK        -0.1800 
    117 C         -3.2019  -16.6854  -53.2374 C.2       21 UNK         0.5000 
    118 O         -2.9099  -15.4904  -53.1771 O.2       21 UNK        -0.5000 
    119 N         -2.7024  -17.6129  -52.4076 N.am      22 UNK        -0.5000 
    120 CA        -1.8825  -17.3075  -51.2257 C.3       22 UNK         0.1400 
    121 C         -2.6934  -16.6977  -50.0417 C.2       22 UNK         0.5000 
    122 N         -4.0225  -16.7123  -50.0468 N.am      22 UNK        -0.7600 
    123 O         -2.1049  -16.1788  -49.1022 O.2       22 UNK        -0.5000 
    124 C124       -1.0486  -18.5248  -50.7444 C.3       23 UNK        -0.0398 
    125 S125       -0.1290  -19.3901  -52.0666 S.3       23 UNK        -0.2404 
    126 C126        1.3526  -18.3524  -52.2840 C.3       23 UNK        -0.0205 
    127 H127       -2.7461  -12.1756  -50.9289 H         1 UNK         0.0600 
    128 H128       -3.2976  -11.8539  -49.2811 H         1 UNK         0.0600 
    129 H129       -3.1885  -13.5165  -49.8695 H         1 UNK         0.0600 
    130 H130       -0.5410  -11.8855  -51.1155 H         1 UNK         0.3000 
    131 H131        1.6267  -11.8517  -50.7658 H         1 UNK         0.0600 
    132 H132        1.3783  -14.1238  -48.7277 H         1 UNK         0.0800 
    133 H133        1.1185  -14.3835  -50.4182 H         1 UNK         0.0800 
    134 H134        4.9173  -15.4176  -48.8692 H         1 UNK         0.0800 
    135 H135        3.4461  -15.1881  -47.9650 H         1 UNK         0.0800 
    136 H136        2.3291  -16.0843  -51.2307 H         1 UNK         0.1150 
    137 H137        2.2617  -20.2981  -50.5856 H         1 UNK         0.1150 
    138 H138        4.2507  -17.7544  -47.7704 H         1 UNK         0.1150 
    139 H139        3.8843  -21.2303  -48.9505 H         1 UNK         0.0800 
    140 H140        4.6692  -20.1905  -47.7943 H         1 UNK         0.0800 
    141 H141        0.5511  -20.4854  -48.3653 H         1 UNK         0.0800 
    142 H142        1.4535  -21.8680  -48.9185 H         1 UNK         0.0800 
    143 H143        0.6633  -23.2666  -47.0855 H         1 UNK         0.0600 
    144 H144       -0.1070  -20.8872  -45.7499 H         1 UNK         0.3000 
    145 H145       -2.5479  -22.3197  -43.5689 H         1 UNK         0.0600 
    146 H146       -1.0062  -21.3094  -41.8393 H         1 UNK         0.0600 
    147 H147       -0.5547  -22.9313  -42.3415 H         1 UNK         0.0600 
    148 H148        0.3459  -21.5560  -42.9459 H         1 UNK         0.0600 
    149 H149       -1.2400  -19.7446  -43.9528 H         1 UNK         0.3000 
    150 H150       -3.6914  -18.4879  -46.2032 H         1 UNK         0.0600 
    151 H151       -4.8941  -18.2477  -44.0250 H         1 UNK         0.0600 
    152 H152       -4.0615  -16.7625  -44.4564 H         1 UNK         0.0600 
    153 H153       -3.3860  -17.8268  -43.2220 H         1 UNK         0.0600 
    154 H154       -1.5361  -17.2589  -44.7621 H         1 UNK         0.3000 
    155 H155        1.1203  -18.2443  -46.8616 H         1 UNK         0.0600 
    156 H156        1.3947  -15.7139  -46.9694 H         1 UNK         0.0600 
    157 H157       -0.3559  -15.5698  -46.8462 H         1 UNK         0.0600 
    158 H158        0.3694  -16.4026  -48.2179 H         1 UNK         0.0600 
    159 H159        1.0726  -16.3711  -44.7539 H         1 UNK         0.3000 
    160 H160        0.9135  -17.3877  -42.2036 H         1 UNK         0.0600 
    161 H161        3.0362  -19.5805  -42.4662 H         1 UNK         0.0600 
    162 H162        1.4827  -19.7053  -41.6555 H         1 UNK         0.0600 
    163 H163        2.7245  -18.6517  -40.9993 H         1 UNK         0.0600 
    164 H164        2.4588  -15.8781  -42.6321 H         1 UNK         0.3000 
    165 H165        5.6850  -15.7278  -43.5664 H         1 UNK         0.0600 
    166 H166        3.6378  -14.9089  -45.6864 H         1 UNK         0.0600 
    167 H167        5.3167  -14.3678  -45.5639 H         1 UNK         0.0600 
    168 H168        4.9640  -16.0334  -45.9749 H         1 UNK         0.0600 
    169 H169        3.1824  -14.0827  -43.4495 H         1 UNK         0.3000 
    170 H170        3.9597  -12.8996  -40.2140 H         1 UNK         0.0600 
    171 H171        5.2175  -11.2588  -41.5729 H         1 UNK         0.0600 
    172 H172        4.0022  -11.3246  -42.8399 H         1 UNK         0.0600 
    173 H173        3.5954  -10.6609  -41.2580 H         1 UNK         0.0600 
    174 H174        1.8345  -12.3544  -42.0752 H         1 UNK         0.3000 
    175 H175       -0.1500  -15.1612  -41.3740 H         1 UNK         0.0600 
    176 H176       -0.5725  -12.4809  -39.9490 H         1 UNK         0.0600 
    177 H177       -1.8136  -13.6917  -40.2756 H         1 UNK         0.0600 
    178 H178       -0.5065  -14.0526  -39.1607 H         1 UNK         0.0600 
    179 H179       -0.9587  -12.6637  -42.3902 H         1 UNK         0.3000 
    180 H180       -1.0350  -13.6299  -45.5049 H         1 UNK         0.0600 
    181 H181       -1.0027  -11.0563  -43.8325 H         1 UNK         0.0600 
    182 H182       -2.3217  -12.2269  -43.9173 H         1 UNK         0.0600 
    183 H183       -1.8809  -11.3005  -45.3361 H         1 UNK         0.0600 
    184 H184        0.4696  -12.6041  -46.7289 H         1 UNK         0.3000 
    185 H185        2.4262  -10.0099  -46.6133 H         1 UNK         0.0600 
    186 H186        4.7004  -11.0696  -46.8679 H         1 UNK         0.0600 
    187 H187        4.2702  -10.7704  -45.1937 H         1 UNK         0.0600 
    188 H188        4.1680  -12.4005  -45.8417 H         1 UNK         0.0600 
    189 H189        2.7547  -12.6465  -47.9105 H         1 UNK         0.3000 
    190 H190       -1.9972  -20.9527  -47.7549 H         1 UNK         0.3000 
    191 H191       -3.1214  -22.3103  -49.9840 H         1 UNK         0.0600 
    192 H192       -3.7116  -19.9733  -49.4382 H         1 UNK         0.0600 
    193 H193       -5.1621  -20.9579  -49.4411 H         1 UNK         0.0600 
    194 H194       -4.4400  -20.4701  -47.9152 H         1 UNK         0.0600 
    195 H195       -3.7976  -22.6132  -46.4720 H         1 UNK         0.3000 
    196 H196       -5.8796  -24.5302  -46.6850 H         1 UNK         0.0600 
    197 H197       -5.5091  -24.8535  -44.2636 H         1 UNK         0.0600 
    198 H198       -5.4576  -23.1406  -44.6534 H         1 UNK         0.0600 
    199 H199       -3.9624  -24.0253  -44.3514 H         1 UNK         0.0600 
    200 H200       -2.3336  -24.9655  -46.1902 H         1 UNK         0.3000 
    201 H201       -2.3200  -27.7903  -46.0354 H         1 UNK         0.0600 
    202 H202       -0.4128  -26.3823  -45.3267 H         1 UNK         0.0600 
    203 H203       -0.1508  -25.8425  -46.9843 H         1 UNK         0.0600 
    204 H204        0.1206  -27.5264  -46.5484 H         1 UNK         0.0600 
    205 H205       -2.3079  -25.6226  -48.8365 H         1 UNK         0.3000 
    206 H206       -2.0072  -27.7184  -50.8321 H         1 UNK         0.0600 
    207 H207       -1.2527  -25.3647  -51.2083 H         1 UNK         0.0600 
    208 H208       -2.4448  -25.8448  -52.4033 H         1 UNK         0.0600 
    209 H209       -2.9160  -24.8030  -51.0647 H         1 UNK         0.0600 
    210 H210       -4.5567  -27.1098  -48.7597 H         1 UNK         0.3000 
    211 H211       -6.7159  -27.5280  -48.6549 H         1 UNK         0.0600 
    212 H212       -6.2921  -29.4013  -51.0434 H         1 UNK         0.0600 
    213 H213       -7.6171  -29.4610  -49.8893 H         1 UNK         0.0600 
    214 H214       -5.9818  -29.8159  -49.3580 H         1 UNK         0.0600 
    215 H215       -6.0287  -25.1877  -49.9573 H         1 UNK         0.3000 
    216 H216       -6.8440  -23.4534  -50.9841 H         1 UNK         0.0600 
    217 H217       -9.0567  -24.0659  -49.9772 H         1 UNK         0.0600 
    218 H218       -9.4800  -24.9322  -51.4544 H         1 UNK         0.0600 
    219 H219       -9.2197  -23.1968  -51.4929 H         1 UNK         0.0600 
    220 H220       -5.7358  -25.9668  -52.6148 H         1 UNK         0.3000 
    221 H221       -6.4345  -25.2520  -55.3355 H         1 UNK         0.0600 
    222 H222       -3.9545  -26.7246  -54.3077 H         1 UNK         0.0600 
    223 H223       -5.4992  -27.4993  -54.6647 H         1 UNK         0.0600 
    224 H224       -4.5808  -26.7253  -55.9480 H         1 UNK         0.0600 
    225 H225       -4.2920  -23.9701  -52.9279 H         1 UNK         0.3000 
    226 H226       -3.1212  -21.9876  -54.8359 H         1 UNK         0.0600 
    227 H227       -1.4271  -23.5603  -53.7583 H         1 UNK         0.0600 
    228 H228       -1.1843  -21.8639  -53.3826 H         1 UNK         0.0600 
    229 H229       -1.9069  -22.9236  -52.1842 H         1 UNK         0.0600 
    230 H230       -5.7372  -21.6987  -53.9303 H         1 UNK         0.3000 
    231 H231       -6.0996  -20.2314  -51.5556 H         1 UNK         0.0600 
    232 H232       -8.2236  -19.4528  -52.6990 H         1 UNK         0.0600 
    233 H233       -7.9965  -21.1877  -52.7542 H         1 UNK         0.0600 
    234 H234       -7.6662  -20.2107  -54.1862 H         1 UNK         0.0600 
    235 H235       -4.7356  -19.1837  -54.5778 H         1 UNK         0.3000 
    236 H236       -4.9771  -16.3722  -54.3912 H         1 UNK         0.0600 
    237 H237       -4.2488  -17.5681  -56.4439 H         1 UNK         0.0600 
    238 H238       -3.0298  -16.3985  -55.9651 H         1 UNK         0.0600 
    239 H239       -2.7751  -18.1082  -55.6370 H         1 UNK         0.0600 
    240 H240       -2.9768  -18.5843  -52.5099 H         1 UNK         0.3000 
    241 H241       -1.1677  -16.5369  -51.5204 H         1 UNK         0.0600 
    242 H242       -4.5135  -16.3016  -49.2702 H         1 UNK         0.3800 
    243 H243       -4.5507  -17.1073  -50.8174 H         1 UNK         0.3800 
    244 H244       -1.7021  -19.2655  -50.2835 H         1 UNK         0.0800 
    245 H245       -0.3524  -18.2239  -49.9602 H         1 UNK         0.0800 
    246 H246        1.9805  -18.7969  -53.0570 H         1 UNK         0.0800 
    247 H247        1.0373  -17.3800  -52.6653 H         1 UNK         0.0800 
@<TRIPOS>BOND
     1    1    2 1    
     2    1  127 1    
     3    1  128 1    
     4    1  129 1    
     5    2    3 2    
     6    2    4 am   BACKBONE|DICT|INTERRES
     7    4    5 1    
     8    4  130 1    
     9    5    6 1    
    10    5   65 1    
    11    5  131 1    
    12    6    7 1    
    13    6  132 1    
    14    6  133 1    
    15    7    8 1    
    16    8    9 1    
    17    8  134 1    
    18    8  135 1    
    19    9   10 ar   
    20    9   14 ar   
    21   10   11 ar   
    22   10  136 1    
    23   11   12 ar   
    24   11  126 1    
    25   12   13 ar   
    26   12  137 1    
    27   13   14 ar   
    28   13   15 1    
    29   14  138 1    
    30   15   16 1    
    31   15  139 1    
    32   15  140 1    
    33   16   17 1    
    34   17   18 1    
    35   17  141 1    
    36   17  142 1    
    37   18   19 1    
    38   18   67 1    
    39   18  143 1    
    40   19   20 am   BACKBONE|DICT|INTERRES
    41   19  144 1    
    42   20   21 2    
    43   20   22 1    
    44   22   23 1    
    45   22   24 1    
    46   22  145 1    
    47   23  146 1    
    48   23  147 1    
    49   23  148 1    
    50   24   25 am   BACKBONE|DICT|INTERRES
    51   24  149 1    
    52   25   26 2    
    53   25   27 1    
    54   27   28 1    
    55   27   29 1    
    56   27  150 1    
    57   28  151 1    
    58   28  152 1    
    59   28  153 1    
    60   29   30 am   BACKBONE|DICT|INTERRES
    61   29  154 1    
    62   30   31 2    
    63   30   32 1    
    64   32   33 1    
    65   32   34 1    
    66   32  155 1    
    67   33  156 1    
    68   33  157 1    
    69   33  158 1    
    70   34   35 am   BACKBONE|DICT|INTERRES
    71   34  159 1    
    72   35   36 2    
    73   35   37 1    
    74   37   38 1    
    75   37   39 1    
    76   37  160 1    
    77   38  161 1    
    78   38  162 1    
    79   38  163 1    
    80   39   40 am   BACKBONE|DICT|INTERRES
    81   39  164 1    
    82   40   41 2    
    83   40   42 1    
    84   42   43 1    
    85   42   44 1    
    86   42  165 1    
    87   43  166 1    
    88   43  167 1    
    89   43  168 1    
    90   44   45 am   BACKBONE|DICT|INTERRES
    91   44  169 1    
    92   45   46 2    
    93   45   47 1    
    94   47   48 1    
    95   47   49 1    
    96   47  170 1    
    97   48  171 1    
    98   48  172 1    
    99   48  173 1    
   100   49   50 am   BACKBONE|DICT|INTERRES
   101   49  174 1    
   102   50   51 2    
   103   50   52 1    
   104   52   53 1    
   105   52   54 1    
   106   52  175 1    
   107   53  176 1    
   108   53  177 1    
   109   53  178 1    
   110   54   55 am   BACKBONE|DICT|INTERRES
   111   54  179 1    
   112   55   56 2    
   113   55   57 1    
   114   57   58 1    
   115   57   59 1    
   116   57  180 1    
   117   58  181 1    
   118   58  182 1    
   119   58  183 1    
   120   59   60 am   BACKBONE|DICT|INTERRES
   121   59  184 1    
   122   60   61 2    
   123   60   62 1    
   124   62   63 1    
   125   62   64 1    
   126   62  185 1    
   127   63  186 1    
   128   63  187 1    
   129   63  188 1    
   130   64   65 am   BACKBONE|DICT|INTERRES
   131   64  189 1    
   132   65   66 2    
   133   67   68 2    
   134   67   69 am   BACKBONE|DICT|INTERRES
   135   69   70 1    
   136   69  190 1    
   137   70   71 1    
   138   70   72 1    
   139   70  191 1    
   140   71  192 1    
   141   71  193 1    
   142   71  194 1    
   143   72   73 2    
   144   72   74 am   BACKBONE|DICT|INTERRES
   145   74   75 1    
   146   74  195 1    
   147   75   76 1    
   148   75   77 1    
   149   75  196 1    
   150   76  197 1    
   151   76  198 1    
   152   76  199 1    
   153   77   78 2    
   154   77   79 am   BACKBONE|DICT|INTERRES
   155   79   80 1    
   156   79  200 1    
   157   80   81 1    
   158   80   82 1    
   159   80  201 1    
   160   81  202 1    
   161   81  203 1    
   162   81  204 1    
   163   82   83 2    
   164   82   84 am   BACKBONE|DICT|INTERRES
   165   84   85 1    
   166   84  205 1    
   167   85   86 1    
   168   85   87 1    
   169   85  206 1    
   170   86  207 1    
   171   86  208 1    
   172   86  209 1    
   173   87   88 2    
   174   87   89 am   BACKBONE|DICT|INTERRES
   175   89   90 1    
   176   89  210 1    
   177   90   91 1    
   178   90   92 1    
   179   90  211 1    
   180   91  212 1    
   181   91  213 1    
   182   91  214 1    
   183   92   93 2    
   184   92   94 am   BACKBONE|DICT|INTERRES
   185   94   95 1    
   186   94  215 1    
   187   95   96 1    
   188   95   97 1    
   189   95  216 1    
   190   96  217 1    
   191   96  218 1    
   192   96  219 1    
   193   97   98 2    
   194   97   99 am   BACKBONE|DICT|INTERRES
   195   99  100 1    
   196   99  220 1    
   197  100  101 1    
   198  100  102 1    
   199  100  221 1    
   200  101  222 1    
   201  101  223 1    
   202  101  224 1    
   203  102  103 2    
   204  102  104 am   BACKBONE|DICT|INTERRES
   205  104  105 1    
   206  104  225 1    
   207  105  106 1    
   208  105  107 1    
   209  105  226 1    
   210  106  227 1    
   211  106  228 1    
   212  106  229 1    
   213  107  108 2    
   214  107  109 am   BACKBONE|DICT|INTERRES
   215  109  110 1    
   216  109  230 1    
   217  110  111 1    
   218  110  112 1    
   219  110  231 1    
   220  111  232 1    
   221  111  233 1    
   222  111  234 1    
   223  112  113 2    
   224  112  114 am   BACKBONE|DICT|INTERRES
   225  114  115 1    
   226  114  235 1    
   227  115  116 1    
   228  115  117 1    
   229  115  236 1    
   230  116  237 1    
   231  116  238 1    
   232  116  239 1    
   233  117  118 2    
   234  117  119 am   BACKBONE|DICT|INTERRES
   235  119  120 1    
   236  119  240 1    
   237  120  121 1    
   238  120  124 1    
   239  120  241 1    
   240  121  122 am   BACKBONE|DICT|INTERRES
   241  121  123 2    
   242  122  242 1    
   243  122  243 1    
   244  124  125 1    
   245  124  244 1    
   246  124  245 1    
   247  125  126 1    
   248  126  246 1    
   249  126  247 1    
@<TRIPOS>SUBSTRUCTURE
     1 UNK         1 GROUP             0       ****    0 ROOT    
