@<TRIPOS>MOLECULE
3R540
247   249    1
SMALL
USER_CHARGES


@<TRIPOS>ATOM
      1 CA         -1.9944  -12.5368  -43.7359 C.3       0 UNK        -0.1800 
      2 C          -2.2451  -12.3967  -45.2307 C.2       0 UNK         0.5000 
      3 O          -1.9420  -11.3522  -45.8057 O.2       0 UNK        -0.5000 
      4 N          -2.7998  -13.4414  -45.8587 N.am      1 UNK        -0.5000 
      5 CA         -3.0453  -13.5208  -47.3055 C.3       1 UNK         0.1400 
      6 C6         -4.1274  -14.5762  -47.6472 C.3       23 UNK        -0.0398 
      7 S7         -3.7949  -16.2489  -46.9807 S.3       23 UNK        -0.2404 
      8 C8         -3.9734  -17.2941  -48.4604 C.3       23 UNK        -0.0205 
      9 C9         -2.7400  -17.2466  -49.3485 C.ar      23 UNK        -0.0193 
     10 C10        -2.7010  -16.4125  -50.4682 C.ar      23 UNK        -0.1150 
     11 C11        -1.5771  -16.3917  -51.2980 C.ar      23 UNK        -0.0193 
     12 C12        -0.4869  -17.2141  -50.9988 C.ar      23 UNK        -0.1150 
     13 C13        -0.5112  -18.0607  -49.8854 C.ar      23 UNK        -0.0193 
     14 C14        -1.6434  -18.0631  -49.0616 C.ar      23 UNK        -0.1150 
     15 C15         0.7052  -18.9374  -49.5891 C.3       23 UNK        -0.0205 
     16 S16         0.2972  -20.6322  -49.0501 S.3       23 UNK        -0.2404 
     17 C17         0.4201  -20.4643  -47.2359 C.3       23 UNK        -0.0398 
     18 CA          0.1922  -21.7862  -46.4616 C.3       11 UNK         0.1400 
     19 N           0.7617  -21.6989  -45.1134 N.am      11 UNK        -0.5000 
     20 C           0.9457  -22.7176  -44.2633 C.2       10 UNK         0.5000 
     21 O           0.6212  -23.8805  -44.5054 O.2       10 UNK        -0.5000 
     22 CA          1.5731  -22.3618  -42.9027 C.3       10 UNK         0.1400 
     23 CB          3.0912  -22.1617  -43.0301 C.3       10 UNK        -0.1800 
     24 N           0.9696  -21.1586  -42.3287 N.am      10 UNK        -0.5000 
     25 C          -0.2356  -21.1305  -41.7434 C.2       9 UNK         0.5000 
     26 O          -0.9252  -22.1328  -41.5555 O.2       9 UNK        -0.5000 
     27 CA         -0.7768  -19.7521  -41.3163 C.3       9 UNK         0.1400 
     28 CB         -0.2878  -19.3921  -39.9054 C.3       9 UNK        -0.1800 
     29 N          -0.4225  -18.6750  -42.2423 N.am      9 UNK        -0.5000 
     30 C          -0.8126  -18.6095  -43.5230 C.2       8 UNK         0.5000 
     31 O          -1.5404  -19.4415  -44.0604 O.2       8 UNK        -0.5000 
     32 CA         -0.2508  -17.4500  -44.3623 C.3       8 UNK         0.1400 
     33 CB         -1.0678  -16.1698  -44.1402 C.3       8 UNK        -0.1800 
     34 N           1.1626  -17.1836  -44.0925 N.am      8 UNK        -0.5000 
     35 C           2.1599  -18.0597  -44.2802 C.2       7 UNK         0.5000 
     36 O           1.9964  -19.2006  -44.7064 O.2       7 UNK        -0.5000 
     37 CA          3.5687  -17.6062  -43.8686 C.3       7 UNK         0.1400 
     38 CB          4.1935  -16.6910  -44.9336 C.3       7 UNK        -0.1800 
     39 N           3.5502  -16.9312  -42.5725 N.am      7 UNK        -0.5000 
     40 C           3.3157  -17.5501  -41.4059 C.2       6 UNK         0.5000 
     41 O           3.1647  -18.7671  -41.2931 O.2       6 UNK        -0.5000 
     42 CA          3.1902  -16.6476  -40.1645 C.3       6 UNK         0.1400 
     43 CB          4.5737  -16.3563  -39.5643 C.3       6 UNK        -0.1800 
     44 N           2.5133  -15.3824  -40.4583 N.am      6 UNK        -0.5000 
     45 C           1.2204  -15.2780  -40.7980 C.2       5 UNK         0.5000 
     46 O           0.4518  -16.2367  -40.8607 O.2       5 UNK        -0.5000 
     47 CA          0.7183  -13.8740  -41.1847 C.3       5 UNK         0.1400 
     48 CB          0.2792  -13.0903  -39.9396 C.3       5 UNK        -0.1800 
     49 N           1.7122  -13.0939  -41.9296 N.am      5 UNK        -0.5000 
     50 C           2.1757  -13.4262  -43.1407 C.2       4 UNK         0.5000 
     51 O           1.7987  -14.4210  -43.7663 O.2       4 UNK        -0.5000 
     52 CA          3.2768  -12.5344  -43.7277 C.3       4 UNK         0.1400 
     53 CB          4.6304  -12.8274  -43.0543 C.3       4 UNK        -0.1800 
     54 N           3.3686  -12.8028  -45.1572 N.am      4 UNK        -0.5000 
     55 C           3.8902  -11.9932  -46.0848 C.2       3 UNK         0.5000 
     56 O           4.3983  -10.9008  -45.8278 O.2       3 UNK        -0.5000 
     57 CA          3.8448  -12.4808  -47.5494 C.3       3 UNK         0.1400 
     58 CB          5.2167  -13.0321  -47.9687 C.3       3 UNK        -0.1800 
     59 N           2.8284  -13.5066  -47.8086 N.am      3 UNK        -0.5000 
     60 C           1.5044  -13.3023  -47.7710 C.2       2 UNK         0.5000 
     61 O           1.0039  -12.2000  -47.5386 O.2       2 UNK        -0.5000 
     62 CA          0.6088  -14.5366  -48.0212 C.3       2 UNK         0.1400 
     63 CB          1.1857  -15.8121  -47.3795 C.3       2 UNK        -0.1800 
     64 N          -0.7323  -14.3271  -47.4833 N.am      2 UNK        -0.5000 
     65 C          -1.7489  -13.7326  -48.1209 C.2       1 UNK         0.5000 
     66 O          -1.6967  -13.3428  -49.2886 O.2       1 UNK        -0.5000 
     67 C          -1.2926  -22.2184  -46.4724 C.2       11 UNK         0.5000 
     68 O          -1.7520  -22.7340  -47.4866 O.2       11 UNK        -0.5000 
     69 N          -2.0097  -22.0367  -45.3524 N.am      12 UNK        -0.5000 
     70 CA         -3.4077  -22.4308  -45.1471 C.3       12 UNK         0.1400 
     71 CB         -3.8535  -21.9846  -43.7465 C.3       12 UNK        -0.1800 
     72 C          -3.6913  -23.9374  -45.3364 C.2       12 UNK         0.5000 
     73 O          -4.8241  -24.2998  -45.6623 O.2       12 UNK        -0.5000 
     74 N          -2.6703  -24.7836  -45.1415 N.am      13 UNK        -0.5000 
     75 CA         -2.7180  -26.2294  -45.3623 C.3       13 UNK         0.1400 
     76 CB         -1.3835  -26.8371  -44.9044 C.3       13 UNK        -0.1800 
     77 C          -3.0002  -26.6020  -46.8325 C.2       13 UNK         0.5000 
     78 O          -2.6694  -25.8352  -47.7384 O.2       13 UNK        -0.5000 
     79 N          -3.5927  -27.7871  -47.0394 N.am      14 UNK        -0.5000 
     80 CA         -3.9466  -28.3705  -48.3414 C.3       14 UNK         0.1400 
     81 CB         -2.6747  -28.7603  -49.1249 C.3       14 UNK        -0.1800 
     82 C          -4.9021  -27.4724  -49.1563 C.2       14 UNK         0.5000 
     83 O          -4.6559  -27.2131  -50.3357 O.2       14 UNK        -0.5000 
     84 N          -5.9622  -26.9913  -48.4879 N.am      15 UNK        -0.5000 
     85 CA         -6.9902  -26.0798  -49.0063 C.3       15 UNK         0.1400 
     86 CB         -7.8538  -26.7828  -50.0753 C.3       15 UNK        -0.1800 
     87 C          -6.3848  -24.7504  -49.5000 C.2       15 UNK         0.5000 
     88 O          -6.5999  -24.3557  -50.6483 O.2       15 UNK        -0.5000 
     89 N          -5.5956  -24.1132  -48.6226 N.am      16 UNK        -0.5000 
     90 CA         -4.8200  -22.8950  -48.8707 C.3       16 UNK         0.1400 
     91 CB         -5.7507  -21.6730  -49.0214 C.3       16 UNK        -0.1800 
     92 C          -3.8317  -23.0589  -50.0416 C.2       16 UNK         0.5000 
     93 O          -3.8095  -22.2195  -50.9390 O.2       16 UNK        -0.5000 
     94 N          -3.0765  -24.1683  -50.0290 N.am      17 UNK        -0.5000 
     95 CA         -2.1308  -24.6108  -51.0569 C.3       17 UNK         0.1400 
     96 CB         -0.8877  -23.6974  -51.0691 C.3       17 UNK        -0.1800 
     97 C          -2.7979  -24.7447  -52.4416 C.2       17 UNK         0.5000 
     98 O          -2.3106  -24.1796  -53.4226 O.2       17 UNK        -0.5000 
     99 N          -3.9368  -25.4537  -52.4774 N.am      18 UNK        -0.5000 
    100 CA        -4.8401  -25.6236  -53.6215 C.3       18 UNK         0.1400 
    101 CB        -4.1951  -26.5315  -54.6885 C.3       18 UNK        -0.1800 
    102 C         -5.3280  -24.2708  -54.1858 C.2       18 UNK         0.5000 
    103 O         -5.2606  -24.0348  -55.3932 O.2       18 UNK        -0.5000 
    104 N         -5.7665  -23.3930  -53.2729 N.am      19 UNK        -0.5000 
    105 CA        -6.1899  -22.0024  -53.4740 C.3       19 UNK         0.1400 
    106 CB        -7.4123  -21.9230  -54.4120 C.3       19 UNK        -0.1800 
    107 C         -5.0651  -21.0265  -53.8929 C.2       19 UNK         0.5000 
    108 O         -5.3678  -19.8754  -54.2107 O.2       19 UNK        -0.5000 
    109 N         -3.8017  -21.4776  -53.8720 N.am      20 UNK        -0.5000 
    110 CA        -2.5329  -20.7538  -54.0427 C.3       20 UNK         0.1400 
    111 CB        -2.3300  -19.7354  -52.9049 C.3       20 UNK        -0.1800 
    112 C         -2.2817  -20.0903  -55.4132 C.2       20 UNK         0.5000 
    113 O         -1.1188  -19.9466  -55.7944 O.2       20 UNK        -0.5000 
    114 N         -3.3420  -19.6746  -56.1174 N.am      21 UNK        -0.5000 
    115 CA        -3.3970  -18.9390  -57.3890 C.3       21 UNK         0.1400 
    116 CB        -2.6941  -19.7027  -58.5275 C.3       21 UNK        -0.1800 
    117 C         -2.8974  -17.4829  -57.2891 C.2       21 UNK         0.5000 
    118 O         -3.5634  -16.5828  -57.8019 O.2       21 UNK        -0.5000 
    119 N         -1.7640  -17.2769  -56.6079 N.am      22 UNK        -0.5000 
    120 CA        -1.1771  -15.9790  -56.2251 C.3       22 UNK         0.1400 
    121 C         -0.6210  -15.1293  -57.4089 C.2       22 UNK         0.5000 
    122 N         -0.4165  -15.6962  -58.5916 N.am      22 UNK        -0.7600 
    123 O         -0.3367  -13.9449  -57.2499 O.2       22 UNK        -0.5000 
    124 C124       -2.0938  -15.1523  -55.2755 C.3       23 UNK        -0.0398 
    125 S125       -2.6511  -16.1090  -53.8223 S.3       23 UNK        -0.2404 
    126 C126       -1.5446  -15.4864  -52.5200 C.3       23 UNK        -0.0205 
    127 H127       -0.9308  -12.4239  -43.5271 H         1 UNK         0.0600 
    128 H128       -2.3166  -13.5069  -43.3574 H         1 UNK         0.0600 
    129 H129       -2.5336  -11.7629  -43.1897 H         1 UNK         0.0600 
    130 H130       -3.0622  -14.2637  -45.3339 H         1 UNK         0.3000 
    131 H131       -3.4421  -12.5531  -47.6207 H         1 UNK         0.0600 
    132 H132       -5.0830  -14.2500  -47.2349 H         1 UNK         0.0800 
    133 H133       -4.2843  -14.6222  -48.7255 H         1 UNK         0.0800 
    134 H134       -4.1456  -18.3229  -48.1402 H         1 UNK         0.0800 
    135 H135       -4.8644  -17.0012  -49.0179 H         1 UNK         0.0800 
    136 H136       -3.5473  -15.7836  -50.7046 H         1 UNK         0.1150 
    137 H137        0.3822  -17.1995  -51.6412 H         1 UNK         0.1150 
    138 H138       -1.6886  -18.7064  -48.1976 H         1 UNK         0.1150 
    139 H139        1.3196  -19.0262  -50.4862 H         1 UNK         0.0800 
    140 H140        1.3316  -18.4471  -48.8443 H         1 UNK         0.0800 
    141 H141       -0.2484  -19.6845  -46.8731 H         1 UNK         0.0800 
    142 H142        1.4308  -20.1046  -47.0420 H         1 UNK         0.0800 
    143 H143        0.7480  -22.5736  -46.9754 H         1 UNK         0.0600 
    144 H144        1.0991  -20.7785  -44.8383 H         1 UNK         0.3000 
    145 H145        1.4011  -23.1998  -42.2237 H         1 UNK         0.0600 
    146 H146        3.5434  -21.9598  -42.0588 H         1 UNK         0.0600 
    147 H147        3.5695  -23.0551  -43.4333 H         1 UNK         0.0600 
    148 H148        3.3387  -21.3303  -43.6906 H         1 UNK         0.0600 
    149 H149        1.4775  -20.2911  -42.4415 H         1 UNK         0.3000 
    150 H150       -1.8663  -19.8210  -41.2917 H         1 UNK         0.0600 
    151 H151       -0.5507  -20.1713  -39.1889 H         1 UNK         0.0600 
    152 H152       -0.7406  -18.4638  -39.5566 H         1 UNK         0.0600 
    153 H153        0.7951  -19.2679  -39.8748 H         1 UNK         0.0600 
    154 H154        0.1269  -17.9101  -41.8620 H         1 UNK         0.3000 
    155 H155       -0.3395  -17.7294  -45.4133 H         1 UNK         0.0600 
    156 H156       -2.1110  -16.3231  -44.4168 H         1 UNK         0.0600 
    157 H157       -0.6830  -15.3460  -44.7392 H         1 UNK         0.0600 
    158 H158       -1.0508  -15.8586  -43.0964 H         1 UNK         0.0600 
    159 H159        1.3923  -16.2464  -43.7729 H         1 UNK         0.3000 
    160 H160        4.1939  -18.4976  -43.7821 H         1 UNK         0.0600 
    161 H161        3.6261  -15.7720  -45.0698 H         1 UNK         0.0600 
    162 H162        4.2354  -17.1938  -45.9007 H         1 UNK         0.0600 
    163 H163        5.2139  -16.4160  -44.6664 H         1 UNK         0.0600 
    164 H164        3.6218  -15.9257  -42.5805 H         1 UNK         0.3000 
    165 H165        2.5996  -17.1859  -39.4200 H         1 UNK         0.0600 
    166 H166        4.4901  -15.7793  -38.6432 H         1 UNK         0.0600 
    167 H167        5.0954  -17.2827  -39.3200 H         1 UNK         0.0600 
    168 H168        5.2048  -15.7965  -40.2558 H         1 UNK         0.0600 
    169 H169        3.0736  -14.5439  -40.4252 H         1 UNK         0.3000 
    170 H170       -0.1551  -14.0060  -41.8250 H         1 UNK         0.0600 
    171 H171       -0.4738  -13.6432  -39.3762 H         1 UNK         0.0600 
    172 H172        1.1162  -12.8969  -39.2676 H         1 UNK         0.0600 
    173 H173       -0.1614  -12.1314  -40.2133 H         1 UNK         0.0600 
    174 H174        2.0698  -12.2663  -41.4743 H         1 UNK         0.3000 
    175 H175        2.9975  -11.4906  -43.5707 H         1 UNK         0.0600 
    176 H176        4.9385  -13.8628  -43.2053 H         1 UNK         0.0600 
    177 H177        5.4170  -12.1861  -43.4520 H         1 UNK         0.0600 
    178 H178        4.5855  -12.6494  -41.9793 H         1 UNK         0.0600 
    179 H179        2.9127  -13.6587  -45.4440 H         1 UNK         0.3000 
    180 H180        3.6188  -11.6143  -48.1744 H         1 UNK         0.0600 
    181 H181        5.4904  -13.9136  -47.3872 H         1 UNK         0.0600 
    182 H182        5.9995  -12.2866  -47.8221 H         1 UNK         0.0600 
    183 H183        5.2269  -13.3074  -49.0235 H         1 UNK         0.0600 
    184 H184        3.1720  -14.4335  -48.0131 H         1 UNK         0.3000 
    185 H185        0.5424  -14.6931  -49.0999 H         1 UNK         0.0600 
    186 H186        2.0924  -16.1432  -47.8862 H         1 UNK         0.0600 
    187 H187        1.4300  -15.6512  -46.3303 H         1 UNK         0.0600 
    188 H188        0.4739  -16.6351  -47.4320 H         1 UNK         0.0600 
    189 H189       -0.8663  -14.5613  -46.5128 H         1 UNK         0.3000 
    190 H190       -1.5782  -21.5173  -44.5974 H         1 UNK         0.3000 
    191 H191       -4.0094  -21.8862  -45.8755 H         1 UNK         0.0600 
    192 H192       -3.7645  -20.9051  -43.6263 H         1 UNK         0.0600 
    193 H193       -4.8979  -22.2432  -43.5667 H         1 UNK         0.0600 
    194 H194       -3.2588  -22.4606  -42.9664 H         1 UNK         0.0600 
    195 H195       -1.7636  -24.3921  -44.9245 H         1 UNK         0.3000 
    196 H196       -3.5204  -26.6341  -44.7423 H         1 UNK         0.0600 
    197 H197       -1.3841  -27.9219  -45.0178 H         1 UNK         0.0600 
    198 H198       -1.1904  -26.6205  -43.8535 H         1 UNK         0.0600 
    199 H199       -0.5466  -26.4460  -45.4849 H         1 UNK         0.0600 
    200 H200       -3.8288  -28.3512  -46.2347 H         1 UNK         0.3000 
    201 H201       -4.4967  -29.2891  -48.1324 H         1 UNK         0.0600 
    202 H202       -2.0351  -29.4172  -48.5356 H         1 UNK         0.0600 
    203 H203       -2.0868  -27.8868  -49.4083 H         1 UNK         0.0600 
    204 H204       -2.9292  -29.2932  -50.0418 H         1 UNK         0.0600 
    205 H205       -6.0539  -27.2418  -47.5134 H         1 UNK         0.3000 
    206 H206       -7.6417  -25.8306  -48.1675 H         1 UNK         0.0600 
    207 H207       -8.2885  -27.7038  -49.6872 H         1 UNK         0.0600 
    208 H208       -8.6783  -26.1428  -50.3914 H         1 UNK         0.0600 
    209 H209       -7.2772  -27.0339  -50.9662 H         1 UNK         0.0600 
    210 H210       -5.4576  -24.5246  -47.7064 H         1 UNK         0.3000 
    211 H211       -4.2164  -22.7306  -47.9841 H         1 UNK         0.0600 
    212 H212       -6.3801  -21.7475  -49.9084 H         1 UNK         0.0600 
    213 H213       -5.1720  -20.7524  -49.1080 H         1 UNK         0.0600 
    214 H214       -6.4026  -21.5659  -48.1546 H         1 UNK         0.0600 
    215 H215       -3.1261  -24.7703  -49.2095 H         1 UNK         0.3000 
    216 H216       -1.8074  -25.6115  -50.7675 H         1 UNK         0.0600 
    217 H217       -0.1329  -24.0712  -51.7614 H         1 UNK         0.0600 
    218 H218       -0.4291  -23.6478  -50.0813 H         1 UNK         0.0600 
    219 H219       -1.1353  -22.6789  -51.3710 H         1 UNK         0.0600 
    220 H220       -4.2433  -25.9055  -51.6177 H         1 UNK         0.3000 
    221 H221       -5.7247  -26.1357  -53.2397 H         1 UNK         0.0600 
    222 H222       -3.3154  -26.0690  -55.1372 H         1 UNK         0.0600 
    223 H223       -3.8903  -27.4861  -54.2598 H         1 UNK         0.0600 
    224 H224       -4.8983  -26.7472  -55.4937 H         1 UNK         0.0600 
    225 H225       -5.7999  -23.7046  -52.3049 H         1 UNK         0.3000 
    226 H226       -6.5150  -21.6613  -52.4903 H         1 UNK         0.0600 
    227 H227       -8.2011  -22.6032  -54.0907 H         1 UNK         0.0600 
    228 H228       -7.8363  -20.9182  -54.4178 H         1 UNK         0.0600 
    229 H229       -7.1521  -22.1701  -55.4413 H         1 UNK         0.0600 
    230 H230       -3.6773  -22.4462  -53.6028 H         1 UNK         0.3000 
    231 H231       -1.7561  -21.5120  -53.9351 H         1 UNK         0.0600 
    232 H232       -3.1200  -18.9848  -52.8833 H         1 UNK         0.0600 
    233 H233       -1.3829  -19.2063  -53.0152 H         1 UNK         0.0600 
    234 H234       -2.3097  -20.2252  -51.9316 H         1 UNK         0.0600 
    235 H235       -4.2348  -19.7617  -55.6369 H         1 UNK         0.3000 
    236 H236       -4.4569  -18.8862  -57.6423 H         1 UNK         0.0600 
    237 H237       -3.0836  -20.7165  -58.6204 H         1 UNK         0.0600 
    238 H238       -2.8550  -19.2037  -59.4838 H         1 UNK         0.0600 
    239 H239       -1.6168  -19.7695  -58.3754 H         1 UNK         0.0600 
    240 H240       -1.2933  -18.1012  -56.2461 H         1 UNK         0.3000 
    241 H241       -0.2886  -16.2387  -55.6489 H         1 UNK         0.0600 
    242 H242       -0.0468  -15.1460  -59.3511 H         1 UNK         0.3800 
    243 H243       -0.6376  -16.6686  -58.7355 H         1 UNK         0.3800 
    244 H244       -1.5815  -14.2534  -54.9289 H         1 UNK         0.0800 
    245 H245       -2.9775  -14.8037  -55.8115 H         1 UNK         0.0800 
    246 H246       -0.5285  -15.4129  -52.9106 H         1 UNK         0.0800 
    247 H247       -1.8444  -14.4764  -52.2361 H         1 UNK         0.0800 
@<TRIPOS>BOND
     1    1    2 1    
     2    1  127 1    
     3    1  128 1    
     4    1  129 1    
     5    2    3 2    
     6    2    4 am   BACKBONE|DICT|INTERRES
     7    4    5 1    
     8    4  130 1    
     9    5    6 1    
    10    5   65 1    
    11    5  131 1    
    12    6    7 1    
    13    6  132 1    
    14    6  133 1    
    15    7    8 1    
    16    8    9 1    
    17    8  134 1    
    18    8  135 1    
    19    9   10 ar   
    20    9   14 ar   
    21   10   11 ar   
    22   10  136 1    
    23   11   12 ar   
    24   11  126 1    
    25   12   13 ar   
    26   12  137 1    
    27   13   14 ar   
    28   13   15 1    
    29   14  138 1    
    30   15   16 1    
    31   15  139 1    
    32   15  140 1    
    33   16   17 1    
    34   17   18 1    
    35   17  141 1    
    36   17  142 1    
    37   18   19 1    
    38   18   67 1    
    39   18  143 1    
    40   19   20 am   BACKBONE|DICT|INTERRES
    41   19  144 1    
    42   20   21 2    
    43   20   22 1    
    44   22   23 1    
    45   22   24 1    
    46   22  145 1    
    47   23  146 1    
    48   23  147 1    
    49   23  148 1    
    50   24   25 am   BACKBONE|DICT|INTERRES
    51   24  149 1    
    52   25   26 2    
    53   25   27 1    
    54   27   28 1    
    55   27   29 1    
    56   27  150 1    
    57   28  151 1    
    58   28  152 1    
    59   28  153 1    
    60   29   30 am   BACKBONE|DICT|INTERRES
    61   29  154 1    
    62   30   31 2    
    63   30   32 1    
    64   32   33 1    
    65   32   34 1    
    66   32  155 1    
    67   33  156 1    
    68   33  157 1    
    69   33  158 1    
    70   34   35 am   BACKBONE|DICT|INTERRES
    71   34  159 1    
    72   35   36 2    
    73   35   37 1    
    74   37   38 1    
    75   37   39 1    
    76   37  160 1    
    77   38  161 1    
    78   38  162 1    
    79   38  163 1    
    80   39   40 am   BACKBONE|DICT|INTERRES
    81   39  164 1    
    82   40   41 2    
    83   40   42 1    
    84   42   43 1    
    85   42   44 1    
    86   42  165 1    
    87   43  166 1    
    88   43  167 1    
    89   43  168 1    
    90   44   45 am   BACKBONE|DICT|INTERRES
    91   44  169 1    
    92   45   46 2    
    93   45   47 1    
    94   47   48 1    
    95   47   49 1    
    96   47  170 1    
    97   48  171 1    
    98   48  172 1    
    99   48  173 1    
   100   49   50 am   BACKBONE|DICT|INTERRES
   101   49  174 1    
   102   50   51 2    
   103   50   52 1    
   104   52   53 1    
   105   52   54 1    
   106   52  175 1    
   107   53  176 1    
   108   53  177 1    
   109   53  178 1    
   110   54   55 am   BACKBONE|DICT|INTERRES
   111   54  179 1    
   112   55   56 2    
   113   55   57 1    
   114   57   58 1    
   115   57   59 1    
   116   57  180 1    
   117   58  181 1    
   118   58  182 1    
   119   58  183 1    
   120   59   60 am   BACKBONE|DICT|INTERRES
   121   59  184 1    
   122   60   61 2    
   123   60   62 1    
   124   62   63 1    
   125   62   64 1    
   126   62  185 1    
   127   63  186 1    
   128   63  187 1    
   129   63  188 1    
   130   64   65 am   BACKBONE|DICT|INTERRES
   131   64  189 1    
   132   65   66 2    
   133   67   68 2    
   134   67   69 am   BACKBONE|DICT|INTERRES
   135   69   70 1    
   136   69  190 1    
   137   70   71 1    
   138   70   72 1    
   139   70  191 1    
   140   71  192 1    
   141   71  193 1    
   142   71  194 1    
   143   72   73 2    
   144   72   74 am   BACKBONE|DICT|INTERRES
   145   74   75 1    
   146   74  195 1    
   147   75   76 1    
   148   75   77 1    
   149   75  196 1    
   150   76  197 1    
   151   76  198 1    
   152   76  199 1    
   153   77   78 2    
   154   77   79 am   BACKBONE|DICT|INTERRES
   155   79   80 1    
   156   79  200 1    
   157   80   81 1    
   158   80   82 1    
   159   80  201 1    
   160   81  202 1    
   161   81  203 1    
   162   81  204 1    
   163   82   83 2    
   164   82   84 am   BACKBONE|DICT|INTERRES
   165   84   85 1    
   166   84  205 1    
   167   85   86 1    
   168   85   87 1    
   169   85  206 1    
   170   86  207 1    
   171   86  208 1    
   172   86  209 1    
   173   87   88 2    
   174   87   89 am   BACKBONE|DICT|INTERRES
   175   89   90 1    
   176   89  210 1    
   177   90   91 1    
   178   90   92 1    
   179   90  211 1    
   180   91  212 1    
   181   91  213 1    
   182   91  214 1    
   183   92   93 2    
   184   92   94 am   BACKBONE|DICT|INTERRES
   185   94   95 1    
   186   94  215 1    
   187   95   96 1    
   188   95   97 1    
   189   95  216 1    
   190   96  217 1    
   191   96  218 1    
   192   96  219 1    
   193   97   98 2    
   194   97   99 am   BACKBONE|DICT|INTERRES
   195   99  100 1    
   196   99  220 1    
   197  100  101 1    
   198  100  102 1    
   199  100  221 1    
   200  101  222 1    
   201  101  223 1    
   202  101  224 1    
   203  102  103 2    
   204  102  104 am   BACKBONE|DICT|INTERRES
   205  104  105 1    
   206  104  225 1    
   207  105  106 1    
   208  105  107 1    
   209  105  226 1    
   210  106  227 1    
   211  106  228 1    
   212  106  229 1    
   213  107  108 2    
   214  107  109 am   BACKBONE|DICT|INTERRES
   215  109  110 1    
   216  109  230 1    
   217  110  111 1    
   218  110  112 1    
   219  110  231 1    
   220  111  232 1    
   221  111  233 1    
   222  111  234 1    
   223  112  113 2    
   224  112  114 am   BACKBONE|DICT|INTERRES
   225  114  115 1    
   226  114  235 1    
   227  115  116 1    
   228  115  117 1    
   229  115  236 1    
   230  116  237 1    
   231  116  238 1    
   232  116  239 1    
   233  117  118 2    
   234  117  119 am   BACKBONE|DICT|INTERRES
   235  119  120 1    
   236  119  240 1    
   237  120  121 1    
   238  120  124 1    
   239  120  241 1    
   240  121  122 am   BACKBONE|DICT|INTERRES
   241  121  123 2    
   242  122  242 1    
   243  122  243 1    
   244  124  125 1    
   245  124  244 1    
   246  124  245 1    
   247  125  126 1    
   248  126  246 1    
   249  126  247 1    
@<TRIPOS>SUBSTRUCTURE
     1 UNK         1 GROUP             0       ****    0 ROOT    
