@<TRIPOS>MOLECULE
3R540
247   249    1
SMALL
USER_CHARGES


@<TRIPOS>ATOM
      1 CA         -1.6678  -10.7013  -46.2944 C.3       0 UNK        -0.1800 
      2 C          -0.5910  -10.7478  -47.3691 C.2       0 UNK         0.5000 
      3 O           0.2362   -9.8403  -47.4507 O.2       0 UNK        -0.5000 
      4 N          -0.5932  -11.8077  -48.1875 N.am      1 UNK        -0.5000 
      5 CA          0.3658  -12.0473  -49.2752 C.3       1 UNK         0.1400 
      6 C6         -0.1903  -13.0526  -50.3165 C.3       23 UNK        -0.0398 
      7 S7         -0.7574  -14.6384  -49.6080 S.3       23 UNK        -0.2404 
      8 C8         -1.3646  -15.4545  -51.1188 C.3       23 UNK        -0.0205 
      9 C9         -2.0720  -16.7588  -50.7920 C.ar      23 UNK        -0.0193 
     10 C10        -3.4668  -16.8329  -50.7989 C.ar      23 UNK        -0.1150 
     11 C11        -4.1188  -18.0267  -50.4728 C.ar      23 UNK        -0.0193 
     12 C12        -3.3621  -19.1496  -50.1229 C.ar      23 UNK        -0.1150 
     13 C13        -1.9656  -19.0853  -50.1116 C.ar      23 UNK        -0.0193 
     14 C14        -1.3289  -17.8960  -50.4746 C.ar      23 UNK        -0.1150 
     15 C15        -1.1367  -20.2803  -49.6730 C.3       23 UNK        -0.0205 
     16 S16        -0.1919  -19.8996  -48.1666 S.3       23 UNK        -0.2404 
     17 C17         0.6987  -21.4586  -47.8664 C.3       23 UNK        -0.0398 
     18 CA          0.1597  -22.2754  -46.6661 C.3       11 UNK         0.1400 
     19 N          -0.0626  -21.4736  -45.4568 N.am      11 UNK        -0.5000 
     20 C          -0.2165  -22.0033  -44.2358 C.2       10 UNK         0.5000 
     21 O          -0.1816  -23.2124  -44.0081 O.2       10 UNK        -0.5000 
     22 CA         -0.4928  -21.0311  -43.0796 C.3       10 UNK         0.1400 
     23 CB          0.7914  -20.3323  -42.6096 C.3       10 UNK        -0.1800 
     24 N          -1.5204  -20.0405  -43.3997 N.am      10 UNK        -0.5000 
     25 C          -2.8187  -20.3385  -43.5467 C.2       9 UNK         0.5000 
     26 O          -3.2659  -21.4838  -43.5124 O.2       9 UNK        -0.5000 
     27 CA         -3.7806  -19.1630  -43.7797 C.3       9 UNK         0.1400 
     28 CB         -4.1452  -18.4885  -42.4488 C.3       9 UNK        -0.1800 
     29 N          -3.2447  -18.1659  -44.7024 N.am      9 UNK        -0.5000 
     30 C          -3.0556  -18.3868  -46.0108 C.2       8 UNK         0.5000 
     31 O          -3.2821  -19.4651  -46.5584 O.2       8 UNK        -0.5000 
     32 CA         -2.5354  -17.2037  -46.8471 C.3       8 UNK         0.1400 
     33 CB         -3.7187  -16.3692  -47.3605 C.3       8 UNK        -0.1800 
     34 N          -1.6204  -16.3107  -46.1383 N.am      8 UNK        -0.5000 
     35 C          -0.4816  -16.6571  -45.5262 C.2       7 UNK         0.5000 
     36 O          -0.0602  -17.8123  -45.4406 O.2       7 UNK        -0.5000 
     37 CA          0.3209  -15.5196  -44.8636 C.3       7 UNK         0.1400 
     38 CB         -0.3410  -14.1244  -44.9464 C.3       7 UNK        -0.1800 
     39 N           0.6574  -15.8507  -43.4797 N.am      7 UNK        -0.5000 
     40 C          -0.1960  -16.1624  -42.4917 C.2       6 UNK         0.5000 
     41 O          -1.4220  -16.1426  -42.6162 O.2       6 UNK        -0.5000 
     42 CA          0.4346  -16.6061  -41.1586 C.3       6 UNK         0.1400 
     43 CB         -0.5017  -17.5160  -40.3413 C.3       6 UNK        -0.1800 
     44 N           1.7025  -17.2997  -41.4034 N.am      6 UNK        -0.5000 
     45 C           2.8948  -16.9277  -40.9245 C.2       5 UNK         0.5000 
     46 O           3.0585  -15.9876  -40.1460 O.2       5 UNK        -0.5000 
     47 CA          4.1232  -17.7287  -41.4060 C.3       5 UNK         0.1400 
     48 CB          4.4422  -18.8531  -40.4085 C.3       5 UNK        -0.1800 
     49 N           4.0302  -18.3083  -42.7542 N.am      5 UNK        -0.5000 
     50 C           3.7867  -17.6397  -43.8904 C.2       4 UNK         0.5000 
     51 O           3.4646  -16.4480  -43.9261 O.2       4 UNK        -0.5000 
     52 CA          3.9429  -18.4258  -45.2056 C.3       4 UNK         0.1400 
     53 CB          3.1136  -19.7239  -45.2465 C.3       4 UNK        -0.1800 
     54 N           3.5597  -17.5586  -46.3117 N.am      4 UNK        -0.5000 
     55 C           3.8911  -17.7062  -47.5974 C.2       3 UNK         0.5000 
     56 O           4.5776  -18.6355  -48.0239 O.2       3 UNK        -0.5000 
     57 CA          3.3708  -16.6360  -48.5795 C.3       3 UNK         0.1400 
     58 CB          2.1761  -17.1780  -49.3754 C.3       3 UNK        -0.1800 
     59 N           2.9617  -15.3814  -47.9429 N.am      3 UNK        -0.5000 
     60 C           3.7897  -14.4887  -47.3826 C.2       2 UNK         0.5000 
     61 O           5.0096  -14.6450  -47.3121 O.2       2 UNK        -0.5000 
     62 CA          3.1313  -13.2185  -46.7987 C.3       2 UNK         0.1400 
     63 CB          4.1102  -12.0310  -46.6906 C.3       2 UNK        -0.1800 
     64 N           1.9020  -12.8171  -47.4985 N.am      2 UNK        -0.5000 
     65 C           1.7772  -12.4512  -48.7857 C.2       1 UNK         0.5000 
     66 O           2.7153  -12.4232  -49.5831 O.2       1 UNK        -0.5000 
     67 C          -1.0716  -23.1225  -47.0410 C.2       11 UNK         0.5000 
     68 O          -0.8958  -24.2622  -47.4752 O.2       11 UNK        -0.5000 
     69 N          -2.2805  -22.5842  -46.8192 N.am      12 UNK        -0.5000 
     70 CA         -3.5395  -23.3028  -47.0080 C.3       12 UNK         0.1400 
     71 CB         -4.7172  -22.3192  -46.9616 C.3       12 UNK        -0.1800 
     72 C          -3.7258  -24.4349  -45.9816 C.2       12 UNK         0.5000 
     73 O          -4.1007  -25.5406  -46.3712 O.2       12 UNK        -0.5000 
     74 N          -3.4289  -24.1602  -44.7015 N.am      13 UNK        -0.5000 
     75 CA         -3.4945  -25.1335  -43.6063 C.3       13 UNK         0.1400 
     76 CB         -3.3158  -24.4171  -42.2594 C.3       13 UNK        -0.1800 
     77 C          -2.4689  -26.2721  -43.7502 C.2       13 UNK         0.5000 
     78 O          -2.7977  -27.4254  -43.4701 O.2       13 UNK        -0.5000 
     79 N          -1.2581  -25.9349  -44.2144 N.am      14 UNK        -0.5000 
     80 CA         -0.1949  -26.8893  -44.5356 C.3       14 UNK         0.1400 
     81 CB          1.1330  -26.1253  -44.6603 C.3       14 UNK        -0.1800 
     82 C          -0.4617  -27.6934  -45.8243 C.2       14 UNK         0.5000 
     83 O           0.1968  -28.7116  -46.0399 O.2       14 UNK        -0.5000 
     84 N          -1.3893  -27.2061  -46.6635 N.am      15 UNK        -0.5000 
     85 CA         -1.7134  -27.6757  -48.0147 C.3       15 UNK         0.1400 
     86 CB         -2.3345  -29.0871  -47.9786 C.3       15 UNK        -0.1800 
     87 C          -0.5115  -27.5597  -48.9771 C.2       15 UNK         0.5000 
     88 O          -0.3338  -28.4001  -49.8609 O.2       15 UNK        -0.5000 
     89 N           0.3005  -26.5146  -48.7729 N.am      16 UNK        -0.5000 
     90 CA          1.4960  -26.2115  -49.5553 C.3       16 UNK         0.1400 
     91 CB          2.4299  -25.3306  -48.7105 C.3       16 UNK        -0.1800 
     92 C           1.1504  -25.5164  -50.8824 C.2       16 UNK         0.5000 
     93 O           1.8501  -25.7178  -51.8757 O.2       16 UNK        -0.5000 
     94 N           0.0742  -24.7235  -50.8734 N.am      17 UNK        -0.5000 
     95 CA         -0.4698  -23.9841  -52.0044 C.3       17 UNK         0.1400 
     96 CB          0.4563  -22.8079  -52.3729 C.3       17 UNK        -0.1800 
     97 C          -1.8765  -23.4982  -51.6287 C.2       17 UNK         0.5000 
     98 O          -2.2312  -23.4999  -50.4477 O.2       17 UNK        -0.5000 
     99 N          -2.6461  -23.0842  -52.6365 N.am      18 UNK        -0.5000 
    100 CA        -3.9902  -22.5296  -52.5210 C.3       18 UNK         0.1400 
    101 CB        -5.0034  -23.6369  -52.1683 C.3       18 UNK        -0.1800 
    102 C         -4.3483  -21.8586  -53.8553 C.2       18 UNK         0.5000 
    103 O         -3.6646  -22.0892  -54.8572 O.2       18 UNK        -0.5000 
    104 N         -5.4173  -21.0507  -53.8413 N.am      19 UNK        -0.5000 
    105 CA        -5.9993  -20.3322  -54.9848 C.3       19 UNK         0.1400 
    106 CB        -6.5435  -21.3201  -56.0383 C.3       19 UNK        -0.1800 
    107 C         -5.0751  -19.2578  -55.6007 C.2       19 UNK         0.5000 
    108 O         -5.2788  -18.8554  -56.7482 O.2       19 UNK        -0.5000 
    109 N         -4.0980  -18.7744  -54.8226 N.am      20 UNK        -0.5000 
    110 CA        -3.1845  -17.6889  -55.1766 C.3       20 UNK         0.1400 
    111 CB        -1.8933  -17.8455  -54.3568 C.3       20 UNK        -0.1800 
    112 C         -3.8745  -16.3266  -54.9678 C.2       20 UNK         0.5000 
    113 O         -3.5261  -15.5804  -54.0506 O.2       20 UNK        -0.5000 
    114 N         -4.8924  -16.0676  -55.8003 N.am      21 UNK        -0.5000 
    115 CA        -5.8523  -14.9577  -55.7791 C.3       21 UNK         0.1400 
    116 CB        -5.1594  -13.5848  -55.8844 C.3       21 UNK        -0.1800 
    117 C         -6.8177  -15.0268  -54.5809 C.2       21 UNK         0.5000 
    118 O         -8.0304  -15.0855  -54.7867 O.2       21 UNK        -0.5000 
    119 N         -6.2612  -15.0495  -53.3638 N.am      22 UNK        -0.5000 
    120 CA        -6.9578  -15.2261  -52.0762 C.3       22 UNK         0.1400 
    121 C         -7.9560  -14.0879  -51.6969 C.2       22 UNK         0.5000 
    122 N         -7.8612  -12.9036  -52.2889 N.am      22 UNK        -0.7600 
    123 O         -8.8085  -14.2628  -50.8303 O.2       22 UNK        -0.5000 
    124 C124       -7.5722  -16.6471  -51.9146 C.3       23 UNK        -0.0398 
    125 S125       -6.3423  -17.9836  -52.1213 S.3       23 UNK        -0.2404 
    126 C126       -5.6385  -18.0814  -50.4455 C.3       23 UNK        -0.0205 
    127 H127       -2.3351  -11.5618  -46.3507 H         1 UNK         0.0600 
    128 H128       -2.2681   -9.7981  -46.4032 H         1 UNK         0.0600 
    129 H129       -1.2100  -10.6912  -45.3052 H         1 UNK         0.0600 
    130 H130       -1.3095  -12.5135  -48.0899 H         1 UNK         0.3000 
    131 H131        0.5005  -11.0978  -49.7980 H         1 UNK         0.0600 
    132 H132        0.5470  -13.2542  -51.0960 H         1 UNK         0.0800 
    133 H133       -1.0384  -12.5957  -50.8284 H         1 UNK         0.0800 
    134 H134       -2.0405  -14.7845  -51.6528 H         1 UNK         0.0800 
    135 H135       -0.5276  -15.6496  -51.7907 H         1 UNK         0.0800 
    136 H136       -4.0444  -15.9567  -51.0516 H         1 UNK         0.1150 
    137 H137       -3.8583  -20.0650  -49.8332 H         1 UNK         0.1150 
    138 H138       -0.2510  -17.8452  -50.4702 H         1 UNK         0.1150 
    139 H139       -1.7767  -21.1410  -49.4795 H         1 UNK         0.0800 
    140 H140       -0.4554  -20.5530  -50.4772 H         1 UNK         0.0800 
    141 H141        0.7197  -22.0604  -48.7771 H         1 UNK         0.0800 
    142 H142        1.7386  -21.1935  -47.6755 H         1 UNK         0.0800 
    143 H143        0.9431  -22.9952  -46.4179 H         1 UNK         0.0600 
    144 H144       -0.1393  -20.4724  -45.5850 H         1 UNK         0.3000 
    145 H145       -0.8569  -21.6349  -42.2452 H         1 UNK         0.0600 
    146 H146        0.6847  -19.9791  -41.5852 H         1 UNK         0.0600 
    147 H147        1.6422  -21.0151  -42.6161 H         1 UNK         0.0600 
    148 H148        1.0389  -19.4799  -43.2401 H         1 UNK         0.0600 
    149 H149       -1.2257  -19.0830  -43.5288 H         1 UNK         0.3000 
    150 H150       -4.6971  -19.5672  -44.2152 H         1 UNK         0.0600 
    151 H151       -4.5801  -19.2080  -41.7538 H         1 UNK         0.0600 
    152 H152       -4.8782  -17.6952  -42.5960 H         1 UNK         0.0600 
    153 H153       -3.2718  -18.0518  -41.9636 H         1 UNK         0.0600 
    154 H154       -2.9954  -17.2656  -44.3158 H         1 UNK         0.3000 
    155 H155       -1.9994  -17.6113  -47.7031 H         1 UNK         0.0600 
    156 H156       -4.2286  -15.8501  -46.5482 H         1 UNK         0.0600 
    157 H157       -4.4572  -17.0006  -47.8540 H         1 UNK         0.0600 
    158 H158       -3.3913  -15.6233  -48.0846 H         1 UNK         0.0600 
    159 H159       -1.8870  -15.3383  -46.1215 H         1 UNK         0.3000 
    160 H160        1.2650  -15.4691  -45.4053 H         1 UNK         0.0600 
    161 H161       -1.2945  -14.0893  -44.4181 H         1 UNK         0.0600 
    162 H162       -0.5219  -13.8301  -45.9800 H         1 UNK         0.0600 
    163 H163        0.3033  -13.3634  -44.5057 H         1 UNK         0.0600 
    164 H164        1.6517  -15.9476  -43.2992 H         1 UNK         0.3000 
    165 H165        0.6035  -15.6944  -40.5827 H         1 UNK         0.0600 
    166 H166       -0.8378  -18.3780  -40.9169 H         1 UNK         0.0600 
    167 H167       -0.0104  -17.8821  -39.4398 H         1 UNK         0.0600 
    168 H168       -1.3927  -16.9720  -40.0255 H         1 UNK         0.0600 
    169 H169        1.6734  -18.0713  -42.0531 H         1 UNK         0.3000 
    170 H170        4.9672  -17.0362  -41.4157 H         1 UNK         0.0600 
    171 H171        4.5466  -18.4617  -39.3955 H         1 UNK         0.0600 
    172 H172        3.6544  -19.6074  -40.3892 H         1 UNK         0.0600 
    173 H173        5.3791  -19.3509  -40.6591 H         1 UNK         0.0600 
    174 H174        4.2856  -19.2827  -42.8227 H         1 UNK         0.3000 
    175 H175        5.0016  -18.6741  -45.3024 H         1 UNK         0.0600 
    176 H176        3.2934  -20.3564  -44.3777 H         1 UNK         0.0600 
    177 H177        2.0470  -19.5108  -45.2992 H         1 UNK         0.0600 
    178 H178        3.3694  -20.3187  -46.1227 H         1 UNK         0.0600 
    179 H179        3.0603  -16.7285  -46.0258 H         1 UNK         0.3000 
    180 H180        4.1792  -16.4162  -49.2798 H         1 UNK         0.0600 
    181 H181        1.8756  -16.4821  -50.1590 H         1 UNK         0.0600 
    182 H182        2.4164  -18.1268  -49.8570 H         1 UNK         0.0600 
    183 H183        1.3149  -17.3465  -48.7276 H         1 UNK         0.0600 
    184 H184        1.9803  -15.1537  -47.9965 H         1 UNK         0.3000 
    185 H185        2.8306  -13.4809  -45.7834 H         1 UNK         0.0600 
    186 H186        3.6201  -11.1540  -46.2677 H         1 UNK         0.0600 
    187 H187        4.9520  -12.2747  -46.0415 H         1 UNK         0.0600 
    188 H188        4.5177  -11.7515  -47.6624 H         1 UNK         0.0600 
    189 H189        1.0676  -12.7739  -46.9334 H         1 UNK         0.3000 
    190 H190       -2.3456  -21.6295  -46.4885 H         1 UNK         0.3000 
    191 H191       -3.5216  -23.7556  -48.0017 H         1 UNK         0.0600 
    192 H192       -5.6657  -22.8373  -47.1070 H         1 UNK         0.0600 
    193 H193       -4.6325  -21.5699  -47.7490 H         1 UNK         0.0600 
    194 H194       -4.7692  -21.7969  -46.0056 H         1 UNK         0.0600 
    195 H195       -3.1690  -23.2124  -44.4440 H         1 UNK         0.3000 
    196 H196       -4.4895  -25.5831  -43.6198 H         1 UNK         0.0600 
    197 H197       -3.3534  -25.1249  -41.4304 H         1 UNK         0.0600 
    198 H198       -4.1064  -23.6849  -42.0955 H         1 UNK         0.0600 
    199 H199       -2.3591  -23.8962  -42.2049 H         1 UNK         0.0600 
    200 H200       -1.0397  -24.9514  -44.3477 H         1 UNK         0.3000 
    201 H201       -0.1065  -27.6014  -43.7127 H         1 UNK         0.0600 
    202 H202        1.0992  -25.3930  -45.4680 H         1 UNK         0.0600 
    203 H203        1.9603  -26.8051  -44.8681 H         1 UNK         0.0600 
    204 H204        1.3720  -25.5957  -43.7379 H         1 UNK         0.0600 
    205 H205       -1.8653  -26.3586  -46.3838 H         1 UNK         0.3000 
    206 H206       -2.4723  -26.9911  -48.3966 H         1 UNK         0.0600 
    207 H207       -3.1769  -29.1278  -47.2880 H         1 UNK         0.0600 
    208 H208       -2.7080  -29.3740  -48.9622 H         1 UNK         0.0600 
    209 H209       -1.6111  -29.8427  -47.6715 H         1 UNK         0.0600 
    210 H210        0.0220  -25.8280  -48.0772 H         1 UNK         0.3000 
    211 H211        2.0168  -27.1435  -49.7851 H         1 UNK         0.0600 
    212 H212        1.9601  -24.3830  -48.4457 H         1 UNK         0.0600 
    213 H213        3.3480  -25.1024  -49.2534 H         1 UNK         0.0600 
    214 H214        2.7147  -25.8328  -47.7857 H         1 UNK         0.0600 
    215 H215       -0.4764  -24.6342  -50.0261 H         1 UNK         0.3000 
    216 H216       -0.5632  -24.6592  -52.8575 H         1 UNK         0.0600 
    217 H217       -0.0083  -22.1423  -53.1014 H         1 UNK         0.0600 
    218 H218        1.3868  -23.1637  -52.8151 H         1 UNK         0.0600 
    219 H219        0.7170  -22.2139  -51.4979 H         1 UNK         0.0600 
    220 H220       -2.2925  -23.0799  -53.5864 H         1 UNK         0.3000 
    221 H221       -3.9912  -21.7659  -51.7407 H         1 UNK         0.0600 
    222 H222       -5.0060  -24.4290  -52.9180 H         1 UNK         0.0600 
    223 H223       -4.7805  -24.0913  -51.2030 H         1 UNK         0.0600 
    224 H224       -6.0172  -23.2402  -52.1061 H         1 UNK         0.0600 
    225 H225       -5.8996  -20.9114  -52.9640 H         1 UNK         0.3000 
    226 H226       -6.8554  -19.7858  -54.5872 H         1 UNK         0.0600 
    227 H227       -7.2022  -22.0595  -55.5827 H         1 UNK         0.0600 
    228 H228       -7.1233  -20.7994  -56.8013 H         1 UNK         0.0600 
    229 H229       -5.7410  -21.8535  -56.5481 H         1 UNK         0.0600 
    230 H230       -4.0369  -19.1163  -53.8750 H         1 UNK         0.3000 
    231 H231       -2.9175  -17.7666  -56.2326 H         1 UNK         0.0600 
    232 H232       -1.3745  -18.7689  -54.6146 H         1 UNK         0.0600 
    233 H233       -2.1014  -17.8710  -53.2889 H         1 UNK         0.0600 
    234 H234       -1.2043  -17.0206  -54.5419 H         1 UNK         0.0600 
    235 H235       -5.1166  -16.8049  -56.4608 H         1 UNK         0.3000 
    236 H236       -6.4587  -15.0807  -56.6779 H         1 UNK         0.0600 
    237 H237       -4.5492  -13.3590  -55.0099 H         1 UNK         0.0600 
    238 H238       -4.5157  -13.5363  -56.7626 H         1 UNK         0.0600 
    239 H239       -5.8970  -12.7869  -55.9781 H         1 UNK         0.0600 
    240 H240       -5.2461  -15.0452  -53.3262 H         1 UNK         0.3000 
    241 H241       -6.1782  -15.1354  -51.3210 H         1 UNK         0.0600 
    242 H242       -7.1623  -12.7397  -52.9955 H         1 UNK         0.3800 
    243 H243       -8.5011  -12.1675  -52.0340 H         1 UNK         0.3800 
    244 H244       -8.3667  -16.7988  -52.6462 H         1 UNK         0.0800 
    245 H245       -8.0438  -16.7632  -50.9375 H         1 UNK         0.0800 
    246 H246       -6.0047  -17.2618  -49.8264 H         1 UNK         0.0800 
    247 H247       -5.9861  -18.9995  -49.9696 H         1 UNK         0.0800 
@<TRIPOS>BOND
     1    1    2 1    
     2    1  127 1    
     3    1  128 1    
     4    1  129 1    
     5    2    3 2    
     6    2    4 am   BACKBONE|DICT|INTERRES
     7    4    5 1    
     8    4  130 1    
     9    5    6 1    
    10    5   65 1    
    11    5  131 1    
    12    6    7 1    
    13    6  132 1    
    14    6  133 1    
    15    7    8 1    
    16    8    9 1    
    17    8  134 1    
    18    8  135 1    
    19    9   10 ar   
    20    9   14 ar   
    21   10   11 ar   
    22   10  136 1    
    23   11   12 ar   
    24   11  126 1    
    25   12   13 ar   
    26   12  137 1    
    27   13   14 ar   
    28   13   15 1    
    29   14  138 1    
    30   15   16 1    
    31   15  139 1    
    32   15  140 1    
    33   16   17 1    
    34   17   18 1    
    35   17  141 1    
    36   17  142 1    
    37   18   19 1    
    38   18   67 1    
    39   18  143 1    
    40   19   20 am   BACKBONE|DICT|INTERRES
    41   19  144 1    
    42   20   21 2    
    43   20   22 1    
    44   22   23 1    
    45   22   24 1    
    46   22  145 1    
    47   23  146 1    
    48   23  147 1    
    49   23  148 1    
    50   24   25 am   BACKBONE|DICT|INTERRES
    51   24  149 1    
    52   25   26 2    
    53   25   27 1    
    54   27   28 1    
    55   27   29 1    
    56   27  150 1    
    57   28  151 1    
    58   28  152 1    
    59   28  153 1    
    60   29   30 am   BACKBONE|DICT|INTERRES
    61   29  154 1    
    62   30   31 2    
    63   30   32 1    
    64   32   33 1    
    65   32   34 1    
    66   32  155 1    
    67   33  156 1    
    68   33  157 1    
    69   33  158 1    
    70   34   35 am   BACKBONE|DICT|INTERRES
    71   34  159 1    
    72   35   36 2    
    73   35   37 1    
    74   37   38 1    
    75   37   39 1    
    76   37  160 1    
    77   38  161 1    
    78   38  162 1    
    79   38  163 1    
    80   39   40 am   BACKBONE|DICT|INTERRES
    81   39  164 1    
    82   40   41 2    
    83   40   42 1    
    84   42   43 1    
    85   42   44 1    
    86   42  165 1    
    87   43  166 1    
    88   43  167 1    
    89   43  168 1    
    90   44   45 am   BACKBONE|DICT|INTERRES
    91   44  169 1    
    92   45   46 2    
    93   45   47 1    
    94   47   48 1    
    95   47   49 1    
    96   47  170 1    
    97   48  171 1    
    98   48  172 1    
    99   48  173 1    
   100   49   50 am   BACKBONE|DICT|INTERRES
   101   49  174 1    
   102   50   51 2    
   103   50   52 1    
   104   52   53 1    
   105   52   54 1    
   106   52  175 1    
   107   53  176 1    
   108   53  177 1    
   109   53  178 1    
   110   54   55 am   BACKBONE|DICT|INTERRES
   111   54  179 1    
   112   55   56 2    
   113   55   57 1    
   114   57   58 1    
   115   57   59 1    
   116   57  180 1    
   117   58  181 1    
   118   58  182 1    
   119   58  183 1    
   120   59   60 am   BACKBONE|DICT|INTERRES
   121   59  184 1    
   122   60   61 2    
   123   60   62 1    
   124   62   63 1    
   125   62   64 1    
   126   62  185 1    
   127   63  186 1    
   128   63  187 1    
   129   63  188 1    
   130   64   65 am   BACKBONE|DICT|INTERRES
   131   64  189 1    
   132   65   66 2    
   133   67   68 2    
   134   67   69 am   BACKBONE|DICT|INTERRES
   135   69   70 1    
   136   69  190 1    
   137   70   71 1    
   138   70   72 1    
   139   70  191 1    
   140   71  192 1    
   141   71  193 1    
   142   71  194 1    
   143   72   73 2    
   144   72   74 am   BACKBONE|DICT|INTERRES
   145   74   75 1    
   146   74  195 1    
   147   75   76 1    
   148   75   77 1    
   149   75  196 1    
   150   76  197 1    
   151   76  198 1    
   152   76  199 1    
   153   77   78 2    
   154   77   79 am   BACKBONE|DICT|INTERRES
   155   79   80 1    
   156   79  200 1    
   157   80   81 1    
   158   80   82 1    
   159   80  201 1    
   160   81  202 1    
   161   81  203 1    
   162   81  204 1    
   163   82   83 2    
   164   82   84 am   BACKBONE|DICT|INTERRES
   165   84   85 1    
   166   84  205 1    
   167   85   86 1    
   168   85   87 1    
   169   85  206 1    
   170   86  207 1    
   171   86  208 1    
   172   86  209 1    
   173   87   88 2    
   174   87   89 am   BACKBONE|DICT|INTERRES
   175   89   90 1    
   176   89  210 1    
   177   90   91 1    
   178   90   92 1    
   179   90  211 1    
   180   91  212 1    
   181   91  213 1    
   182   91  214 1    
   183   92   93 2    
   184   92   94 am   BACKBONE|DICT|INTERRES
   185   94   95 1    
   186   94  215 1    
   187   95   96 1    
   188   95   97 1    
   189   95  216 1    
   190   96  217 1    
   191   96  218 1    
   192   96  219 1    
   193   97   98 2    
   194   97   99 am   BACKBONE|DICT|INTERRES
   195   99  100 1    
   196   99  220 1    
   197  100  101 1    
   198  100  102 1    
   199  100  221 1    
   200  101  222 1    
   201  101  223 1    
   202  101  224 1    
   203  102  103 2    
   204  102  104 am   BACKBONE|DICT|INTERRES
   205  104  105 1    
   206  104  225 1    
   207  105  106 1    
   208  105  107 1    
   209  105  226 1    
   210  106  227 1    
   211  106  228 1    
   212  106  229 1    
   213  107  108 2    
   214  107  109 am   BACKBONE|DICT|INTERRES
   215  109  110 1    
   216  109  230 1    
   217  110  111 1    
   218  110  112 1    
   219  110  231 1    
   220  111  232 1    
   221  111  233 1    
   222  111  234 1    
   223  112  113 2    
   224  112  114 am   BACKBONE|DICT|INTERRES
   225  114  115 1    
   226  114  235 1    
   227  115  116 1    
   228  115  117 1    
   229  115  236 1    
   230  116  237 1    
   231  116  238 1    
   232  116  239 1    
   233  117  118 2    
   234  117  119 am   BACKBONE|DICT|INTERRES
   235  119  120 1    
   236  119  240 1    
   237  120  121 1    
   238  120  124 1    
   239  120  241 1    
   240  121  122 am   BACKBONE|DICT|INTERRES
   241  121  123 2    
   242  122  242 1    
   243  122  243 1    
   244  124  125 1    
   245  124  244 1    
   246  124  245 1    
   247  125  126 1    
   248  126  246 1    
   249  126  247 1    
@<TRIPOS>SUBSTRUCTURE
     1 UNK         1 GROUP             0       ****    0 ROOT    
