@<TRIPOS>MOLECULE
3R540
247   249    1
SMALL
USER_CHARGES


@<TRIPOS>ATOM
      1 CA         -4.7307  -15.1944  -49.5536 C.3       0 UNK        -0.1800 
      2 C          -3.5067  -15.3903  -48.6702 C.2       0 UNK         0.5000 
      3 O          -3.3548  -16.4568  -48.0801 O.2       0 UNK        -0.5000 
      4 N          -2.6688  -14.3492  -48.5595 N.am      1 UNK        -0.5000 
      5 CA         -1.3734  -14.2264  -47.8617 C.3       1 UNK         0.1400 
      6 C6         -0.1851  -14.8935  -48.6059 C.3       23 UNK        -0.0398 
      7 S7         -0.0956  -16.7140  -48.5050 S.3       23 UNK        -0.2404 
      8 C8          0.5096  -17.1115  -50.1692 C.3       23 UNK        -0.0205 
      9 C9          0.7916  -18.5973  -50.3133 C.ar      23 UNK        -0.0193 
     10 C10        -0.1279  -19.4300  -50.9546 C.ar      23 UNK        -0.1150 
     11 C11         0.1411  -20.7913  -51.1172 C.ar      23 UNK        -0.0193 
     12 C12         1.3431  -21.3164  -50.6316 C.ar      23 UNK        -0.1150 
     13 C13         2.2727  -20.4940  -49.9873 C.ar      23 UNK        -0.0193 
     14 C14         1.9868  -19.1350  -49.8276 C.ar      23 UNK        -0.1150 
     15 C15         3.6107  -21.0508  -49.5137 C.3       23 UNK        -0.0205 
     16 S16         3.4581  -22.4868  -48.4024 S.3       23 UNK        -0.2404 
     17 C17         2.6672  -21.7502  -46.9327 C.3       23 UNK        -0.0398 
     18 CA          1.5133  -22.6279  -46.3927 C.3       11 UNK         0.1400 
     19 N           1.2059  -22.3248  -44.9921 N.am      11 UNK        -0.5000 
     20 C           0.3773  -23.0445  -44.2214 C.2       10 UNK         0.5000 
     21 O          -0.1948  -24.0660  -44.5978 O.2       10 UNK        -0.5000 
     22 CA          0.0988  -22.5084  -42.8073 C.3       10 UNK         0.1400 
     23 CB          1.2633  -22.8273  -41.8580 C.3       10 UNK        -0.1800 
     24 N          -0.1692  -21.0716  -42.7999 N.am      10 UNK        -0.5000 
     25 C          -1.2035  -20.4892  -43.4223 C.2       9 UNK         0.5000 
     26 O          -2.0763  -21.1106  -44.0282 O.2       9 UNK        -0.5000 
     27 CA         -1.2479  -18.9516  -43.3988 C.3       9 UNK         0.1400 
     28 CB         -1.7906  -18.4476  -42.0524 C.3       9 UNK        -0.1800 
     29 N           0.0540  -18.3380  -43.6713 N.am      9 UNK        -0.5000 
     30 C           0.7543  -18.5021  -44.8046 C.2       8 UNK         0.5000 
     31 O           0.3685  -19.1713  -45.7601 O.2       8 UNK        -0.5000 
     32 CA          2.1615  -17.8844  -44.8443 C.3       8 UNK         0.1400 
     33 CB          2.1104  -16.3788  -45.1493 C.3       8 UNK        -0.1800 
     34 N           2.8793  -18.1196  -43.5920 N.am      8 UNK        -0.5000 
     35 C           3.2899  -19.3265  -43.1745 C.2       7 UNK         0.5000 
     36 O           3.1588  -20.3595  -43.8319 O.2       7 UNK        -0.5000 
     37 CA          3.9063  -19.3941  -41.7650 C.3       7 UNK         0.1400 
     38 CB          5.3946  -19.0171  -41.8056 C.3       7 UNK        -0.1800 
     39 N           3.2115  -18.5269  -40.8118 N.am      7 UNK        -0.5000 
     40 C           1.9491  -18.7127  -40.3986 C.2       6 UNK         0.5000 
     41 O           1.2615  -19.6772  -40.7281 O.2       6 UNK        -0.5000 
     42 CA          1.3370  -17.6120  -39.5104 C.3       6 UNK         0.1400 
     43 CB          1.5917  -17.9125  -38.0262 C.3       6 UNK        -0.1800 
     44 N           1.8450  -16.2753  -39.8312 N.am      6 UNK        -0.5000 
     45 C           1.6418  -15.6486  -40.9970 C.2       5 UNK         0.5000 
     46 O           0.9659  -16.1136  -41.9182 O.2       5 UNK        -0.5000 
     47 CA          2.3968  -14.3295  -41.1920 C.3       5 UNK         0.1400 
     48 CB          3.8489  -14.6239  -41.6238 C.3       5 UNK        -0.1800 
     49 N           1.7214  -13.5210  -42.2024 N.am      5 UNK        -0.5000 
     50 C           1.9855  -12.2339  -42.4597 C.2       4 UNK         0.5000 
     51 O           2.8076  -11.5646  -41.8320 O.2       4 UNK        -0.5000 
     52 CA          1.2077  -11.5769  -43.6118 C.3       4 UNK         0.1400 
     53 CB          1.8734  -11.8986  -44.9594 C.3       4 UNK        -0.1800 
     54 N          -0.2009  -11.9726  -43.6474 N.am      4 UNK        -0.5000 
     55 C          -1.1319  -11.5011  -42.8027 C.2       3 UNK         0.5000 
     56 O          -0.8789  -10.7168  -41.8871 O.2       3 UNK        -0.5000 
     57 CA         -2.5956  -11.9414  -43.0178 C.3       3 UNK         0.1400 
     58 CB         -3.3939  -10.8247  -43.7087 C.3       3 UNK        -0.1800 
     59 N          -2.7286  -13.1653  -43.8054 N.am      3 UNK        -0.5000 
     60 C          -2.4356  -14.3926  -43.3592 C.2       2 UNK         0.5000 
     61 O          -2.1011  -14.6300  -42.1990 O.2       2 UNK        -0.5000 
     62 CA         -2.5106  -15.5451  -44.3812 C.3       2 UNK         0.1400 
     63 CB         -3.8212  -16.3293  -44.2131 C.3       2 UNK        -0.1800 
     64 N          -2.3844  -15.1465  -45.7861 N.am      2 UNK        -0.5000 
     65 C          -1.3496  -14.5031  -46.3383 C.2       1 UNK         0.5000 
     66 O          -0.4015  -14.0808  -45.6773 O.2       1 UNK        -0.5000 
     67 C           0.2565  -22.5560  -47.2857 C.2       11 UNK         0.5000 
     68 O          -0.0085  -23.4968  -48.0366 O.2       11 UNK        -0.5000 
     69 N          -0.5217  -21.4745  -47.1351 N.am      12 UNK        -0.5000 
     70 CA         -1.7938  -21.2448  -47.8164 C.3       12 UNK         0.1400 
     71 CB         -2.3549  -19.8735  -47.4102 C.3       12 UNK        -0.1800 
     72 C          -2.8267  -22.3517  -47.5544 C.2       12 UNK         0.5000 
     73 O          -3.4635  -22.8164  -48.4988 O.2       12 UNK        -0.5000 
     74 N          -2.9519  -22.7719  -46.2888 N.am      13 UNK        -0.5000 
     75 CA         -3.8266  -23.8628  -45.8650 C.3       13 UNK         0.1400 
     76 CB         -3.9317  -23.8663  -44.3323 C.3       13 UNK        -0.1800 
     77 C          -3.3657  -25.2380  -46.3819 C.2       13 UNK         0.5000 
     78 O          -4.2030  -26.0274  -46.8203 O.2       13 UNK        -0.5000 
     79 N          -2.0538  -25.5038  -46.3133 N.am      14 UNK        -0.5000 
     80 CA         -1.4457  -26.7748  -46.7037 C.3       14 UNK         0.1400 
     81 CB         -0.0034  -26.8450  -46.1773 C.3       14 UNK        -0.1800 
     82 C          -1.4812  -27.0233  -48.2202 C.2       14 UNK         0.5000 
     83 O          -1.9043  -28.0994  -48.6456 O.2       14 UNK        -0.5000 
     84 N          -1.0228  -26.0400  -49.0058 N.am      15 UNK        -0.5000 
     85 CA         -0.9238  -26.1521  -50.4625 C.3       15 UNK         0.1400 
     86 CB          0.2209  -25.2602  -50.9631 C.3       15 UNK        -0.1800 
     87 C          -2.2498  -25.8547  -51.1899 C.2       15 UNK         0.5000 
     88 O          -2.4364  -26.3540  -52.3008 O.2       15 UNK        -0.5000 
     89 N          -3.1473  -25.0952  -50.5407 N.am      16 UNK        -0.5000 
     90 CA         -4.4848  -24.6844  -50.9890 C.3       16 UNK         0.1400 
     91 CB         -5.3723  -25.9147  -51.2754 C.3       16 UNK        -0.1800 
     92 C          -4.4757  -23.6938  -52.1740 C.2       16 UNK         0.5000 
     93 O          -3.4332  -23.4276  -52.7716 O.2       16 UNK        -0.5000 
     94 N          -5.6624  -23.1472  -52.4813 N.am      17 UNK        -0.5000 
     95 CA         -5.9535  -22.2299  -53.5934 C.3       17 UNK         0.1400 
     96 CB         -5.7524  -22.9358  -54.9511 C.3       17 UNK        -0.1800 
     97 C          -5.2057  -20.8808  -53.5193 C.2       17 UNK         0.5000 
     98 O          -4.9681  -20.2519  -54.5518 O.2       17 UNK        -0.5000 
     99 N          -4.8637  -20.4304  -52.3038 N.am      18 UNK        -0.5000 
    100 CA        -4.1140  -19.1952  -52.0481 C.3       18 UNK         0.1400 
    101 CB        -3.8108  -19.0922  -50.5496 C.3       18 UNK        -0.1800 
    102 C         -4.8136  -17.9197  -52.5531 C.2       18 UNK         0.5000 
    103 O         -4.1364  -16.9909  -52.9926 O.2       18 UNK        -0.5000 
    104 N         -6.1539  -17.9236  -52.5473 N.am      19 UNK        -0.5000 
    105 CA        -7.0009  -16.8664  -53.1077 C.3       19 UNK         0.1400 
    106 CB        -8.4556  -17.1204  -52.6851 C.3       19 UNK        -0.1800 
    107 C         -6.8983  -16.7385  -54.6435 C.2       19 UNK         0.5000 
    108 O         -7.1935  -15.6704  -55.1798 O.2       19 UNK        -0.5000 
    109 N         -6.4611  -17.8119  -55.3164 N.am      20 UNK        -0.5000 
    110 CA        -6.1745  -17.8664  -56.7508 C.3       20 UNK         0.1400 
    111 CB        -6.7620  -19.1705  -57.3193 C.3       20 UNK        -0.1800 
    112 C         -4.6594  -17.7556  -57.0320 C.2       20 UNK         0.5000 
    113 O         -4.2283  -18.0705  -58.1416 O.2       20 UNK        -0.5000 
    114 N         -3.8837  -17.3128  -56.0293 N.am      21 UNK        -0.5000 
    115 CA        -2.4260  -17.1544  -56.0192 C.3       21 UNK         0.1400 
    116 CB        -1.9510  -16.1691  -57.1089 C.3       21 UNK        -0.1800 
    117 C         -1.6573  -18.4928  -56.0256 C.2       21 UNK         0.5000 
    118 O         -0.5166  -18.5384  -56.4903 O.2       21 UNK        -0.5000 
    119 N         -2.2700  -19.5429  -55.4611 N.am      22 UNK        -0.5000 
    120 CA        -1.7083  -20.8930  -55.3023 C.3       22 UNK         0.1400 
    121 C         -1.6066  -21.6953  -56.6363 C.2       22 UNK         0.5000 
    122 N         -0.9656  -22.8562  -56.6264 N.am      22 UNK        -0.7600 
    123 O         -2.1310  -21.3039  -57.6767 O.2       22 UNK        -0.5000 
    124 C124       -0.3920  -20.8854  -54.4661 C.3       23 UNK        -0.0398 
    125 S125       -0.2275  -22.3479  -53.3887 S.3       23 UNK        -0.2404 
    126 C126       -0.8665  -21.6943  -51.8131 C.3       23 UNK        -0.0205 
    127 H127       -4.7200  -15.9149  -50.3699 H         1 UNK         0.0600 
    128 H128       -4.7669  -14.1939  -49.9851 H         1 UNK         0.0600 
    129 H129       -5.6410  -15.3492  -48.9745 H         1 UNK         0.0600 
    130 H130       -2.9292  -13.5085  -49.0559 H         1 UNK         0.3000 
    131 H131       -1.1772  -13.1544  -47.9192 H         1 UNK         0.0600 
    132 H132        0.7570  -14.5012  -48.2187 H         1 UNK         0.0800 
    133 H133       -0.2117  -14.5940  -49.6543 H         1 UNK         0.0800 
    134 H134        1.4211  -16.5462  -50.3698 H         1 UNK         0.0800 
    135 H135       -0.2266  -16.7889  -50.9074 H         1 UNK         0.0800 
    136 H136       -1.0485  -19.0129  -51.3340 H         1 UNK         0.1150 
    137 H137        1.5611  -22.3663  -50.7651 H         1 UNK         0.1150 
    138 H138        2.6999  -18.4865  -49.3382 H         1 UNK         0.1150 
    139 H139        4.1878  -21.3499  -50.3895 H         1 UNK         0.0800 
    140 H140        4.1973  -20.2805  -49.0106 H         1 UNK         0.0800 
    141 H141        2.3260  -20.7344  -47.1402 H         1 UNK         0.0800 
    142 H142        3.4466  -21.6541  -46.1760 H         1 UNK         0.0800 
    143 H143        1.8530  -23.6660  -46.4045 H         1 UNK         0.0600 
    144 H144        1.6557  -21.5064  -44.5951 H         1 UNK         0.3000 
    145 H145       -0.7930  -23.0138  -42.4308 H         1 UNK         0.0600 
    146 H146        1.0336  -22.5213  -40.8372 H         1 UNK         0.0600 
    147 H147        2.1808  -22.3217  -42.1593 H         1 UNK         0.0600 
    148 H148        1.4688  -23.8982  -41.8384 H         1 UNK         0.0600 
    149 H149        0.4686  -20.4916  -42.2616 H         1 UNK         0.3000 
    150 H150       -1.9296  -18.6304  -44.1874 H         1 UNK         0.0600 
    151 H151       -2.8233  -18.7670  -41.9089 H         1 UNK         0.0600 
    152 H152       -1.7728  -17.3601  -41.9922 H         1 UNK         0.0600 
    153 H153       -1.2134  -18.8325  -41.2127 H         1 UNK         0.0600 
    154 H154        0.4392  -17.7390  -42.9478 H         1 UNK         0.3000 
    155 H155        2.7175  -18.3706  -45.6490 H         1 UNK         0.0600 
    156 H156        1.6583  -16.1981  -46.1243 H         1 UNK         0.0600 
    157 H157        3.1093  -15.9435  -45.1709 H         1 UNK         0.0600 
    158 H158        1.5204  -15.8286  -44.4176 H         1 UNK         0.0600 
    159 H159        2.9760  -17.3318  -42.9705 H         1 UNK         0.3000 
    160 H160        3.8231  -20.4245  -41.4128 H         1 UNK         0.0600 
    161 H161        5.5422  -17.9852  -42.1269 H         1 UNK         0.0600 
    162 H162        5.9401  -19.6584  -42.4992 H         1 UNK         0.0600 
    163 H163        5.8573  -19.1332  -40.8254 H         1 UNK         0.0600 
    164 H164        3.7128  -17.7168  -40.4801 H         1 UNK         0.3000 
    165 H165        0.2583  -17.6110  -39.6786 H         1 UNK         0.0600 
    166 H166        1.0984  -17.1814  -37.3855 H         1 UNK         0.0600 
    167 H167        1.2025  -18.8950  -37.7552 H         1 UNK         0.0600 
    168 H168        2.6562  -17.9042  -37.7890 H         1 UNK         0.0600 
    169 H169        2.4179  -15.8317  -39.1274 H         1 UNK         0.3000 
    170 H170        2.3945  -13.7853  -40.2453 H         1 UNK         0.0600 
    171 H171        3.8854  -15.1179  -42.5955 H         1 UNK         0.0600 
    172 H172        4.4407  -13.7116  -41.6940 H         1 UNK         0.0600 
    173 H173        4.3536  -15.2714  -40.9058 H         1 UNK         0.0600 
    174 H174        1.0044  -14.0075  -42.7265 H         1 UNK         0.3000 
    175 H175        1.2538  -10.4947  -43.4712 H         1 UNK         0.0600 
    176 H176        1.9289  -12.9730  -45.1381 H         1 UNK         0.0600 
    177 H177        1.3289  -11.4474  -45.7890 H         1 UNK         0.0600 
    178 H178        2.8928  -11.5122  -44.9898 H         1 UNK         0.0600 
    179 H179       -0.4614  -12.6495  -44.3586 H         1 UNK         0.3000 
    180 H180       -3.0343  -12.1144  -42.0328 H         1 UNK         0.0600 
    181 H181       -4.4459  -11.0935  -43.8061 H         1 UNK         0.0600 
    182 H182       -3.0068  -10.6114  -44.7059 H         1 UNK         0.0600 
    183 H183       -3.3489   -9.8985  -43.1341 H         1 UNK         0.0600 
    184 H184       -2.9982  -13.0611  -44.7723 H         1 UNK         0.3000 
    185 H185       -1.6720  -16.2067  -44.1660 H         1 UNK         0.0600 
    186 H186       -4.6878  -15.7149  -44.4598 H         1 UNK         0.0600 
    187 H187       -3.8414  -17.2085  -44.8575 H         1 UNK         0.0600 
    188 H188       -3.9466  -16.6746  -43.1863 H         1 UNK         0.0600 
    189 H189       -3.0617  -15.5392  -46.4326 H         1 UNK         0.3000 
    190 H190       -0.2106  -20.7276  -46.5164 H         1 UNK         0.3000 
    191 H191       -1.5943  -21.2303  -48.8881 H         1 UNK         0.0600 
    192 H192       -3.3522  -19.7104  -47.8179 H         1 UNK         0.0600 
    193 H193       -1.7192  -19.0678  -47.7751 H         1 UNK         0.0600 
    194 H194       -2.4317  -19.7713  -46.3287 H         1 UNK         0.0600 
    195 H195       -2.4233  -22.3002  -45.5603 H         1 UNK         0.3000 
    196 H196       -4.8221  -23.6721  -46.2712 H         1 UNK         0.0600 
    197 H197       -4.3421  -22.9259  -43.9641 H         1 UNK         0.0600 
    198 H198       -2.9582  -24.0113  -43.8623 H         1 UNK         0.0600 
    199 H199       -4.5877  -24.6660  -43.9862 H         1 UNK         0.0600 
    200 H200       -1.4321  -24.8148  -45.8989 H         1 UNK         0.3000 
    201 H201       -2.0121  -27.5766  -46.2253 H         1 UNK         0.0600 
    202 H202        0.0203  -26.7932  -45.0888 H         1 UNK         0.0600 
    203 H203        0.6073  -26.0281  -46.5641 H         1 UNK         0.0600 
    204 H204        0.4755  -27.7809  -46.4677 H         1 UNK         0.0600 
    205 H205       -0.6913  -25.1732  -48.5864 H         1 UNK         0.3000 
    206 H206       -0.6558  -27.1800  -50.7172 H         1 UNK         0.0600 
    207 H207        0.1206  -24.2400  -50.6022 H         1 UNK         0.0600 
    208 H208        1.1852  -25.6337  -50.6189 H         1 UNK         0.0600 
    209 H209        0.2533  -25.2277  -52.0529 H         1 UNK         0.0600 
    210 H210       -2.8708  -24.7042  -49.6494 H         1 UNK         0.3000 
    211 H211       -4.9294  -24.1561  -50.1457 H         1 UNK         0.0600 
    212 H212       -5.0655  -26.4379  -52.1813 H         1 UNK         0.0600 
    213 H213       -6.4158  -25.6279  -51.4074 H         1 UNK         0.0600 
    214 H214       -5.3380  -26.6253  -50.4493 H         1 UNK         0.0600 
    215 H215       -6.4627  -23.4070  -51.9215 H         1 UNK         0.3000 
    216 H216       -7.0128  -21.9834  -53.5102 H         1 UNK         0.0600 
    217 H217       -6.1241  -22.3220  -55.7723 H         1 UNK         0.0600 
    218 H218       -6.2909  -23.8826  -54.9877 H         1 UNK         0.0600 
    219 H219       -4.6997  -23.1402  -55.1496 H         1 UNK         0.0600 
    220 H220       -5.0932  -20.9990  -51.5019 H         1 UNK         0.3000 
    221 H221       -3.1661  -19.2715  -52.5837 H         1 UNK         0.0600 
    222 H222       -4.7223  -19.0174  -49.9553 H         1 UNK         0.0600 
    223 H223       -3.2560  -19.9650  -50.2082 H         1 UNK         0.0600 
    224 H224       -3.2023  -18.2140  -50.3292 H         1 UNK         0.0600 
    225 H225       -6.6280  -18.7319  -52.1721 H         1 UNK         0.3000 
    226 H226       -6.6801  -15.9149  -52.6782 H         1 UNK         0.0600 
    227 H227       -8.5544  -17.1359  -51.5995 H         1 UNK         0.0600 
    228 H228       -9.1141  -16.3349  -53.0583 H         1 UNK         0.0600 
    229 H229       -8.8265  -18.0707  -53.0711 H         1 UNK         0.0600 
    230 H230       -6.1931  -18.6404  -54.7972 H         1 UNK         0.3000 
    231 H231       -6.6561  -17.0307  -57.2620 H         1 UNK         0.0600 
    232 H232       -6.6562  -19.2090  -58.4040 H         1 UNK         0.0600 
    233 H233       -7.8255  -19.2547  -57.0959 H         1 UNK         0.0600 
    234 H234       -6.2624  -20.0491  -56.9108 H         1 UNK         0.0600 
    235 H235       -4.3340  -17.0931  -55.1492 H         1 UNK         0.3000 
    236 H236       -2.1942  -16.6956  -55.0570 H         1 UNK         0.0600 
    237 H237       -2.0492  -16.5897  -58.1098 H         1 UNK         0.0600 
    238 H238       -2.5191  -15.2395  -57.0762 H         1 UNK         0.0600 
    239 H239       -0.9009  -15.9106  -56.9689 H         1 UNK         0.0600 
    240 H240       -3.2415  -19.4526  -55.1842 H         1 UNK         0.3000 
    241 H241       -2.4688  -21.4195  -54.7253 H         1 UNK         0.0600 
    242 H242       -0.5520  -23.2083  -55.7753 H         1 UNK         0.3800 
    243 H243       -0.9023  -23.3953  -57.4758 H         1 UNK         0.3800 
    244 H244       -0.3450  -19.9980  -53.8344 H         1 UNK         0.0800 
    245 H245        0.4839  -20.8193  -55.1136 H         1 UNK         0.0800 
    246 H246       -1.8023  -21.1690  -52.0029 H         1 UNK         0.0800 
    247 H247       -1.1294  -22.5193  -51.1528 H         1 UNK         0.0800 
@<TRIPOS>BOND
     1    1    2 1    
     2    1  127 1    
     3    1  128 1    
     4    1  129 1    
     5    2    3 2    
     6    2    4 am   BACKBONE|DICT|INTERRES
     7    4    5 1    
     8    4  130 1    
     9    5    6 1    
    10    5   65 1    
    11    5  131 1    
    12    6    7 1    
    13    6  132 1    
    14    6  133 1    
    15    7    8 1    
    16    8    9 1    
    17    8  134 1    
    18    8  135 1    
    19    9   10 ar   
    20    9   14 ar   
    21   10   11 ar   
    22   10  136 1    
    23   11   12 ar   
    24   11  126 1    
    25   12   13 ar   
    26   12  137 1    
    27   13   14 ar   
    28   13   15 1    
    29   14  138 1    
    30   15   16 1    
    31   15  139 1    
    32   15  140 1    
    33   16   17 1    
    34   17   18 1    
    35   17  141 1    
    36   17  142 1    
    37   18   19 1    
    38   18   67 1    
    39   18  143 1    
    40   19   20 am   BACKBONE|DICT|INTERRES
    41   19  144 1    
    42   20   21 2    
    43   20   22 1    
    44   22   23 1    
    45   22   24 1    
    46   22  145 1    
    47   23  146 1    
    48   23  147 1    
    49   23  148 1    
    50   24   25 am   BACKBONE|DICT|INTERRES
    51   24  149 1    
    52   25   26 2    
    53   25   27 1    
    54   27   28 1    
    55   27   29 1    
    56   27  150 1    
    57   28  151 1    
    58   28  152 1    
    59   28  153 1    
    60   29   30 am   BACKBONE|DICT|INTERRES
    61   29  154 1    
    62   30   31 2    
    63   30   32 1    
    64   32   33 1    
    65   32   34 1    
    66   32  155 1    
    67   33  156 1    
    68   33  157 1    
    69   33  158 1    
    70   34   35 am   BACKBONE|DICT|INTERRES
    71   34  159 1    
    72   35   36 2    
    73   35   37 1    
    74   37   38 1    
    75   37   39 1    
    76   37  160 1    
    77   38  161 1    
    78   38  162 1    
    79   38  163 1    
    80   39   40 am   BACKBONE|DICT|INTERRES
    81   39  164 1    
    82   40   41 2    
    83   40   42 1    
    84   42   43 1    
    85   42   44 1    
    86   42  165 1    
    87   43  166 1    
    88   43  167 1    
    89   43  168 1    
    90   44   45 am   BACKBONE|DICT|INTERRES
    91   44  169 1    
    92   45   46 2    
    93   45   47 1    
    94   47   48 1    
    95   47   49 1    
    96   47  170 1    
    97   48  171 1    
    98   48  172 1    
    99   48  173 1    
   100   49   50 am   BACKBONE|DICT|INTERRES
   101   49  174 1    
   102   50   51 2    
   103   50   52 1    
   104   52   53 1    
   105   52   54 1    
   106   52  175 1    
   107   53  176 1    
   108   53  177 1    
   109   53  178 1    
   110   54   55 am   BACKBONE|DICT|INTERRES
   111   54  179 1    
   112   55   56 2    
   113   55   57 1    
   114   57   58 1    
   115   57   59 1    
   116   57  180 1    
   117   58  181 1    
   118   58  182 1    
   119   58  183 1    
   120   59   60 am   BACKBONE|DICT|INTERRES
   121   59  184 1    
   122   60   61 2    
   123   60   62 1    
   124   62   63 1    
   125   62   64 1    
   126   62  185 1    
   127   63  186 1    
   128   63  187 1    
   129   63  188 1    
   130   64   65 am   BACKBONE|DICT|INTERRES
   131   64  189 1    
   132   65   66 2    
   133   67   68 2    
   134   67   69 am   BACKBONE|DICT|INTERRES
   135   69   70 1    
   136   69  190 1    
   137   70   71 1    
   138   70   72 1    
   139   70  191 1    
   140   71  192 1    
   141   71  193 1    
   142   71  194 1    
   143   72   73 2    
   144   72   74 am   BACKBONE|DICT|INTERRES
   145   74   75 1    
   146   74  195 1    
   147   75   76 1    
   148   75   77 1    
   149   75  196 1    
   150   76  197 1    
   151   76  198 1    
   152   76  199 1    
   153   77   78 2    
   154   77   79 am   BACKBONE|DICT|INTERRES
   155   79   80 1    
   156   79  200 1    
   157   80   81 1    
   158   80   82 1    
   159   80  201 1    
   160   81  202 1    
   161   81  203 1    
   162   81  204 1    
   163   82   83 2    
   164   82   84 am   BACKBONE|DICT|INTERRES
   165   84   85 1    
   166   84  205 1    
   167   85   86 1    
   168   85   87 1    
   169   85  206 1    
   170   86  207 1    
   171   86  208 1    
   172   86  209 1    
   173   87   88 2    
   174   87   89 am   BACKBONE|DICT|INTERRES
   175   89   90 1    
   176   89  210 1    
   177   90   91 1    
   178   90   92 1    
   179   90  211 1    
   180   91  212 1    
   181   91  213 1    
   182   91  214 1    
   183   92   93 2    
   184   92   94 am   BACKBONE|DICT|INTERRES
   185   94   95 1    
   186   94  215 1    
   187   95   96 1    
   188   95   97 1    
   189   95  216 1    
   190   96  217 1    
   191   96  218 1    
   192   96  219 1    
   193   97   98 2    
   194   97   99 am   BACKBONE|DICT|INTERRES
   195   99  100 1    
   196   99  220 1    
   197  100  101 1    
   198  100  102 1    
   199  100  221 1    
   200  101  222 1    
   201  101  223 1    
   202  101  224 1    
   203  102  103 2    
   204  102  104 am   BACKBONE|DICT|INTERRES
   205  104  105 1    
   206  104  225 1    
   207  105  106 1    
   208  105  107 1    
   209  105  226 1    
   210  106  227 1    
   211  106  228 1    
   212  106  229 1    
   213  107  108 2    
   214  107  109 am   BACKBONE|DICT|INTERRES
   215  109  110 1    
   216  109  230 1    
   217  110  111 1    
   218  110  112 1    
   219  110  231 1    
   220  111  232 1    
   221  111  233 1    
   222  111  234 1    
   223  112  113 2    
   224  112  114 am   BACKBONE|DICT|INTERRES
   225  114  115 1    
   226  114  235 1    
   227  115  116 1    
   228  115  117 1    
   229  115  236 1    
   230  116  237 1    
   231  116  238 1    
   232  116  239 1    
   233  117  118 2    
   234  117  119 am   BACKBONE|DICT|INTERRES
   235  119  120 1    
   236  119  240 1    
   237  120  121 1    
   238  120  124 1    
   239  120  241 1    
   240  121  122 am   BACKBONE|DICT|INTERRES
   241  121  123 2    
   242  122  242 1    
   243  122  243 1    
   244  124  125 1    
   245  124  244 1    
   246  124  245 1    
   247  125  126 1    
   248  126  246 1    
   249  126  247 1    
@<TRIPOS>SUBSTRUCTURE
     1 UNK         1 GROUP             0       ****    0 ROOT    
