@<TRIPOS>MOLECULE
3R540
247   249    1
SMALL
USER_CHARGES


@<TRIPOS>ATOM
      1 CA          3.5322  -10.0108  -47.9719 C.3       0 UNK        -0.1800 
      2 C           2.9996  -11.3778  -47.5673 C.2       0 UNK         0.5000 
      3 O           3.3078  -11.8588  -46.4760 O.2       0 UNK        -0.5000 
      4 N           2.1978  -12.0053  -48.4368 N.am      1 UNK        -0.5000 
      5 CA          1.5815  -13.3192  -48.2257 C.3       1 UNK         0.1400 
      6 C6          1.2497  -14.0277  -49.5630 C.3       23 UNK        -0.0398 
      7 S7          2.7541  -14.5611  -50.4428 S.3       23 UNK        -0.2404 
      8 C8          2.0593  -15.1447  -52.0205 C.3       23 UNK        -0.0205 
      9 C9          1.0946  -16.3105  -51.8449 C.ar      23 UNK        -0.0193 
     10 C10        -0.2840  -16.0965  -51.9297 C.ar      23 UNK        -0.1150 
     11 C11        -1.1742  -17.1677  -51.8253 C.ar      23 UNK        -0.0193 
     12 C12        -0.6766  -18.4562  -51.6176 C.ar      23 UNK        -0.1150 
     13 C13         0.6998  -18.6912  -51.5258 C.ar      23 UNK        -0.0193 
     14 C14         1.5780  -17.6074  -51.6399 C.ar      23 UNK        -0.1150 
     15 C15         1.2721  -20.1027  -51.3811 C.3       23 UNK        -0.0205 
     16 S16         0.1575  -21.3273  -50.6028 S.3       23 UNK        -0.2404 
     17 C17         0.2272  -20.7998  -48.8632 C.3       23 UNK        -0.0398 
     18 CA         -0.3417  -21.8712  -47.8948 C.3       11 UNK         0.1400 
     19 N           0.3983  -21.9091  -46.6331 N.am      11 UNK        -0.5000 
     20 C           0.4004  -22.9320  -45.7680 C.2       10 UNK         0.5000 
     21 O          -0.1588  -24.0075  -45.9795 O.2       10 UNK        -0.5000 
     22 CA          1.1326  -22.7044  -44.4299 C.3       10 UNK         0.1400 
     23 CB          2.5780  -23.2162  -44.5132 C.3       10 UNK        -0.1800 
     24 N           1.1451  -21.2966  -44.0248 N.am      10 UNK        -0.5000 
     25 C           0.0615  -20.6179  -43.6178 C.2       9 UNK         0.5000 
     26 O          -1.0477  -21.1303  -43.4806 O.2       9 UNK        -0.5000 
     27 CA          0.2276  -19.1012  -43.4022 C.3       9 UNK         0.1400 
     28 CB          0.6684  -18.8054  -41.9628 C.3       9 UNK        -0.1800 
     29 N           1.1751  -18.4977  -44.3419 N.am      9 UNK        -0.5000 
     30 C           1.0173  -18.5016  -45.6747 C.2       8 UNK         0.5000 
     31 O           0.0075  -18.9386  -46.2255 O.2       8 UNK        -0.5000 
     32 CA          2.1809  -18.0110  -46.5587 C.3       8 UNK         0.1400 
     33 CB          1.7931  -16.7314  -47.3033 C.3       8 UNK        -0.1800 
     34 N           3.4325  -17.7862  -45.8376 N.am      8 UNK        -0.5000 
     35 C           4.1894  -18.7411  -45.2800 C.2       7 UNK         0.5000 
     36 O           3.9309  -19.9433  -45.3495 O.2       7 UNK        -0.5000 
     37 CA          5.4039  -18.2615  -44.4589 C.3       7 UNK         0.1400 
     38 CB          6.6751  -18.2795  -45.3207 C.3       7 UNK        -0.1800 
     39 N           5.2328  -16.9220  -43.8786 N.am      7 UNK        -0.5000 
     40 C           4.2844  -16.5932  -42.9912 C.2       6 UNK         0.5000 
     41 O           3.4368  -17.3872  -42.5752 O.2       6 UNK        -0.5000 
     42 CA          4.2466  -15.1322  -42.5259 C.3       6 UNK         0.1400 
     43 CB          3.5827  -14.2365  -43.5879 C.3       6 UNK        -0.1800 
     44 N           3.4875  -15.0742  -41.2823 N.am      6 UNK        -0.5000 
     45 C           3.5786  -14.1289  -40.3417 C.2       5 UNK         0.5000 
     46 O           4.3258  -13.1527  -40.4320 O.2       5 UNK        -0.5000 
     47 CA          2.7015  -14.3245  -39.0826 C.3       5 UNK         0.1400 
     48 CB          2.4593  -13.0100  -38.3102 C.3       5 UNK        -0.1800 
     49 N           1.4301  -15.0175  -39.3422 N.am      5 UNK        -0.5000 
     50 C           0.4368  -14.5977  -40.1384 C.2       4 UNK         0.5000 
     51 O           0.4579  -13.5447  -40.7806 O.2       4 UNK        -0.5000 
     52 CA         -0.7993  -15.5030  -40.2217 C.3       4 UNK         0.1400 
     53 CB         -1.7997  -15.1865  -39.0977 C.3       4 UNK        -0.1800 
     54 N          -1.4272  -15.2820  -41.5170 N.am      4 UNK        -0.5000 
     55 C          -2.1068  -16.1846  -42.2304 C.2       3 UNK         0.5000 
     56 O          -2.3687  -17.3153  -41.8205 O.2       3 UNK        -0.5000 
     57 CA         -2.5803  -15.7646  -43.6382 C.3       3 UNK         0.1400 
     58 CB         -4.1146  -15.6998  -43.6993 C.3       3 UNK        -0.1800 
     59 N          -2.0349  -14.4804  -44.0927 N.am      3 UNK        -0.5000 
     60 C          -0.7854  -14.3030  -44.5388 C.2       2 UNK         0.5000 
     61 O           0.0543  -15.2034  -44.5888 O.2       2 UNK        -0.5000 
     62 CA         -0.4083  -12.8710  -44.9647 C.3       2 UNK         0.1400 
     63 CB          0.1471  -12.0773  -43.7734 C.3       2 UNK        -0.1800 
     64 N           0.5918  -12.8805  -46.0291 N.am      2 UNK        -0.5000 
     65 C           0.3483  -13.2096  -47.3022 C.2       1 UNK         0.5000 
     66 O          -0.7840  -13.4066  -47.7475 O.2       1 UNK        -0.5000 
     67 C          -1.8448  -21.6688  -47.6175 C.2       11 UNK         0.5000 
     68 O          -2.6715  -22.4218  -48.1293 O.2       11 UNK        -0.5000 
     69 N          -2.1682  -20.6960  -46.7524 N.am      12 UNK        -0.5000 
     70 CA         -3.5249  -20.4009  -46.2872 C.3       12 UNK         0.1400 
     71 CB         -3.5031  -19.1367  -45.4158 C.3       12 UNK        -0.1800 
     72 C          -4.1787  -21.5765  -45.5346 C.2       12 UNK         0.5000 
     73 O          -5.3781  -21.8051  -45.6939 O.2       12 UNK        -0.5000 
     74 N          -3.3746  -22.3330  -44.7741 N.am      13 UNK        -0.5000 
     75 CA         -3.7818  -23.5546  -44.0766 C.3       13 UNK         0.1400 
     76 CB         -2.6354  -24.0376  -43.1760 C.3       13 UNK        -0.1800 
     77 C          -4.2427  -24.6885  -45.0144 C.2       13 UNK         0.5000 
     78 O          -5.0491  -25.5197  -44.5944 O.2       13 UNK        -0.5000 
     79 N          -3.7785  -24.6918  -46.2731 N.am      14 UNK        -0.5000 
     80 CA         -4.2013  -25.6214  -47.3230 C.3       14 UNK         0.1400 
     81 CB         -3.0665  -25.7808  -48.3514 C.3       14 UNK        -0.1800 
     82 C          -5.5324  -25.1714  -47.9625 C.2       14 UNK         0.5000 
     83 O          -5.6033  -24.9766  -49.1775 O.2       14 UNK        -0.5000 
     84 N          -6.5568  -24.9936  -47.1150 N.am      15 UNK        -0.5000 
     85 CA         -7.9352  -24.6069  -47.4329 C.3       15 UNK         0.1400 
     86 CB         -8.6732  -25.7887  -48.0943 C.3       15 UNK        -0.1800 
     87 C          -8.0293  -23.2955  -48.2420 C.2       15 UNK         0.5000 
     88 O          -8.6926  -23.2539  -49.2791 O.2       15 UNK        -0.5000 
     89 N          -7.3388  -22.2544  -47.7517 N.am      16 UNK        -0.5000 
     90 CA         -7.1869  -20.9296  -48.3646 C.3       16 UNK         0.1400 
     91 CB         -8.5407  -20.1933  -48.4566 C.3       16 UNK        -0.1800 
     92 C          -6.4248  -20.9889  -49.7049 C.2       16 UNK         0.5000 
     93 O          -6.7918  -20.2962  -50.6552 O.2       16 UNK        -0.5000 
     94 N          -5.3748  -21.8244  -49.7388 N.am      17 UNK        -0.5000 
     95 CA         -4.5094  -22.1278  -50.8811 C.3       17 UNK         0.1400 
     96 CB         -3.6640  -20.8999  -51.2708 C.3       17 UNK        -0.1800 
     97 C          -5.2982  -22.7282  -52.0607 C.2       17 UNK         0.5000 
     98 O          -5.2244  -22.2280  -53.1854 O.2       17 UNK        -0.5000 
     99 N          -6.0345  -23.8129  -51.7782 N.am      18 UNK        -0.5000 
    100 CA        -6.9173  -24.5238  -52.7124 C.3       18 UNK         0.1400 
    101 CB        -7.6755  -25.6191  -51.9492 C.3       18 UNK        -0.1800 
    102 C         -6.2124  -25.1163  -53.9504 C.2       18 UNK         0.5000 
    103 O         -6.8751  -25.3956  -54.9501 O.2       18 UNK        -0.5000 
    104 N         -4.8829  -25.2639  -53.8786 N.am      19 UNK        -0.5000 
    105 CA        -4.0043  -25.6235  -54.9922 C.3       19 UNK         0.1400 
    106 CB        -2.6245  -25.9882  -54.4203 C.3       19 UNK        -0.1800 
    107 C         -3.8645  -24.5165  -56.0622 C.2       19 UNK         0.5000 
    108 O         -3.3293  -24.7977  -57.1351 O.2       19 UNK        -0.5000 
    109 N         -4.3205  -23.2897  -55.7538 N.am      20 UNK        -0.5000 
    110 CA        -4.2297  -22.0720  -56.5688 C.3       20 UNK         0.1400 
    111 CB        -5.0264  -22.2114  -57.8831 C.3       20 UNK        -0.1800 
    112 C         -2.7683  -21.6256  -56.7780 C.2       20 UNK         0.5000 
    113 O         -2.3860  -21.2076  -57.8720 O.2       20 UNK        -0.5000 
    114 N         -1.9751  -21.7380  -55.7050 N.am      21 UNK        -0.5000 
    115 CA        -0.5439  -21.4345  -55.6687 C.3       21 UNK         0.1400 
    116 CB         0.0691  -22.1796  -54.4724 C.3       21 UNK        -0.1800 
    117 C         -0.2218  -19.9269  -55.5963 C.2       21 UNK         0.5000 
    118 O          0.9480  -19.5610  -55.7202 O.2       21 UNK        -0.5000 
    119 N         -1.2429  -19.0900  -55.3721 N.am      22 UNK        -0.5000 
    120 CA        -1.1431  -17.6299  -55.2330 C.3       22 UNK         0.1400 
    121 C         -0.5818  -16.9201  -56.4969 C.2       22 UNK         0.5000 
    122 N          0.2575  -15.9072  -56.3274 N.am      22 UNK        -0.7600 
    123 O         -0.9393  -17.2462  -57.6266 O.2       22 UNK        -0.5000 
    124 C124       -2.4977  -16.9884  -54.8232 C.3       23 UNK        -0.0398 
    125 S125       -3.3418  -17.8232  -53.4333 S.3       23 UNK        -0.2404 
    126 C126       -2.6713  -16.9460  -51.9822 C.3       23 UNK        -0.0205 
    127 H127        4.6220  -10.0236  -47.9893 H         1 UNK         0.0600 
    128 H128        3.1795   -9.7140  -48.9599 H         1 UNK         0.0600 
    129 H129        3.2103   -9.2560  -47.2544 H         1 UNK         0.0600 
    130 H130        1.9701  -11.5533  -49.3107 H         1 UNK         0.3000 
    131 H131        2.3044  -13.9443  -47.6987 H         1 UNK         0.0600 
    132 H132        0.6473  -14.9202  -49.3858 H         1 UNK         0.0800 
    133 H133        0.6563  -13.3800  -50.2105 H         1 UNK         0.0800 
    134 H134        2.8788  -15.4509  -52.6722 H         1 UNK         0.0800 
    135 H135        1.5681  -14.3111  -52.5249 H         1 UNK         0.0800 
    136 H136       -0.6626  -15.0985  -52.1004 H         1 UNK         0.1150 
    137 H137       -1.3732  -19.2782  -51.5687 H         1 UNK         0.1150 
    138 H138        2.6451  -17.7734  -51.5899 H         1 UNK         0.1150 
    139 H139        1.5272  -20.4607  -52.3788 H         1 UNK         0.0800 
    140 H140        2.2078  -20.0716  -50.8210 H         1 UNK         0.0800 
    141 H141       -0.2718  -19.8342  -48.7590 H         1 UNK         0.0800 
    142 H142        1.2774  -20.6151  -48.6342 H         1 UNK         0.0800 
    143 H143       -0.2259  -22.8541  -48.3575 H         1 UNK         0.0600 
    144 H144        0.8332  -21.0447  -46.3464 H         1 UNK         0.3000 
    145 H145        0.6100  -23.2782  -43.6619 H         1 UNK         0.0600 
    146 H146        3.0893  -23.1121  -43.5561 H         1 UNK         0.0600 
    147 H147        2.6031  -24.2731  -44.7819 H         1 UNK         0.0600 
    148 H148        3.1550  -22.6728  -45.2626 H         1 UNK         0.0600 
    149 H149        2.0192  -20.7992  -44.1373 H         1 UNK         0.3000 
    150 H150       -0.7434  -18.6334  -43.5691 H         1 UNK         0.0600 
    151 H151       -0.0715  -19.1662  -41.2473 H         1 UNK         0.0600 
    152 H152        0.7823  -17.7337  -41.8028 H         1 UNK         0.0600 
    153 H153        1.6198  -19.2829  -41.7253 H         1 UNK         0.0600 
    154 H154        2.0212  -18.1089  -43.9413 H         1 UNK         0.3000 
    155 H155        2.3625  -18.7882  -47.3034 H         1 UNK         0.0600 
    156 H156        1.6248  -15.9108  -46.6073 H         1 UNK         0.0600 
    157 H157        0.8766  -16.8727  -47.8780 H         1 UNK         0.0600 
    158 H158        2.5735  -16.4343  -48.0034 H         1 UNK         0.0600 
    159 H159        3.7153  -16.8257  -45.7138 H         1 UNK         0.3000 
    160 H160        5.5379  -18.9666  -43.6358 H         1 UNK         0.0600 
    161 H161        7.5563  -18.0283  -44.7301 H         1 UNK         0.0600 
    162 H162        6.6108  -17.5715  -46.1480 H         1 UNK         0.0600 
    163 H163        6.8436  -19.2691  -45.7478 H         1 UNK         0.0600 
    164 H164        5.8904  -16.2163  -44.1783 H         1 UNK         0.3000 
    165 H165        5.2704  -14.7990  -42.3441 H         1 UNK         0.0600 
    166 H166        2.5613  -14.5561  -43.7965 H         1 UNK         0.0600 
    167 H167        4.1335  -14.2602  -44.5289 H         1 UNK         0.0600 
    168 H168        3.5462  -13.1965  -43.2637 H         1 UNK         0.0600 
    169 H169        2.8904  -15.8774  -41.1302 H         1 UNK         0.3000 
    170 H170        3.2729  -14.9829  -38.4269 H         1 UNK         0.0600 
    171 H171        3.4008  -12.5713  -37.9779 H         1 UNK         0.0600 
    172 H172        1.9523  -12.2659  -38.9251 H         1 UNK         0.0600 
    173 H173        1.8521  -13.1809  -37.4213 H         1 UNK         0.0600 
    174 H174        1.3151  -15.8971  -38.8576 H         1 UNK         0.3000 
    175 H175       -0.4778  -16.5429  -40.1395 H         1 UNK         0.0600 
    176 H176       -2.1444  -14.1528  -39.1471 H         1 UNK         0.0600 
    177 H177       -2.6747  -15.8342  -39.1547 H         1 UNK         0.0600 
    178 H178       -1.3474  -15.3367  -38.1168 H         1 UNK         0.0600 
    179 H179       -1.2035  -14.3880  -41.9349 H         1 UNK         0.3000 
    180 H180       -2.2473  -16.5418  -44.3293 H         1 UNK         0.0600 
    181 H181       -4.5118  -14.9343  -43.0316 H         1 UNK         0.0600 
    182 H182       -4.5592  -16.6525  -43.4080 H         1 UNK         0.0600 
    183 H183       -4.4602  -15.4796  -44.7095 H         1 UNK         0.0600 
    184 H184       -2.6653  -13.6916  -44.0646 H         1 UNK         0.3000 
    185 H185       -1.3029  -12.3644  -45.3330 H         1 UNK         0.0600 
    186 H186       -0.5883  -12.0078  -42.9710 H         1 UNK         0.0600 
    187 H187        1.0401  -12.5456  -43.3581 H         1 UNK         0.0600 
    188 H188        0.4074  -11.0592  -44.0634 H         1 UNK         0.0600 
    189 H189        1.5529  -12.7010  -45.7605 H         1 UNK         0.3000 
    190 H190       -1.4255  -20.0942  -46.4038 H         1 UNK         0.3000 
    191 H191       -4.1324  -20.1951  -47.1703 H         1 UNK         0.0600 
    192 H192       -2.9109  -19.2804  -44.5118 H         1 UNK         0.0600 
    193 H193       -4.5112  -18.8585  -45.1060 H         1 UNK         0.0600 
    194 H194       -3.0843  -18.2903  -45.9605 H         1 UNK         0.0600 
    195 H195       -2.4207  -22.0223  -44.6212 H         1 UNK         0.3000 
    196 H196       -4.6295  -23.2996  -43.4375 H         1 UNK         0.0600 
    197 H197       -2.9213  -24.9349  -42.6257 H         1 UNK         0.0600 
    198 H198       -2.3647  -23.2808  -42.4399 H         1 UNK         0.0600 
    199 H199       -1.7444  -24.2789  -43.7553 H         1 UNK         0.0600 
    200 H200       -3.1635  -23.9431  -46.5672 H         1 UNK         0.3000 
    201 H201       -4.3743  -26.6035  -46.8781 H         1 UNK         0.0600 
    202 H202       -2.1344  -26.0757  -47.8690 H         1 UNK         0.0600 
    203 H203       -2.8805  -24.8597  -48.9025 H         1 UNK         0.0600 
    204 H204       -3.3124  -26.5512  -49.0830 H         1 UNK         0.0600 
    205 H205       -6.3636  -25.1609  -46.1332 H         1 UNK         0.3000 
    206 H206       -8.4281  -24.4066  -46.4805 H         1 UNK         0.0600 
    207 H207       -8.6858  -26.6581  -47.4371 H         1 UNK         0.0600 
    208 H208       -9.7110  -25.5351  -48.3135 H         1 UNK         0.0600 
    209 H209       -8.2009  -26.0884  -49.0290 H         1 UNK         0.0600 
    210 H210       -6.7965  -22.3858  -46.9018 H         1 UNK         0.3000 
    211 H211       -6.5573  -20.3517  -47.6877 H         1 UNK         0.0600 
    212 H212       -9.2124  -20.6602  -49.1771 H         1 UNK         0.0600 
    213 H213       -8.3993  -19.1581  -48.7690 H         1 UNK         0.0600 
    214 H214       -9.0449  -20.1735  -47.4905 H         1 UNK         0.0600 
    215 H215       -5.1755  -22.3639  -48.9080 H         1 UNK         0.3000 
    216 H216       -3.8207  -22.9054  -50.5480 H         1 UNK         0.0600 
    217 H217       -4.2824  -20.0823  -51.6407 H         1 UNK         0.0600 
    218 H218       -2.9487  -21.1505  -52.0550 H         1 UNK         0.0600 
    219 H219       -3.0956  -20.5307  -50.4173 H         1 UNK         0.0600 
    220 H220       -6.0061  -24.1758  -50.8269 H         1 UNK         0.3000 
    221 H221       -7.6473  -23.8010  -53.0817 H         1 UNK         0.0600 
    222 H222       -6.9929  -26.3138  -51.4581 H         1 UNK         0.0600 
    223 H223       -8.3207  -25.1830  -51.1878 H         1 UNK         0.0600 
    224 H224       -8.3147  -26.1985  -52.6167 H         1 UNK         0.0600 
    225 H225       -4.4329  -25.0232  -53.0081 H         1 UNK         0.3000 
    226 H226       -4.4186  -26.5052  -55.4852 H         1 UNK         0.0600 
    227 H227       -2.6964  -26.8106  -53.7084 H         1 UNK         0.0600 
    228 H228       -1.9433  -26.3051  -55.2112 H         1 UNK         0.0600 
    229 H229       -2.1632  -25.1409  -53.9110 H         1 UNK         0.0600 
    230 H230       -4.7266  -23.1484  -54.8329 H         1 UNK         0.3000 
    231 H231       -4.7049  -21.2831  -55.9837 H         1 UNK         0.0600 
    232 H232       -6.0505  -22.5308  -57.6902 H         1 UNK         0.0600 
    233 H233       -4.5719  -22.9326  -58.5626 H         1 UNK         0.0600 
    234 H234       -5.0777  -21.2575  -58.4091 H         1 UNK         0.0600 
    235 H235       -2.3809  -22.0894  -54.8502 H         1 UNK         0.3000 
    236 H236       -0.0843  -21.8194  -56.5814 H         1 UNK         0.0600 
    237 H237        1.1445  -22.0091  -54.4097 H         1 UNK         0.0600 
    238 H238       -0.3726  -21.8517  -53.5311 H         1 UNK         0.0600 
    239 H239       -0.0826  -23.2558  -54.5572 H         1 UNK         0.0600 
    240 H240       -2.1679  -19.4790  -55.2757 H         1 UNK         0.3000 
    241 H241       -0.4278  -17.4587  -54.4290 H         1 UNK         0.0600 
    242 H242        0.5609  -15.6186  -55.4106 H         1 UNK         0.3800 
    243 H243        0.6149  -15.4277  -57.1393 H         1 UNK         0.3800 
    244 H244       -2.3574  -15.9364  -54.5690 H         1 UNK         0.0800 
    245 H245       -3.1884  -17.0024  -55.6684 H         1 UNK         0.0800 
    246 H246       -2.9070  -15.8837  -52.0608 H         1 UNK         0.0800 
    247 H247       -3.1776  -17.3094  -51.0869 H         1 UNK         0.0800 
@<TRIPOS>BOND
     1    1    2 1    
     2    1  127 1    
     3    1  128 1    
     4    1  129 1    
     5    2    3 2    
     6    2    4 am   BACKBONE|DICT|INTERRES
     7    4    5 1    
     8    4  130 1    
     9    5    6 1    
    10    5   65 1    
    11    5  131 1    
    12    6    7 1    
    13    6  132 1    
    14    6  133 1    
    15    7    8 1    
    16    8    9 1    
    17    8  134 1    
    18    8  135 1    
    19    9   10 ar   
    20    9   14 ar   
    21   10   11 ar   
    22   10  136 1    
    23   11   12 ar   
    24   11  126 1    
    25   12   13 ar   
    26   12  137 1    
    27   13   14 ar   
    28   13   15 1    
    29   14  138 1    
    30   15   16 1    
    31   15  139 1    
    32   15  140 1    
    33   16   17 1    
    34   17   18 1    
    35   17  141 1    
    36   17  142 1    
    37   18   19 1    
    38   18   67 1    
    39   18  143 1    
    40   19   20 am   BACKBONE|DICT|INTERRES
    41   19  144 1    
    42   20   21 2    
    43   20   22 1    
    44   22   23 1    
    45   22   24 1    
    46   22  145 1    
    47   23  146 1    
    48   23  147 1    
    49   23  148 1    
    50   24   25 am   BACKBONE|DICT|INTERRES
    51   24  149 1    
    52   25   26 2    
    53   25   27 1    
    54   27   28 1    
    55   27   29 1    
    56   27  150 1    
    57   28  151 1    
    58   28  152 1    
    59   28  153 1    
    60   29   30 am   BACKBONE|DICT|INTERRES
    61   29  154 1    
    62   30   31 2    
    63   30   32 1    
    64   32   33 1    
    65   32   34 1    
    66   32  155 1    
    67   33  156 1    
    68   33  157 1    
    69   33  158 1    
    70   34   35 am   BACKBONE|DICT|INTERRES
    71   34  159 1    
    72   35   36 2    
    73   35   37 1    
    74   37   38 1    
    75   37   39 1    
    76   37  160 1    
    77   38  161 1    
    78   38  162 1    
    79   38  163 1    
    80   39   40 am   BACKBONE|DICT|INTERRES
    81   39  164 1    
    82   40   41 2    
    83   40   42 1    
    84   42   43 1    
    85   42   44 1    
    86   42  165 1    
    87   43  166 1    
    88   43  167 1    
    89   43  168 1    
    90   44   45 am   BACKBONE|DICT|INTERRES
    91   44  169 1    
    92   45   46 2    
    93   45   47 1    
    94   47   48 1    
    95   47   49 1    
    96   47  170 1    
    97   48  171 1    
    98   48  172 1    
    99   48  173 1    
   100   49   50 am   BACKBONE|DICT|INTERRES
   101   49  174 1    
   102   50   51 2    
   103   50   52 1    
   104   52   53 1    
   105   52   54 1    
   106   52  175 1    
   107   53  176 1    
   108   53  177 1    
   109   53  178 1    
   110   54   55 am   BACKBONE|DICT|INTERRES
   111   54  179 1    
   112   55   56 2    
   113   55   57 1    
   114   57   58 1    
   115   57   59 1    
   116   57  180 1    
   117   58  181 1    
   118   58  182 1    
   119   58  183 1    
   120   59   60 am   BACKBONE|DICT|INTERRES
   121   59  184 1    
   122   60   61 2    
   123   60   62 1    
   124   62   63 1    
   125   62   64 1    
   126   62  185 1    
   127   63  186 1    
   128   63  187 1    
   129   63  188 1    
   130   64   65 am   BACKBONE|DICT|INTERRES
   131   64  189 1    
   132   65   66 2    
   133   67   68 2    
   134   67   69 am   BACKBONE|DICT|INTERRES
   135   69   70 1    
   136   69  190 1    
   137   70   71 1    
   138   70   72 1    
   139   70  191 1    
   140   71  192 1    
   141   71  193 1    
   142   71  194 1    
   143   72   73 2    
   144   72   74 am   BACKBONE|DICT|INTERRES
   145   74   75 1    
   146   74  195 1    
   147   75   76 1    
   148   75   77 1    
   149   75  196 1    
   150   76  197 1    
   151   76  198 1    
   152   76  199 1    
   153   77   78 2    
   154   77   79 am   BACKBONE|DICT|INTERRES
   155   79   80 1    
   156   79  200 1    
   157   80   81 1    
   158   80   82 1    
   159   80  201 1    
   160   81  202 1    
   161   81  203 1    
   162   81  204 1    
   163   82   83 2    
   164   82   84 am   BACKBONE|DICT|INTERRES
   165   84   85 1    
   166   84  205 1    
   167   85   86 1    
   168   85   87 1    
   169   85  206 1    
   170   86  207 1    
   171   86  208 1    
   172   86  209 1    
   173   87   88 2    
   174   87   89 am   BACKBONE|DICT|INTERRES
   175   89   90 1    
   176   89  210 1    
   177   90   91 1    
   178   90   92 1    
   179   90  211 1    
   180   91  212 1    
   181   91  213 1    
   182   91  214 1    
   183   92   93 2    
   184   92   94 am   BACKBONE|DICT|INTERRES
   185   94   95 1    
   186   94  215 1    
   187   95   96 1    
   188   95   97 1    
   189   95  216 1    
   190   96  217 1    
   191   96  218 1    
   192   96  219 1    
   193   97   98 2    
   194   97   99 am   BACKBONE|DICT|INTERRES
   195   99  100 1    
   196   99  220 1    
   197  100  101 1    
   198  100  102 1    
   199  100  221 1    
   200  101  222 1    
   201  101  223 1    
   202  101  224 1    
   203  102  103 2    
   204  102  104 am   BACKBONE|DICT|INTERRES
   205  104  105 1    
   206  104  225 1    
   207  105  106 1    
   208  105  107 1    
   209  105  226 1    
   210  106  227 1    
   211  106  228 1    
   212  106  229 1    
   213  107  108 2    
   214  107  109 am   BACKBONE|DICT|INTERRES
   215  109  110 1    
   216  109  230 1    
   217  110  111 1    
   218  110  112 1    
   219  110  231 1    
   220  111  232 1    
   221  111  233 1    
   222  111  234 1    
   223  112  113 2    
   224  112  114 am   BACKBONE|DICT|INTERRES
   225  114  115 1    
   226  114  235 1    
   227  115  116 1    
   228  115  117 1    
   229  115  236 1    
   230  116  237 1    
   231  116  238 1    
   232  116  239 1    
   233  117  118 2    
   234  117  119 am   BACKBONE|DICT|INTERRES
   235  119  120 1    
   236  119  240 1    
   237  120  121 1    
   238  120  124 1    
   239  120  241 1    
   240  121  122 am   BACKBONE|DICT|INTERRES
   241  121  123 2    
   242  122  242 1    
   243  122  243 1    
   244  124  125 1    
   245  124  244 1    
   246  124  245 1    
   247  125  126 1    
   248  126  246 1    
   249  126  247 1    
@<TRIPOS>SUBSTRUCTURE
     1 UNK         1 GROUP             0       ****    0 ROOT    
