@<TRIPOS>MOLECULE
3R540
247   249    1
SMALL
USER_CHARGES


@<TRIPOS>ATOM
      1 CA         -3.3530  -11.1305  -48.1583 C.3       0 UNK        -0.1800 
      2 C          -2.1124  -11.1024  -47.2775 C.2       0 UNK         0.5000 
      3 O          -1.9192  -10.1553  -46.5151 O.2       0 UNK        -0.5000 
      4 N          -1.2781  -12.1451  -47.3601 N.am      1 UNK        -0.5000 
      5 CA         -0.0209  -12.3273  -46.6210 C.3       1 UNK         0.1400 
      6 C6          0.9558  -13.2562  -47.3922 C.3       23 UNK        -0.0398 
      7 S7          0.2452  -14.8754  -47.8591 S.3       23 UNK        -0.2404 
      8 C8          1.3296  -15.3215  -49.2491 C.3       23 UNK        -0.0205 
      9 C9          0.9336  -16.6530  -49.8692 C.ar      23 UNK        -0.0193 
     10 C10        -0.1682  -16.7186  -50.7278 C.ar      23 UNK        -0.1150 
     11 C11        -0.5207  -17.9238  -51.3401 C.ar      23 UNK        -0.0193 
     12 C12         0.2499  -19.0622  -51.0987 C.ar      23 UNK        -0.1150 
     13 C13         1.3349  -19.0242  -50.2189 C.ar      23 UNK        -0.0193 
     14 C14         1.6745  -17.8121  -49.6085 C.ar      23 UNK        -0.1150 
     15 C15         2.1537  -20.2838  -49.9557 C.3       23 UNK        -0.0205 
     16 S16         1.4676  -21.3160  -48.6122 S.3       23 UNK        -0.2404 
     17 C17        -0.0170  -22.0483  -49.3991 C.3       23 UNK        -0.0398 
     18 CA         -1.3693  -21.5426  -48.8252 C.3       11 UNK         0.1400 
     19 N          -1.3317  -20.1153  -48.4861 N.am      11 UNK        -0.5000 
     20 C          -2.1786  -19.4617  -47.6840 C.2       10 UNK         0.5000 
     21 O          -3.2496  -19.9318  -47.2977 O.2       10 UNK        -0.5000 
     22 CA         -1.7173  -18.0601  -47.2419 C.3       10 UNK         0.1400 
     23 CB         -2.6142  -17.4421  -46.1507 C.3       10 UNK        -0.1800 
     24 N          -0.3056  -18.0529  -46.8341 N.am      10 UNK        -0.5000 
     25 C           0.2591  -18.7782  -45.8561 C.2       9 UNK         0.5000 
     26 O          -0.3655  -19.5425  -45.1147 O.2       9 UNK        -0.5000 
     27 CA          1.7797  -18.6218  -45.6663 C.3       9 UNK         0.1400 
     28 CB          2.2138  -17.1403  -45.7206 C.3       9 UNK        -0.1800 
     29 N           2.1279  -19.2593  -44.3962 N.am      9 UNK        -0.5000 
     30 C           3.3450  -19.4510  -43.8797 C.2       8 UNK         0.5000 
     31 O           4.3884  -19.0477  -44.3966 O.2       8 UNK        -0.5000 
     32 CA          3.4106  -20.2328  -42.5591 C.3       8 UNK         0.1400 
     33 CB          4.4422  -21.3779  -42.6612 C.3       8 UNK        -0.1800 
     34 N           3.7443  -19.3015  -41.4831 N.am      8 UNK        -0.5000 
     35 C           3.8208  -19.5913  -40.1771 C.2       7 UNK         0.5000 
     36 O           3.5880  -20.7036  -39.7025 O.2       7 UNK        -0.5000 
     37 CA          4.1933  -18.4359  -39.2340 C.3       7 UNK         0.1400 
     38 CB          5.5262  -17.7754  -39.6289 C.3       7 UNK        -0.1800 
     39 N           3.1277  -17.4394  -39.2445 N.am      7 UNK        -0.5000 
     40 C           2.1636  -17.3345  -38.3184 C.2       6 UNK         0.5000 
     41 O           2.1392  -17.9929  -37.2778 O.2       6 UNK        -0.5000 
     42 CA          1.0181  -16.3380  -38.6018 C.3       6 UNK         0.1400 
     43 CB          1.2912  -14.9916  -37.9148 C.3       6 UNK        -0.1800 
     44 N           0.7972  -16.1014  -40.0280 N.am      6 UNK        -0.5000 
     45 C           0.4083  -17.0280  -40.9144 C.2       5 UNK         0.5000 
     46 O           0.0564  -18.1665  -40.6059 O.2       5 UNK        -0.5000 
     47 CA          0.4724  -16.6348  -42.4007 C.3       5 UNK         0.1400 
     48 CB         -0.9248  -16.3009  -42.9382 C.3       5 UNK        -0.1800 
     49 N           1.3865  -15.5245  -42.6876 N.am      5 UNK        -0.5000 
     50 C           2.7147  -15.5336  -42.4957 C.2       4 UNK         0.5000 
     51 O           3.3273  -16.4892  -42.0202 O.2       4 UNK        -0.5000 
     52 CA          3.4805  -14.2506  -42.8571 C.3       4 UNK         0.1400 
     53 CB          3.9275  -14.2750  -44.3254 C.3       4 UNK        -0.1800 
     54 N           2.6691  -13.0585  -42.6155 N.am      4 UNK        -0.5000 
     55 C           2.5465  -12.4593  -41.4232 C.2       3 UNK         0.5000 
     56 O           3.1544  -12.8150  -40.4135 O.2       3 UNK        -0.5000 
     57 CA          1.5654  -11.2743  -41.3387 C.3       3 UNK         0.1400 
     58 CB          2.2783   -9.9582  -41.6838 C.3       3 UNK        -0.1800 
     59 N           0.4011  -11.4337  -42.2118 N.am      3 UNK        -0.5000 
     60 C          -0.5622  -12.3479  -42.0322 C.2       2 UNK         0.5000 
     61 O          -0.5891  -13.1359  -41.0865 O.2       2 UNK        -0.5000 
     62 CA         -1.6625  -12.4149  -43.1092 C.3       2 UNK         0.1400 
     63 CB         -2.8230  -11.4753  -42.7504 C.3       2 UNK        -0.1800 
     64 N          -1.2049  -12.1103  -44.4684 N.am      2 UNK        -0.5000 
     65 C          -0.2408  -12.7492  -45.1456 C.2       1 UNK         0.5000 
     66 O           0.4615  -13.6248  -44.6386 O.2       1 UNK        -0.5000 
     67 C          -2.5592  -21.9526  -49.7269 C.2       11 UNK         0.5000 
     68 O          -2.7126  -23.1350  -50.0309 O.2       11 UNK        -0.5000 
     69 N          -3.3787  -20.9827  -50.1537 N.am      12 UNK        -0.5000 
     70 CA         -4.6739  -21.2098  -50.7956 C.3       12 UNK         0.1400 
     71 CB         -5.0075  -20.0171  -51.7002 C.3       12 UNK        -0.1800 
     72 C          -5.8032  -21.4470  -49.7746 C.2       12 UNK         0.5000 
     73 O          -6.8071  -22.0626  -50.1316 O.2       12 UNK        -0.5000 
     74 N          -5.6208  -20.9762  -48.5341 N.am      13 UNK        -0.5000 
     75 CA         -6.5291  -21.1997  -47.4113 C.3       13 UNK         0.1400 
     76 CB         -6.7595  -19.8727  -46.6704 C.3       13 UNK        -0.1800 
     77 C          -5.9448  -22.2586  -46.4645 C.2       13 UNK         0.5000 
     78 O          -6.6591  -23.1778  -46.0638 O.2       13 UNK        -0.5000 
     79 N          -4.6496  -22.1297  -46.1444 N.am      14 UNK        -0.5000 
     80 CA         -3.8878  -23.0749  -45.3336 C.3       14 UNK         0.1400 
     81 CB         -2.6131  -22.3861  -44.8176 C.3       14 UNK        -0.1800 
     82 C          -3.5703  -24.3339  -46.1580 C.2       14 UNK         0.5000 
     83 O          -2.6798  -24.2996  -47.0069 O.2       14 UNK        -0.5000 
     84 N          -4.3552  -25.3968  -45.9368 N.am      15 UNK        -0.5000 
     85 CA         -4.3189  -26.7166  -46.5877 C.3       15 UNK         0.1400 
     86 CB         -2.9397  -27.3864  -46.4185 C.3       15 UNK        -0.1800 
     87 C          -4.7753  -26.7394  -48.0638 C.2       15 UNK         0.5000 
     88 O          -4.9744  -27.8281  -48.6041 O.2       15 UNK        -0.5000 
     89 N          -4.9502  -25.5625  -48.6830 N.am      16 UNK        -0.5000 
     90 CA         -5.3764  -25.3326  -50.0693 C.3       16 UNK         0.1400 
     91 CB         -6.8342  -25.7894  -50.2811 C.3       16 UNK        -0.1800 
     92 C          -4.4037  -25.9008  -51.1239 C.2       16 UNK         0.5000 
     93 O          -4.8167  -26.2252  -52.2382 O.2       16 UNK        -0.5000 
     94 N          -3.1174  -25.9831  -50.7618 N.am      17 UNK        -0.5000 
     95 CA         -2.0297  -26.4881  -51.5973 C.3       17 UNK         0.1400 
     96 CB         -0.7767  -26.6550  -50.7244 C.3       17 UNK        -0.1800 
     97 C          -1.7229  -25.5927  -52.8124 C.2       17 UNK         0.5000 
     98 O          -1.2982  -26.1084  -53.8469 O.2       17 UNK        -0.5000 
     99 N          -1.9460  -24.2798  -52.6684 N.am      18 UNK        -0.5000 
    100 CA        -1.6814  -23.2694  -53.6950 C.3       18 UNK         0.1400 
    101 CB        -0.7273  -22.2154  -53.1208 C.3       18 UNK        -0.1800 
    102 C         -2.9702  -22.6058  -54.2061 C.2       18 UNK         0.5000 
    103 O         -2.8908  -21.5399  -54.8172 O.2       18 UNK        -0.5000 
    104 N         -4.1367  -23.2237  -53.9713 N.am      19 UNK        -0.5000 
    105 CA        -5.4423  -22.6974  -54.3866 C.3       19 UNK         0.1400 
    106 CB        -6.5562  -23.5945  -53.8297 C.3       19 UNK        -0.1800 
    107 C         -5.5753  -22.5205  -55.9122 C.2       19 UNK         0.5000 
    108 O         -6.1507  -21.5310  -56.3653 O.2       19 UNK        -0.5000 
    109 N         -4.9864  -23.4517  -56.6736 N.am      20 UNK        -0.5000 
    110 CA        -4.9134  -23.4016  -58.1345 C.3       20 UNK         0.1400 
    111 CB        -4.6217  -24.8156  -58.6610 C.3       20 UNK        -0.1800 
    112 C         -3.8599  -22.4053  -58.6621 C.2       20 UNK         0.5000 
    113 O         -3.9540  -21.9935  -59.8190 O.2       20 UNK        -0.5000 
    114 N         -2.8723  -22.0512  -57.8278 N.am      21 UNK        -0.5000 
    115 CA        -1.7806  -21.1425  -58.1741 C.3       21 UNK         0.1400 
    116 CB        -0.5110  -21.5437  -57.4050 C.3       21 UNK        -0.1800 
    117 C         -2.1609  -19.6811  -57.8915 C.2       21 UNK         0.5000 
    118 O         -2.0205  -18.8364  -58.7773 O.2       21 UNK        -0.5000 
    119 N         -2.6397  -19.4113  -56.6706 N.am      22 UNK        -0.5000 
    120 CA        -3.0851  -18.0787  -56.2347 C.3       22 UNK         0.1400 
    121 C         -4.4929  -17.6822  -56.7662 C.2       22 UNK         0.5000 
    122 N         -5.3527  -18.6181  -57.1509 N.am      22 UNK        -0.7600 
    123 O         -4.8090  -16.4978  -56.8365 O.2       22 UNK        -0.5000 
    124 C124       -3.0298  -17.9219  -54.6951 C.3       23 UNK        -0.0398 
    125 S125       -1.3474  -18.0605  -53.9987 S.3       23 UNK        -0.2404 
    126 C126       -1.7545  -18.0114  -52.2261 C.3       23 UNK        -0.0205 
    127 H127       -3.3613  -10.2657  -48.8218 H         1 UNK         0.0600 
    128 H128       -4.2514  -11.0978  -47.5420 H         1 UNK         0.0600 
    129 H129       -3.3937  -12.0307  -48.7721 H         1 UNK         0.0600 
    130 H130       -1.5112  -12.9121  -47.9756 H         1 UNK         0.3000 
    131 H131        0.4668  -11.3520  -46.5642 H         1 UNK         0.0600 
    132 H132        1.2653  -12.7469  -48.3057 H         1 UNK         0.0800 
    133 H133        1.8756  -13.4193  -46.8294 H         1 UNK         0.0800 
    134 H134        2.3646  -15.3524  -48.9048 H         1 UNK         0.0800 
    135 H135        1.2820  -14.5423  -50.0114 H         1 UNK         0.0800 
    136 H136       -0.7510  -15.8279  -50.9172 H         1 UNK         0.1150 
    137 H137       -0.0045  -19.9805  -51.5988 H         1 UNK         0.1150 
    138 H138        2.5286  -17.7686  -48.9475 H         1 UNK         0.1150 
    139 H139        2.2367  -20.8761  -50.8683 H         1 UNK         0.0800 
    140 H140        3.1745  -20.0062  -49.6888 H         1 UNK         0.0800 
    141 H141        0.0434  -23.1313  -49.2775 H         1 UNK         0.0800 
    142 H142        0.0457  -21.8809  -50.4695 H         1 UNK         0.0800 
    143 H143       -1.5222  -22.0700  -47.8838 H         1 UNK         0.0600 
    144 H144       -0.4777  -19.6433  -48.7503 H         1 UNK         0.3000 
    145 H145       -1.7887  -17.4233  -48.1248 H         1 UNK         0.0600 
    146 H146       -3.6497  -17.3765  -46.4866 H         1 UNK         0.0600 
    147 H147       -2.6057  -18.0318  -45.2337 H         1 UNK         0.0600 
    148 H148       -2.2903  -16.4308  -45.9059 H         1 UNK         0.0600 
    149 H149        0.2834  -17.4231  -47.3620 H         1 UNK         0.3000 
    150 H150        2.2814  -19.1730  -46.4634 H         1 UNK         0.0600 
    151 H151        2.2440  -16.7866  -46.7492 H         1 UNK         0.0600 
    152 H152        3.2099  -16.9785  -45.3148 H         1 UNK         0.0600 
    153 H153        1.5233  -16.4930  -45.1820 H         1 UNK         0.0600 
    154 H154        1.3170  -19.6570  -43.9350 H         1 UNK         0.3000 
    155 H155        2.4290  -20.6630  -42.3505 H         1 UNK         0.0600 
    156 H156        5.4610  -20.9954  -42.7332 H         1 UNK         0.0600 
    157 H157        4.2585  -21.9899  -43.5453 H         1 UNK         0.0600 
    158 H158        4.3955  -22.0449  -41.8011 H         1 UNK         0.0600 
    159 H159        3.8818  -18.3375  -41.7786 H         1 UNK         0.3000 
    160 H160        4.3176  -18.8500  -38.2311 H         1 UNK         0.0600 
    161 H161        5.4791  -17.2963  -40.6069 H         1 UNK         0.0600 
    162 H162        6.3300  -18.5118  -39.6624 H         1 UNK         0.0600 
    163 H163        5.8132  -17.0147  -38.9029 H         1 UNK         0.0600 
    164 H164        3.0464  -16.8950  -40.0966 H         1 UNK         0.3000 
    165 H165        0.1011  -16.7592  -38.1851 H         1 UNK         0.0600 
    166 H166        0.4629  -14.2979  -38.0618 H         1 UNK         0.0600 
    167 H167        1.4213  -15.1204  -36.8396 H         1 UNK         0.0600 
    168 H168        2.1956  -14.5200  -38.3015 H         1 UNK         0.0600 
    169 H169        1.0261  -15.1811  -40.3771 H         1 UNK         0.3000 
    170 H170        0.8390  -17.5045  -42.9413 H         1 UNK         0.0600 
    171 H171       -1.5786  -17.1722  -42.8853 H         1 UNK         0.0600 
    172 H172       -1.3935  -15.5056  -42.3603 H         1 UNK         0.0600 
    173 H173       -0.8842  -15.9880  -43.9814 H         1 UNK         0.0600 
    174 H174        0.9802  -14.7205  -43.1568 H         1 UNK         0.3000 
    175 H175        4.3770  -14.2091  -42.2347 H         1 UNK         0.0600 
    176 H176        4.4760  -13.3699  -44.5864 H         1 UNK         0.0600 
    177 H177        3.0797  -14.3613  -45.0043 H         1 UNK         0.0600 
    178 H178        4.5890  -15.1211  -44.5151 H         1 UNK         0.0600 
    179 H179        2.0846  -12.7487  -43.3801 H         1 UNK         0.3000 
    180 H180        1.2112  -11.2107  -40.3075 H         1 UNK         0.0600 
    181 H181        1.6136   -9.1038  -41.5543 H         1 UNK         0.0600 
    182 H182        2.6378   -9.9520  -42.7136 H         1 UNK         0.0600 
    183 H183        3.1400   -9.7994  -41.0341 H         1 UNK         0.0600 
    184 H184        0.3419  -10.8249  -43.0148 H         1 UNK         0.3000 
    185 H185       -2.0489  -13.4344  -43.1222 H         1 UNK         0.0600 
    186 H186       -3.6527  -11.5888  -43.4484 H         1 UNK         0.0600 
    187 H187       -3.2073  -11.6908  -41.7524 H         1 UNK         0.0600 
    188 H188       -2.5129  -10.4297  -42.7652 H         1 UNK         0.0600 
    189 H189       -1.6956  -11.3704  -44.9601 H         1 UNK         0.3000 
    190 H190       -3.1699  -20.0371  -49.8706 H         1 UNK         0.3000 
    191 H191       -4.6155  -22.1009  -51.4226 H         1 UNK         0.0600 
    192 H192       -6.0137  -20.1016  -52.1130 H         1 UNK         0.0600 
    193 H193       -4.3192  -19.9792  -52.5415 H         1 UNK         0.0600 
    194 H194       -4.9503  -19.0689  -51.1645 H         1 UNK         0.0600 
    195 H195       -4.7488  -20.5104  -48.3042 H         1 UNK         0.3000 
    196 H196       -7.4973  -21.5610  -47.7644 H         1 UNK         0.0600 
    197 H197       -5.8285  -19.4517  -46.2883 H         1 UNK         0.0600 
    198 H198       -7.2146  -19.1317  -47.3276 H         1 UNK         0.0600 
    199 H199       -7.4306  -20.0112  -45.8219 H         1 UNK         0.0600 
    200 H200       -4.1281  -21.3407  -46.5184 H         1 UNK         0.3000 
    201 H201       -4.4857  -23.3592  -44.4651 H         1 UNK         0.0600 
    202 H202       -2.8562  -21.5270  -44.1921 H         1 UNK         0.0600 
    203 H203       -1.9798  -22.0299  -45.6294 H         1 UNK         0.0600 
    204 H204       -2.0170  -23.0708  -44.2136 H         1 UNK         0.0600 
    205 H205       -5.1090  -25.2806  -45.2723 H         1 UNK         0.3000 
    206 H206       -5.0433  -27.3262  -46.0455 H         1 UNK         0.0600 
    207 H207       -2.6304  -27.3969  -45.3734 H         1 UNK         0.0600 
    208 H208       -2.9662  -28.4225  -46.7582 H         1 UNK         0.0600 
    209 H209       -2.1651  -26.8795  -46.9944 H         1 UNK         0.0600 
    210 H210       -4.6994  -24.7352  -48.1603 H         1 UNK         0.3000 
    211 H211       -5.3481  -24.2552  -50.2126 H         1 UNK         0.0600 
    212 H212       -7.1995  -25.4965  -51.2657 H         1 UNK         0.0600 
    213 H213       -7.4977  -25.3354  -49.5450 H         1 UNK         0.0600 
    214 H214       -6.9358  -26.8721  -50.2050 H         1 UNK         0.0600 
    215 H215       -2.8611  -25.6194  -49.8539 H         1 UNK         0.3000 
    216 H216       -2.3218  -27.4706  -51.9737 H         1 UNK         0.0600 
    217 H217       -0.4554  -25.7038  -50.2974 H         1 UNK         0.0600 
    218 H218        0.0558  -27.0531  -51.3060 H         1 UNK         0.0600 
    219 H219       -0.9585  -27.3472  -49.9019 H         1 UNK         0.0600 
    220 H220       -2.2950  -23.9449  -51.7741 H         1 UNK         0.3000 
    221 H221       -1.1973  -23.7191  -54.5638 H         1 UNK         0.0600 
    222 H222        0.1647  -22.6743  -52.6948 H         1 UNK         0.0600 
    223 H223       -1.2290  -21.6343  -52.3496 H         1 UNK         0.0600 
    224 H224       -0.3957  -21.5158  -53.8889 H         1 UNK         0.0600 
    225 H225       -4.1291  -24.1139  -53.4924 H         1 UNK         0.3000 
    226 H226       -5.5567  -21.7072  -53.9442 H         1 UNK         0.0600 
    227 H227       -6.4599  -24.6230  -54.1800 H         1 UNK         0.0600 
    228 H228       -6.5387  -23.6075  -52.7399 H         1 UNK         0.0600 
    229 H229       -7.5396  -23.2327  -54.1326 H         1 UNK         0.0600 
    230 H230       -4.5332  -24.2313  -56.2199 H         1 UNK         0.3000 
    231 H231       -5.8852  -23.0885  -58.5225 H         1 UNK         0.0600 
    232 H232       -3.6624  -25.1896  -58.3010 H         1 UNK         0.0600 
    233 H233       -4.5907  -24.8284  -59.7514 H         1 UNK         0.0600 
    234 H234       -5.3949  -25.5191  -58.3516 H         1 UNK         0.0600 
    235 H235       -2.9102  -22.3659  -56.8689 H         1 UNK         0.3000 
    236 H236       -1.5594  -21.2321  -59.2400 H         1 UNK         0.0600 
    237 H237       -0.6449  -21.4693  -56.3263 H         1 UNK         0.0600 
    238 H238       -0.2182  -22.5680  -57.6359 H         1 UNK         0.0600 
    239 H239        0.3256  -20.8979  -57.6741 H         1 UNK         0.0600 
    240 H240       -2.7181  -20.1607  -55.9863 H         1 UNK         0.3000 
    241 H241       -2.3922  -17.3459  -56.6531 H         1 UNK         0.0600 
    242 H242       -6.2585  -18.3412  -57.4946 H         1 UNK         0.3800 
    243 H243       -5.1442  -19.6010  -57.0468 H         1 UNK         0.3800 
    244 H244       -3.6701  -18.6696  -54.2291 H         1 UNK         0.0800 
    245 H245       -3.4247  -16.9490  -54.3961 H         1 UNK         0.0800 
    246 H246       -2.4193  -17.1688  -52.0293 H         1 UNK         0.0800 
    247 H247       -2.3111  -18.9115  -51.9686 H         1 UNK         0.0800 
@<TRIPOS>BOND
     1    1    2 1    
     2    1  127 1    
     3    1  128 1    
     4    1  129 1    
     5    2    3 2    
     6    2    4 am   BACKBONE|DICT|INTERRES
     7    4    5 1    
     8    4  130 1    
     9    5    6 1    
    10    5   65 1    
    11    5  131 1    
    12    6    7 1    
    13    6  132 1    
    14    6  133 1    
    15    7    8 1    
    16    8    9 1    
    17    8  134 1    
    18    8  135 1    
    19    9   10 ar   
    20    9   14 ar   
    21   10   11 ar   
    22   10  136 1    
    23   11   12 ar   
    24   11  126 1    
    25   12   13 ar   
    26   12  137 1    
    27   13   14 ar   
    28   13   15 1    
    29   14  138 1    
    30   15   16 1    
    31   15  139 1    
    32   15  140 1    
    33   16   17 1    
    34   17   18 1    
    35   17  141 1    
    36   17  142 1    
    37   18   19 1    
    38   18   67 1    
    39   18  143 1    
    40   19   20 am   BACKBONE|DICT|INTERRES
    41   19  144 1    
    42   20   21 2    
    43   20   22 1    
    44   22   23 1    
    45   22   24 1    
    46   22  145 1    
    47   23  146 1    
    48   23  147 1    
    49   23  148 1    
    50   24   25 am   BACKBONE|DICT|INTERRES
    51   24  149 1    
    52   25   26 2    
    53   25   27 1    
    54   27   28 1    
    55   27   29 1    
    56   27  150 1    
    57   28  151 1    
    58   28  152 1    
    59   28  153 1    
    60   29   30 am   BACKBONE|DICT|INTERRES
    61   29  154 1    
    62   30   31 2    
    63   30   32 1    
    64   32   33 1    
    65   32   34 1    
    66   32  155 1    
    67   33  156 1    
    68   33  157 1    
    69   33  158 1    
    70   34   35 am   BACKBONE|DICT|INTERRES
    71   34  159 1    
    72   35   36 2    
    73   35   37 1    
    74   37   38 1    
    75   37   39 1    
    76   37  160 1    
    77   38  161 1    
    78   38  162 1    
    79   38  163 1    
    80   39   40 am   BACKBONE|DICT|INTERRES
    81   39  164 1    
    82   40   41 2    
    83   40   42 1    
    84   42   43 1    
    85   42   44 1    
    86   42  165 1    
    87   43  166 1    
    88   43  167 1    
    89   43  168 1    
    90   44   45 am   BACKBONE|DICT|INTERRES
    91   44  169 1    
    92   45   46 2    
    93   45   47 1    
    94   47   48 1    
    95   47   49 1    
    96   47  170 1    
    97   48  171 1    
    98   48  172 1    
    99   48  173 1    
   100   49   50 am   BACKBONE|DICT|INTERRES
   101   49  174 1    
   102   50   51 2    
   103   50   52 1    
   104   52   53 1    
   105   52   54 1    
   106   52  175 1    
   107   53  176 1    
   108   53  177 1    
   109   53  178 1    
   110   54   55 am   BACKBONE|DICT|INTERRES
   111   54  179 1    
   112   55   56 2    
   113   55   57 1    
   114   57   58 1    
   115   57   59 1    
   116   57  180 1    
   117   58  181 1    
   118   58  182 1    
   119   58  183 1    
   120   59   60 am   BACKBONE|DICT|INTERRES
   121   59  184 1    
   122   60   61 2    
   123   60   62 1    
   124   62   63 1    
   125   62   64 1    
   126   62  185 1    
   127   63  186 1    
   128   63  187 1    
   129   63  188 1    
   130   64   65 am   BACKBONE|DICT|INTERRES
   131   64  189 1    
   132   65   66 2    
   133   67   68 2    
   134   67   69 am   BACKBONE|DICT|INTERRES
   135   69   70 1    
   136   69  190 1    
   137   70   71 1    
   138   70   72 1    
   139   70  191 1    
   140   71  192 1    
   141   71  193 1    
   142   71  194 1    
   143   72   73 2    
   144   72   74 am   BACKBONE|DICT|INTERRES
   145   74   75 1    
   146   74  195 1    
   147   75   76 1    
   148   75   77 1    
   149   75  196 1    
   150   76  197 1    
   151   76  198 1    
   152   76  199 1    
   153   77   78 2    
   154   77   79 am   BACKBONE|DICT|INTERRES
   155   79   80 1    
   156   79  200 1    
   157   80   81 1    
   158   80   82 1    
   159   80  201 1    
   160   81  202 1    
   161   81  203 1    
   162   81  204 1    
   163   82   83 2    
   164   82   84 am   BACKBONE|DICT|INTERRES
   165   84   85 1    
   166   84  205 1    
   167   85   86 1    
   168   85   87 1    
   169   85  206 1    
   170   86  207 1    
   171   86  208 1    
   172   86  209 1    
   173   87   88 2    
   174   87   89 am   BACKBONE|DICT|INTERRES
   175   89   90 1    
   176   89  210 1    
   177   90   91 1    
   178   90   92 1    
   179   90  211 1    
   180   91  212 1    
   181   91  213 1    
   182   91  214 1    
   183   92   93 2    
   184   92   94 am   BACKBONE|DICT|INTERRES
   185   94   95 1    
   186   94  215 1    
   187   95   96 1    
   188   95   97 1    
   189   95  216 1    
   190   96  217 1    
   191   96  218 1    
   192   96  219 1    
   193   97   98 2    
   194   97   99 am   BACKBONE|DICT|INTERRES
   195   99  100 1    
   196   99  220 1    
   197  100  101 1    
   198  100  102 1    
   199  100  221 1    
   200  101  222 1    
   201  101  223 1    
   202  101  224 1    
   203  102  103 2    
   204  102  104 am   BACKBONE|DICT|INTERRES
   205  104  105 1    
   206  104  225 1    
   207  105  106 1    
   208  105  107 1    
   209  105  226 1    
   210  106  227 1    
   211  106  228 1    
   212  106  229 1    
   213  107  108 2    
   214  107  109 am   BACKBONE|DICT|INTERRES
   215  109  110 1    
   216  109  230 1    
   217  110  111 1    
   218  110  112 1    
   219  110  231 1    
   220  111  232 1    
   221  111  233 1    
   222  111  234 1    
   223  112  113 2    
   224  112  114 am   BACKBONE|DICT|INTERRES
   225  114  115 1    
   226  114  235 1    
   227  115  116 1    
   228  115  117 1    
   229  115  236 1    
   230  116  237 1    
   231  116  238 1    
   232  116  239 1    
   233  117  118 2    
   234  117  119 am   BACKBONE|DICT|INTERRES
   235  119  120 1    
   236  119  240 1    
   237  120  121 1    
   238  120  124 1    
   239  120  241 1    
   240  121  122 am   BACKBONE|DICT|INTERRES
   241  121  123 2    
   242  122  242 1    
   243  122  243 1    
   244  124  125 1    
   245  124  244 1    
   246  124  245 1    
   247  125  126 1    
   248  126  246 1    
   249  126  247 1    
@<TRIPOS>SUBSTRUCTURE
     1 UNK         1 GROUP             0       ****    0 ROOT    
