@<TRIPOS>MOLECULE
3R540
247   249    1
SMALL
USER_CHARGES


@<TRIPOS>ATOM
      1 CA         -4.9019  -10.5785  -46.5771 C.3       0 UNK        -0.1800 
      2 C          -4.7306  -12.0816  -46.4062 C.2       0 UNK         0.5000 
      3 O          -5.4575  -12.8503  -47.0340 O.2       0 UNK        -0.5000 
      4 N          -3.7871  -12.4880  -45.5484 N.am      1 UNK        -0.5000 
      5 CA         -3.4483  -13.8892  -45.2518 C.3       1 UNK         0.1400 
      6 C6         -3.9003  -14.3025  -43.8247 C.3       23 UNK        -0.0398 
      7 S7         -5.6729  -13.9949  -43.5078 S.3       23 UNK        -0.2404 
      8 C8         -6.3157  -15.6742  -43.2285 C.3       23 UNK        -0.0205 
      9 C9         -6.1954  -16.5965  -44.4368 C.ar      23 UNK        -0.0193 
     10 C10        -6.6191  -16.1920  -45.7069 C.ar      23 UNK        -0.1150 
     11 C11        -6.5837  -17.0792  -46.7875 C.ar      23 UNK        -0.0193 
     12 C12        -6.1009  -18.3794  -46.5919 C.ar      23 UNK        -0.1150 
     13 C13        -5.6723  -18.7989  -45.3268 C.ar      23 UNK        -0.0193 
     14 C14        -5.7263  -17.8991  -44.2577 C.ar      23 UNK        -0.1150 
     15 C15        -5.2456  -20.2459  -45.0941 C.3       23 UNK        -0.0205 
     16 S16        -3.7438  -20.3974  -44.0673 S.3       23 UNK        -0.2404 
     17 C17        -3.8313  -22.1375  -43.5357 C.3       23 UNK        -0.0398 
     18 CA         -3.1136  -23.0955  -44.5135 C.3       11 UNK         0.1400 
     19 N          -1.6508  -22.9159  -44.5427 N.am      11 UNK        -0.5000 
     20 C          -0.8300  -23.5182  -45.4178 C.2       10 UNK         0.5000 
     21 O          -1.2424  -24.2911  -46.2860 O.2       10 UNK        -0.5000 
     22 CA          0.6835  -23.2519  -45.3188 C.3       10 UNK         0.1400 
     23 CB          1.3256  -23.1237  -46.7124 C.3       10 UNK        -0.1800 
     24 N           1.0133  -22.0613  -44.5343 N.am      10 UNK        -0.5000 
     25 C           2.0316  -21.9748  -43.6659 C.2       9 UNK         0.5000 
     26 O           2.7011  -22.9467  -43.3125 O.2       9 UNK        -0.5000 
     27 CA          2.4089  -20.5814  -43.1162 C.3       9 UNK         0.1400 
     28 CB          3.7473  -20.1178  -43.7142 C.3       9 UNK        -0.1800 
     29 N           1.4096  -19.5501  -43.3871 N.am      9 UNK        -0.5000 
     30 C           0.2966  -19.3517  -42.6699 C.2       8 UNK         0.5000 
     31 O           0.0170  -19.9923  -41.6562 O.2       8 UNK        -0.5000 
     32 CA         -0.6828  -18.2720  -43.1798 C.3       8 UNK         0.1400 
     33 CB         -0.4579  -16.9497  -42.4302 C.3       8 UNK        -0.1800 
     34 N          -0.6390  -18.0081  -44.6235 N.am      8 UNK        -0.5000 
     35 C          -0.7347  -18.9243  -45.5979 C.2       7 UNK         0.5000 
     36 O          -0.7888  -20.1359  -45.4077 O.2       7 UNK        -0.5000 
     37 CA         -0.7371  -18.4139  -47.0410 C.3       7 UNK         0.1400 
     38 CB         -2.1670  -18.0307  -47.4430 C.3       7 UNK        -0.1800 
     39 N           0.2124  -17.3195  -47.2863 N.am      7 UNK        -0.5000 
     40 C           1.5415  -17.4400  -47.1320 C.2       6 UNK         0.5000 
     41 O           2.0902  -18.4925  -46.7978 O.2       6 UNK        -0.5000 
     42 CA          2.3890  -16.1706  -47.3563 C.3       6 UNK         0.1400 
     43 CB          3.8638  -16.3488  -46.9386 C.3       6 UNK        -0.1800 
     44 N           2.3084  -15.6208  -48.7133 N.am      6 UNK        -0.5000 
     45 C           2.6765  -16.2123  -49.8608 C.2       5 UNK         0.5000 
     46 O           3.0576  -17.3786  -49.9496 O.2       5 UNK        -0.5000 
     47 CA          2.6969  -15.3256  -51.1225 C.3       5 UNK         0.1400 
     48 CB          1.3197  -15.2309  -51.7921 C.3       5 UNK        -0.1800 
     49 N           3.1891  -13.9745  -50.8540 N.am      5 UNK        -0.5000 
     50 C           4.4786  -13.6612  -50.6605 C.2       4 UNK         0.5000 
     51 O           5.3932  -14.4857  -50.6752 O.2       4 UNK        -0.5000 
     52 CA          4.8089  -12.1725  -50.4340 C.3       4 UNK         0.1400 
     53 CB          5.2222  -11.5075  -51.7562 C.3       4 UNK        -0.1800 
     54 N           3.6933  -11.4226  -49.8530 N.am      4 UNK        -0.5000 
     55 C           3.3135  -11.5158  -48.5728 C.2       3 UNK         0.5000 
     56 O           3.9168  -12.1958  -47.7386 O.2       3 UNK        -0.5000 
     57 CA          2.0660  -10.7083  -48.1461 C.3       3 UNK         0.1400 
     58 CB          1.0754  -10.4351  -49.3015 C.3       3 UNK        -0.1800 
     59 N           1.3781  -11.3316  -47.0106 N.am      3 UNK        -0.5000 
     60 C           0.8262  -12.5528  -46.9822 C.2       2 UNK         0.5000 
     61 O           0.7394  -13.2903  -47.9665 O.2       2 UNK        -0.5000 
     62 CA          0.2984  -13.0536  -45.6286 C.3       2 UNK         0.1400 
     63 CB          0.7678  -12.2240  -44.4162 C.3       2 UNK        -0.1800 
     64 N          -1.1583  -13.0672  -45.6563 N.am      2 UNK        -0.5000 
     65 C          -1.9295  -14.1334  -45.4057 C.2       1 UNK         0.5000 
     66 O          -1.4805  -15.2709  -45.2527 O.2       1 UNK        -0.5000 
     67 C          -3.5330  -24.5562  -44.2379 C.2       11 UNK         0.5000 
     68 O          -4.5608  -24.9946  -44.7545 O.2       11 UNK        -0.5000 
     69 N          -2.6991  -25.3048  -43.5007 N.am      12 UNK        -0.5000 
     70 CA         -2.8416  -26.7463  -43.2684 C.3       12 UNK         0.1400 
     71 CB         -1.8086  -27.1829  -42.2184 C.3       12 UNK        -0.1800 
     72 C          -2.7004  -27.5983  -44.5493 C.2       12 UNK         0.5000 
     73 O          -3.2021  -28.7219  -44.5857 O.2       12 UNK        -0.5000 
     74 N          -2.0460  -27.0413  -45.5769 N.am      13 UNK        -0.5000 
     75 CA         -1.8921  -27.6123  -46.9132 C.3       13 UNK         0.1400 
     76 CB         -0.4054  -27.5375  -47.3076 C.3       13 UNK        -0.1800 
     77 C          -2.7894  -26.8830  -47.9351 C.2       13 UNK         0.5000 
     78 O          -2.4877  -26.9107  -49.1281 O.2       13 UNK        -0.5000 
     79 N          -3.8569  -26.2196  -47.4603 N.am      14 UNK        -0.5000 
     80 CA         -4.8287  -25.4358  -48.2323 C.3       14 UNK         0.1400 
     81 CB         -5.6532  -26.3494  -49.1639 C.3       14 UNK        -0.1800 
     82 C          -4.1748  -24.2517  -48.9731 C.2       14 UNK         0.5000 
     83 O          -4.4230  -24.0496  -50.1623 O.2       14 UNK        -0.5000 
     84 N          -3.3112  -23.5190  -48.2541 N.am      15 UNK        -0.5000 
     85 CA         -2.4658  -22.4231  -48.7401 C.3       15 UNK         0.1400 
     86 CB         -3.3099  -21.2103  -49.1858 C.3       15 UNK        -0.1800 
     87 C          -1.4867  -22.9211  -49.8191 C.2       15 UNK         0.5000 
     88 O          -1.3894  -22.3238  -50.8921 O.2       15 UNK        -0.5000 
     89 N          -0.8123  -24.0399  -49.5121 N.am      16 UNK        -0.5000 
     90 CA          0.1181  -24.7753  -50.3765 C.3       16 UNK         0.1400 
     91 CB          1.4128  -23.9603  -50.5839 C.3       16 UNK        -0.1800 
     92 C          -0.5390  -25.2016  -51.7067 C.2       16 UNK         0.5000 
     93 O          -0.0200  -24.8938  -52.7793 O.2       16 UNK        -0.5000 
     94 N          -1.7074  -25.8525  -51.6081 N.am      17 UNK        -0.5000 
     95 CA         -2.6005  -26.2309  -52.7108 C.3       17 UNK         0.1400 
     96 CB         -1.9787  -27.3666  -53.5491 C.3       17 UNK        -0.1800 
     97 C          -3.0314  -25.0129  -53.5589 C.2       17 UNK         0.5000 
     98 O          -3.0087  -25.0644  -54.7898 O.2       17 UNK        -0.5000 
     99 N          -3.3826  -23.9266  -52.8584 N.am      18 UNK        -0.5000 
    100 CA        -3.7633  -22.6025  -53.3527 C.3       18 UNK         0.1400 
    101 CB        -5.0647  -22.6743  -54.1770 C.3       18 UNK        -0.1800 
    102 C         -2.6455  -21.8226  -54.0811 C.2       18 UNK         0.5000 
    103 O         -2.9405  -20.7947  -54.6917 O.2       18 UNK        -0.5000 
    104 N         -1.3842  -22.2701  -53.9939 N.am      19 UNK        -0.5000 
    105 CA        -0.2339  -21.5721  -54.5761 C.3       19 UNK         0.1400 
    106 CB         0.9520  -22.5388  -54.7031 C.3       19 UNK        -0.1800 
    107 C          0.1784  -20.3256  -53.7702 C.2       19 UNK         0.5000 
    108 O          0.6932  -19.3723  -54.3554 O.2       19 UNK        -0.5000 
    109 N         -0.0556  -20.3498  -52.4518 N.am      20 UNK        -0.5000 
    110 CA         0.2661  -19.2662  -51.5218 C.3       20 UNK         0.1400 
    111 CB         0.7973  -19.8871  -50.2203 C.3       20 UNK        -0.1800 
    112 C         -0.9440  -18.3546  -51.2364 C.2       20 UNK         0.5000 
    113 O         -0.8083  -17.4070  -50.4607 O.2       20 UNK        -0.5000 
    114 N         -2.1043  -18.6635  -51.8342 N.am      21 UNK        -0.5000 
    115 CA        -3.3775  -17.9667  -51.6540 C.3       21 UNK         0.1400 
    116 CB        -4.4727  -18.7268  -52.4194 C.3       21 UNK        -0.1800 
    117 C         -3.3122  -16.4898  -52.1207 C.2       21 UNK         0.5000 
    118 O         -3.1371  -16.2695  -53.3194 O.2       21 UNK        -0.5000 
    119 N         -3.4561  -15.4746  -51.2566 N.am      22 UNK        -0.5000 
    120 CA        -3.4870  -15.5090  -49.7886 C.3       22 UNK         0.1400 
    121 C         -2.4526  -14.4969  -49.2453 C.2       22 UNK         0.5000 
    122 N         -1.1961  -14.9067  -49.1560 N.am      22 UNK        -0.7600 
    123 O         -2.7716  -13.3587  -48.9175 O.2       22 UNK        -0.5000 
    124 C124       -4.9047  -15.3182  -49.1937 C.3       23 UNK        -0.0398 
    125 S125       -5.9798  -16.7551  -49.5130 S.3       23 UNK        -0.2404 
    126 C126       -7.1636  -16.6564  -48.1338 C.3       23 UNK        -0.0205 
    127 H127       -5.9182  -10.2848  -46.3147 H         1 UNK         0.0600 
    128 H128       -4.7216  -10.2982  -47.6150 H         1 UNK         0.0600 
    129 H129       -4.2121  -10.0153  -45.9481 H         1 UNK         0.0600 
    130 H130       -3.2786  -11.7968  -45.0165 H         1 UNK         0.3000 
    131 H131       -3.9339  -14.5531  -45.9690 H         1 UNK         0.0600 
    132 H132       -3.3345  -13.7515  -43.0714 H         1 UNK         0.0800 
    133 H133       -3.6834  -15.3581  -43.6499 H         1 UNK         0.0800 
    134 H134       -5.8053  -16.0992  -42.3627 H         1 UNK         0.0800 
    135 H135       -7.3692  -15.6010  -42.9563 H         1 UNK         0.0800 
    136 H136       -7.0088  -15.1929  -45.8448 H         1 UNK         0.1150 
    137 H137       -6.0959  -19.0740  -47.4202 H         1 UNK         0.1150 
    138 H138       -5.4292  -18.2266  -43.2715 H         1 UNK         0.1150 
    139 H139       -6.0746  -20.7632  -44.6097 H         1 UNK         0.0800 
    140 H140       -5.0702  -20.7537  -46.0435 H         1 UNK         0.0800 
    141 H141       -4.8833  -22.4057  -43.4196 H         1 UNK         0.0800 
    142 H142       -3.3929  -22.2147  -42.5395 H         1 UNK         0.0800 
    143 H143       -3.4783  -22.8629  -45.5153 H         1 UNK         0.0600 
    144 H144       -1.2618  -22.2504  -43.8905 H         1 UNK         0.3000 
    145 H145        1.0987  -24.1391  -44.8372 H         1 UNK         0.0600 
    146 H146        0.8996  -22.2915  -47.2749 H         1 UNK         0.0600 
    147 H147        2.4010  -22.9612  -46.6391 H         1 UNK         0.0600 
    148 H148        1.1795  -24.0316  -47.2981 H         1 UNK         0.0600 
    149 H149        0.4786  -21.2257  -44.7697 H         1 UNK         0.3000 
    150 H150        2.5353  -20.6791  -42.0359 H         1 UNK         0.0600 
    151 H151        4.5407  -20.8377  -43.5092 H         1 UNK         0.0600 
    152 H152        4.0597  -19.1632  -43.2904 H         1 UNK         0.0600 
    153 H153        3.6827  -19.9989  -44.7970 H         1 UNK         0.0600 
    154 H154        1.5405  -19.0056  -44.2285 H         1 UNK         0.3000 
    155 H155       -1.6894  -18.6212  -42.9475 H         1 UNK         0.0600 
    156 H156       -0.4780  -17.1006  -41.3501 H         1 UNK         0.0600 
    157 H157       -1.2361  -16.2244  -42.6679 H         1 UNK         0.0600 
    158 H158        0.5049  -16.5042  -42.6836 H         1 UNK         0.0600 
    159 H159       -0.6742  -17.0299  -44.8962 H         1 UNK         0.3000 
    160 H160       -0.4370  -19.2579  -47.6633 H         1 UNK         0.0600 
    161 H161       -2.3025  -18.1808  -48.5090 H         1 UNK         0.0600 
    162 H162       -2.4063  -16.9984  -47.1885 H         1 UNK         0.0600 
    163 H163       -2.9102  -18.6650  -46.9562 H         1 UNK         0.0600 
    164 H164       -0.1793  -16.4240  -47.5413 H         1 UNK         0.3000 
    165 H165        1.9716  -15.4139  -46.6971 H         1 UNK         0.0600 
    166 H166        4.3707  -17.0995  -47.5457 H         1 UNK         0.0600 
    167 H167        4.4142  -15.4126  -47.0354 H         1 UNK         0.0600 
    168 H168        3.9400  -16.6646  -45.8974 H         1 UNK         0.0600 
    169 H169        1.9772  -14.6632  -48.7563 H         1 UNK         0.3000 
    170 H170        3.3742  -15.7959  -51.8390 H         1 UNK         0.0600 
    171 H171        0.5815  -14.7668  -51.1403 H         1 UNK         0.0600 
    172 H172        1.3686  -14.6426  -52.7085 H         1 UNK         0.0600 
    173 H173        0.9523  -16.2174  -52.0687 H         1 UNK         0.0600 
    174 H174        2.5023  -13.2367  -50.8147 H         1 UNK         0.3000 
    175 H175        5.6586  -12.1225  -49.7495 H         1 UNK         0.0600 
    176 H176        4.4097  -11.5166  -52.4838 H         1 UNK         0.0600 
    177 H177        5.5225  -10.4712  -51.5998 H         1 UNK         0.0600 
    178 H178        6.0705  -12.0258  -52.2054 H         1 UNK         0.0600 
    179 H179        3.1657  -10.8319  -50.4793 H         1 UNK         0.3000 
    180 H180        2.4339   -9.7458  -47.7884 H         1 UNK         0.0600 
    181 H181        0.7583  -11.3537  -49.7966 H         1 UNK         0.0600 
    182 H182        1.5148   -9.7843  -50.0579 H         1 UNK         0.0600 
    183 H183        0.1795   -9.9329  -48.9362 H         1 UNK         0.0600 
    184 H184        1.4304  -10.8201  -46.1414 H         1 UNK         0.3000 
    185 H185        0.6850  -14.0636  -45.4956 H         1 UNK         0.0600 
    186 H186        0.4358  -12.6832  -43.4847 H         1 UNK         0.0600 
    187 H187        1.8564  -12.1682  -44.3723 H         1 UNK         0.0600 
    188 H188        0.3760  -11.2064  -44.4355 H         1 UNK         0.0600 
    189 H189       -1.6062  -12.1972  -45.9028 H         1 UNK         0.3000 
    190 H190       -1.8741  -24.8663  -43.1180 H         1 UNK         0.3000 
    191 H191       -3.8402  -26.9257  -42.8645 H         1 UNK         0.0600 
    192 H192       -0.7880  -27.0089  -42.5617 H         1 UNK         0.0600 
    193 H193       -1.9455  -26.6431  -41.2812 H         1 UNK         0.0600 
    194 H194       -1.9031  -28.2465  -41.9954 H         1 UNK         0.0600 
    195 H195       -1.7003  -26.0937  -45.4787 H         1 UNK         0.3000 
    196 H196       -2.1926  -28.6617  -46.9177 H         1 UNK         0.0600 
    197 H197        0.2197  -28.0545  -46.5796 H         1 UNK         0.0600 
    198 H198       -0.0564  -26.5067  -47.3740 H         1 UNK         0.0600 
    199 H199       -0.2285  -28.0087  -48.2752 H         1 UNK         0.0600 
    200 H200       -4.0096  -26.2212  -46.4591 H         1 UNK         0.3000 
    201 H201       -5.5171  -24.9986  -47.5077 H         1 UNK         0.0600 
    202 H202       -6.4546  -25.7902  -49.6482 H         1 UNK         0.0600 
    203 H203       -6.1171  -27.1635  -48.6073 H         1 UNK         0.0600 
    204 H204       -5.0409  -26.7882  -49.9522 H         1 UNK         0.0600 
    205 H205       -3.0885  -23.8451  -47.3230 H         1 UNK         0.3000 
    206 H206       -1.8540  -22.0960  -47.8984 H         1 UNK         0.0600 
    207 H207       -3.9499  -20.8573  -48.3775 H         1 UNK         0.0600 
    208 H208       -3.9451  -21.4420  -50.0402 H         1 UNK         0.0600 
    209 H209       -2.6681  -20.3793  -49.4766 H         1 UNK         0.0600 
    210 H210       -0.9923  -24.4550  -48.6070 H         1 UNK         0.3000 
    211 H211        0.3805  -25.6937  -49.8498 H         1 UNK         0.0600 
    212 H212        1.8740  -23.6977  -49.6327 H         1 UNK         0.0600 
    213 H213        2.1467  -24.5328  -51.1521 H         1 UNK         0.0600 
    214 H214        1.2276  -23.0352  -51.1304 H         1 UNK         0.0600 
    215 H215       -2.0424  -26.0954  -50.6765 H         1 UNK         0.3000 
    216 H216       -3.5091  -26.6192  -52.2482 H         1 UNK         0.0600 
    217 H217       -2.6838  -27.7301  -54.2974 H         1 UNK         0.0600 
    218 H218       -1.0826  -27.0382  -54.0764 H         1 UNK         0.0600 
    219 H219       -1.7066  -28.2149  -52.9211 H         1 UNK         0.0600 
    220 H220       -3.4064  -24.0107  -51.8459 H         1 UNK         0.3000 
    221 H221       -3.9814  -22.0236  -52.4554 H         1 UNK         0.0600 
    222 H222       -4.9141  -23.1849  -55.1284 H         1 UNK         0.0600 
    223 H223       -5.8475  -23.2015  -53.6316 H         1 UNK         0.0600 
    224 H224       -5.4439  -21.6762  -54.3992 H         1 UNK         0.0600 
    225 H225       -1.1910  -23.1098  -53.4605 H         1 UNK         0.3000 
    226 H226       -0.5044  -21.2445  -55.5822 H         1 UNK         0.0600 
    227 H227        0.6726  -23.4412  -55.2473 H         1 UNK         0.0600 
    228 H228        1.7763  -22.0729  -55.2441 H         1 UNK         0.0600 
    229 H229        1.3330  -22.8382  -53.7263 H         1 UNK         0.0600 
    230 H230       -0.5069  -21.1662  -52.0418 H         1 UNK         0.3000 
    231 H231        1.0574  -18.6404  -51.9382 H         1 UNK         0.0600 
    232 H232        1.1454  -19.1155  -49.5363 H         1 UNK         0.0600 
    233 H233        1.6404  -20.5509  -50.4110 H         1 UNK         0.0600 
    234 H234        0.0310  -20.4553  -49.6972 H         1 UNK         0.0600 
    235 H235       -2.1011  -19.4276  -52.4931 H         1 UNK         0.3000 
    236 H236       -3.6423  -18.0556  -50.6052 H         1 UNK         0.0600 
    237 H237       -4.5764  -19.7466  -52.0510 H         1 UNK         0.0600 
    238 H238       -5.4410  -18.2405  -52.2958 H         1 UNK         0.0600 
    239 H239       -4.2646  -18.7718  -53.4888 H         1 UNK         0.0600 
    240 H240       -3.3989  -14.5388  -51.6304 H         1 UNK         0.3000 
    241 H241       -3.1300  -16.4613  -49.4273 H         1 UNK         0.0600 
    242 H242       -0.9293  -15.8033  -49.5598 H         1 UNK         0.3800 
    243 H243       -0.4954  -14.2578  -48.8035 H         1 UNK         0.3800 
    244 H244       -4.8377  -15.1871  -48.1133 H         1 UNK         0.0800 
    245 H245       -5.3764  -14.4161  -49.5861 H         1 UNK         0.0800 
    246 H246       -8.0108  -17.3049  -48.3605 H         1 UNK         0.0800 
    247 H247       -7.5635  -15.6421  -48.0860 H         1 UNK         0.0800 
@<TRIPOS>BOND
     1    1    2 1    
     2    1  127 1    
     3    1  128 1    
     4    1  129 1    
     5    2    3 2    
     6    2    4 am   BACKBONE|DICT|INTERRES
     7    4    5 1    
     8    4  130 1    
     9    5    6 1    
    10    5   65 1    
    11    5  131 1    
    12    6    7 1    
    13    6  132 1    
    14    6  133 1    
    15    7    8 1    
    16    8    9 1    
    17    8  134 1    
    18    8  135 1    
    19    9   10 ar   
    20    9   14 ar   
    21   10   11 ar   
    22   10  136 1    
    23   11   12 ar   
    24   11  126 1    
    25   12   13 ar   
    26   12  137 1    
    27   13   14 ar   
    28   13   15 1    
    29   14  138 1    
    30   15   16 1    
    31   15  139 1    
    32   15  140 1    
    33   16   17 1    
    34   17   18 1    
    35   17  141 1    
    36   17  142 1    
    37   18   19 1    
    38   18   67 1    
    39   18  143 1    
    40   19   20 am   BACKBONE|DICT|INTERRES
    41   19  144 1    
    42   20   21 2    
    43   20   22 1    
    44   22   23 1    
    45   22   24 1    
    46   22  145 1    
    47   23  146 1    
    48   23  147 1    
    49   23  148 1    
    50   24   25 am   BACKBONE|DICT|INTERRES
    51   24  149 1    
    52   25   26 2    
    53   25   27 1    
    54   27   28 1    
    55   27   29 1    
    56   27  150 1    
    57   28  151 1    
    58   28  152 1    
    59   28  153 1    
    60   29   30 am   BACKBONE|DICT|INTERRES
    61   29  154 1    
    62   30   31 2    
    63   30   32 1    
    64   32   33 1    
    65   32   34 1    
    66   32  155 1    
    67   33  156 1    
    68   33  157 1    
    69   33  158 1    
    70   34   35 am   BACKBONE|DICT|INTERRES
    71   34  159 1    
    72   35   36 2    
    73   35   37 1    
    74   37   38 1    
    75   37   39 1    
    76   37  160 1    
    77   38  161 1    
    78   38  162 1    
    79   38  163 1    
    80   39   40 am   BACKBONE|DICT|INTERRES
    81   39  164 1    
    82   40   41 2    
    83   40   42 1    
    84   42   43 1    
    85   42   44 1    
    86   42  165 1    
    87   43  166 1    
    88   43  167 1    
    89   43  168 1    
    90   44   45 am   BACKBONE|DICT|INTERRES
    91   44  169 1    
    92   45   46 2    
    93   45   47 1    
    94   47   48 1    
    95   47   49 1    
    96   47  170 1    
    97   48  171 1    
    98   48  172 1    
    99   48  173 1    
   100   49   50 am   BACKBONE|DICT|INTERRES
   101   49  174 1    
   102   50   51 2    
   103   50   52 1    
   104   52   53 1    
   105   52   54 1    
   106   52  175 1    
   107   53  176 1    
   108   53  177 1    
   109   53  178 1    
   110   54   55 am   BACKBONE|DICT|INTERRES
   111   54  179 1    
   112   55   56 2    
   113   55   57 1    
   114   57   58 1    
   115   57   59 1    
   116   57  180 1    
   117   58  181 1    
   118   58  182 1    
   119   58  183 1    
   120   59   60 am   BACKBONE|DICT|INTERRES
   121   59  184 1    
   122   60   61 2    
   123   60   62 1    
   124   62   63 1    
   125   62   64 1    
   126   62  185 1    
   127   63  186 1    
   128   63  187 1    
   129   63  188 1    
   130   64   65 am   BACKBONE|DICT|INTERRES
   131   64  189 1    
   132   65   66 2    
   133   67   68 2    
   134   67   69 am   BACKBONE|DICT|INTERRES
   135   69   70 1    
   136   69  190 1    
   137   70   71 1    
   138   70   72 1    
   139   70  191 1    
   140   71  192 1    
   141   71  193 1    
   142   71  194 1    
   143   72   73 2    
   144   72   74 am   BACKBONE|DICT|INTERRES
   145   74   75 1    
   146   74  195 1    
   147   75   76 1    
   148   75   77 1    
   149   75  196 1    
   150   76  197 1    
   151   76  198 1    
   152   76  199 1    
   153   77   78 2    
   154   77   79 am   BACKBONE|DICT|INTERRES
   155   79   80 1    
   156   79  200 1    
   157   80   81 1    
   158   80   82 1    
   159   80  201 1    
   160   81  202 1    
   161   81  203 1    
   162   81  204 1    
   163   82   83 2    
   164   82   84 am   BACKBONE|DICT|INTERRES
   165   84   85 1    
   166   84  205 1    
   167   85   86 1    
   168   85   87 1    
   169   85  206 1    
   170   86  207 1    
   171   86  208 1    
   172   86  209 1    
   173   87   88 2    
   174   87   89 am   BACKBONE|DICT|INTERRES
   175   89   90 1    
   176   89  210 1    
   177   90   91 1    
   178   90   92 1    
   179   90  211 1    
   180   91  212 1    
   181   91  213 1    
   182   91  214 1    
   183   92   93 2    
   184   92   94 am   BACKBONE|DICT|INTERRES
   185   94   95 1    
   186   94  215 1    
   187   95   96 1    
   188   95   97 1    
   189   95  216 1    
   190   96  217 1    
   191   96  218 1    
   192   96  219 1    
   193   97   98 2    
   194   97   99 am   BACKBONE|DICT|INTERRES
   195   99  100 1    
   196   99  220 1    
   197  100  101 1    
   198  100  102 1    
   199  100  221 1    
   200  101  222 1    
   201  101  223 1    
   202  101  224 1    
   203  102  103 2    
   204  102  104 am   BACKBONE|DICT|INTERRES
   205  104  105 1    
   206  104  225 1    
   207  105  106 1    
   208  105  107 1    
   209  105  226 1    
   210  106  227 1    
   211  106  228 1    
   212  106  229 1    
   213  107  108 2    
   214  107  109 am   BACKBONE|DICT|INTERRES
   215  109  110 1    
   216  109  230 1    
   217  110  111 1    
   218  110  112 1    
   219  110  231 1    
   220  111  232 1    
   221  111  233 1    
   222  111  234 1    
   223  112  113 2    
   224  112  114 am   BACKBONE|DICT|INTERRES
   225  114  115 1    
   226  114  235 1    
   227  115  116 1    
   228  115  117 1    
   229  115  236 1    
   230  116  237 1    
   231  116  238 1    
   232  116  239 1    
   233  117  118 2    
   234  117  119 am   BACKBONE|DICT|INTERRES
   235  119  120 1    
   236  119  240 1    
   237  120  121 1    
   238  120  124 1    
   239  120  241 1    
   240  121  122 am   BACKBONE|DICT|INTERRES
   241  121  123 2    
   242  122  242 1    
   243  122  243 1    
   244  124  125 1    
   245  124  244 1    
   246  124  245 1    
   247  125  126 1    
   248  126  246 1    
   249  126  247 1    
@<TRIPOS>SUBSTRUCTURE
     1 UNK         1 GROUP             0       ****    0 ROOT    
