@<TRIPOS>MOLECULE
3R540
247   249    1
SMALL
USER_CHARGES


@<TRIPOS>ATOM
      1 CA         -7.0972  -16.7981  -46.6583 C.3       0 UNK        -0.1800 
      2 C          -6.2345  -15.5458  -46.5925 C.2       0 UNK         0.5000 
      3 O          -6.6012  -14.5770  -45.9263 O.2       0 UNK        -0.5000 
      4 N          -5.0866  -15.5583  -47.2789 N.am      1 UNK        -0.5000 
      5 CA         -4.0988  -14.4755  -47.3564 C.3       1 UNK         0.1400 
      6 C6         -3.2766  -14.5321  -48.6759 C.3       23 UNK        -0.0398 
      7 S7         -2.7001  -16.2033  -49.1381 S.3       23 UNK        -0.2404 
      8 C8         -0.8937  -16.0017  -49.2057 C.3       23 UNK        -0.0205 
      9 C9         -0.1641  -17.3085  -49.5077 C.ar      23 UNK        -0.0193 
     10 C10        -0.5620  -18.1428  -50.5598 C.ar      23 UNK        -0.1150 
     11 C11         0.1306  -19.3276  -50.8309 C.ar      23 UNK        -0.0193 
     12 C12         1.2281  -19.6800  -50.0398 C.ar      23 UNK        -0.1150 
     13 C13         1.6440  -18.8522  -48.9944 C.ar      23 UNK        -0.0193 
     14 C14         0.9464  -17.6682  -48.7405 C.ar      23 UNK        -0.1150 
     15 C15         2.8623  -19.2206  -48.1573 C.3       23 UNK        -0.0205 
     16 S16         2.4703  -20.4163  -46.8390 S.3       23 UNK        -0.2404 
     17 C17         1.3210  -19.4525  -45.8044 C.3       23 UNK        -0.0398 
     18 CA         -0.1111  -20.0310  -45.8757 C.3       11 UNK         0.1400 
     19 N          -0.1988  -21.2861  -45.1235 N.am      11 UNK        -0.5000 
     20 C          -1.2842  -22.0506  -44.9478 C.2       10 UNK         0.5000 
     21 O          -2.3727  -21.8253  -45.4749 O.2       10 UNK        -0.5000 
     22 CA         -1.1437  -23.2228  -43.9588 C.3       10 UNK         0.1400 
     23 CB         -0.7867  -24.5150  -44.7070 C.3       10 UNK        -0.1800 
     24 N          -0.1457  -22.9852  -42.9102 N.am      10 UNK        -0.5000 
     25 C          -0.1465  -21.9723  -42.0328 C.2       9 UNK         0.5000 
     26 O          -1.0098  -21.0949  -42.0100 O.2       9 UNK        -0.5000 
     27 CA          1.0438  -21.8793  -41.0624 C.3       9 UNK         0.1400 
     28 CB          0.8443  -22.7901  -39.8367 C.3       9 UNK        -0.1800 
     29 N           2.3533  -22.0909  -41.6939 N.am      9 UNK        -0.5000 
     30 C           2.8879  -23.2158  -42.1976 C.2       8 UNK         0.5000 
     31 O           2.2893  -24.2906  -42.2525 O.2       8 UNK        -0.5000 
     32 CA          4.3228  -23.1299  -42.7632 C.3       8 UNK         0.1400 
     33 CB          4.2866  -23.1359  -44.2995 C.3       8 UNK        -0.1800 
     34 N           5.0608  -21.9457  -42.3190 N.am      8 UNK        -0.5000 
     35 C           5.4478  -21.6972  -41.0600 C.2       7 UNK         0.5000 
     36 O           5.3460  -22.5141  -40.1440 O.2       7 UNK        -0.5000 
     37 CA          6.0107  -20.2909  -40.7598 C.3       7 UNK         0.1400 
     38 CB          7.5311  -20.3577  -40.5457 C.3       7 UNK        -0.1800 
     39 N           5.7232  -19.2668  -41.7742 N.am      7 UNK        -0.5000 
     40 C           4.5109  -18.8599  -42.1757 C.2       6 UNK         0.5000 
     41 O           3.4506  -19.3592  -41.7864 O.2       6 UNK        -0.5000 
     42 CA          4.4916  -17.7375  -43.2227 C.3       6 UNK         0.1400 
     43 CB          5.0267  -18.2330  -44.5786 C.3       6 UNK        -0.1800 
     44 N           3.1234  -17.2617  -43.3979 N.am      6 UNK        -0.5000 
     45 C           2.7711  -15.9969  -43.6438 C.2       5 UNK         0.5000 
     46 O           3.5736  -15.0604  -43.6910 O.2       5 UNK        -0.5000 
     47 CA          1.2621  -15.7459  -43.8502 C.3       5 UNK         0.1400 
     48 CB          0.5220  -15.7562  -42.5040 C.3       5 UNK        -0.1800 
     49 N           0.9852  -14.4827  -44.5373 N.am      5 UNK        -0.5000 
     50 C           1.3526  -14.1938  -45.7955 C.2       4 UNK         0.5000 
     51 O           1.9039  -15.0036  -46.5422 O.2       4 UNK        -0.5000 
     52 CA          1.0594  -12.7657  -46.2972 C.3       4 UNK         0.1400 
     53 CB          0.8827  -12.6938  -47.8252 C.3       4 UNK        -0.1800 
     54 N          -0.1407  -12.2307  -45.6594 N.am      4 UNK        -0.5000 
     55 C          -0.2278  -11.0760  -44.9862 C.2       3 UNK         0.5000 
     56 O           0.7174  -10.3011  -44.8363 O.2       3 UNK        -0.5000 
     57 CA         -1.5986  -10.7157  -44.3710 C.3       3 UNK         0.1400 
     58 CB         -2.2873   -9.6216  -45.2015 C.3       3 UNK        -0.1800 
     59 N          -2.5102  -11.8562  -44.2524 N.am      3 UNK        -0.5000 
     60 C          -2.3350  -12.8992  -43.4299 C.2       2 UNK         0.5000 
     61 O          -1.4191  -12.9722  -42.6109 O.2       2 UNK        -0.5000 
     62 CA         -3.3097  -14.0829  -43.5862 C.3       2 UNK         0.1400 
     63 CB         -4.4368  -14.0024  -42.5475 C.3       2 UNK        -0.1800 
     64 N          -3.8995  -14.2144  -44.9233 N.am      2 UNK        -0.5000 
     65 C          -3.2357  -14.3832  -46.0759 C.2       1 UNK         0.5000 
     66 O          -2.0076  -14.4254  -46.1429 O.2       1 UNK        -0.5000 
     67 C          -1.1419  -18.9724  -45.4278 C.2       11 UNK         0.5000 
     68 O          -1.6092  -18.2066  -46.2679 O.2       11 UNK        -0.5000 
     69 N          -1.5338  -18.9722  -44.1433 N.am      12 UNK        -0.5000 
     70 CA         -2.5804  -18.0888  -43.6199 C.3       12 UNK         0.1400 
     71 CB         -2.5533  -18.1114  -42.0850 C.3       12 UNK        -0.1800 
     72 C          -3.9914  -18.4278  -44.1446 C.2       12 UNK         0.5000 
     73 O          -4.8633  -17.5606  -44.1315 O.2       12 UNK        -0.5000 
     74 N          -4.1779  -19.6663  -44.6185 N.am      13 UNK        -0.5000 
     75 CA         -5.3769  -20.1629  -45.2915 C.3       13 UNK         0.1400 
     76 CB         -5.7954  -21.4861  -44.6267 C.3       13 UNK        -0.1800 
     77 C          -5.1256  -20.3400  -46.8047 C.2       13 UNK         0.5000 
     78 O          -5.8453  -21.0989  -47.4556 O.2       13 UNK        -0.5000 
     79 N          -4.0921  -19.6638  -47.3342 N.am      14 UNK        -0.5000 
     80 CA         -3.6315  -19.6747  -48.7278 C.3       14 UNK         0.1400 
     81 CB         -4.7018  -19.0640  -49.6558 C.3       14 UNK        -0.1800 
     82 C          -3.1334  -21.0468  -49.2261 C.2       14 UNK         0.5000 
     83 O          -3.0790  -21.2701  -50.4347 O.2       14 UNK        -0.5000 
     84 N          -2.7781  -21.9406  -48.2906 N.am      15 UNK        -0.5000 
     85 CA         -2.3144  -23.3127  -48.5064 C.3       15 UNK         0.1400 
     86 CB         -0.8622  -23.3132  -49.0242 C.3       15 UNK        -0.1800 
     87 C          -3.3004  -24.1750  -49.3274 C.2       15 UNK         0.5000 
     88 O          -2.8829  -25.0078  -50.1351 O.2       15 UNK        -0.5000 
     89 N          -4.6022  -23.9586  -49.0788 N.am      16 UNK        -0.5000 
     90 CA         -5.7510  -24.6462  -49.6710 C.3       16 UNK         0.1400 
     91 CB         -5.8359  -26.0968  -49.1442 C.3       16 UNK        -0.1800 
     92 C          -5.7654  -24.5290  -51.2095 C.2       16 UNK         0.5000 
     93 O          -5.9239  -23.4231  -51.7268 O.2       16 UNK        -0.5000 
     94 N          -5.5936  -25.6556  -51.9149 N.am      17 UNK        -0.5000 
     95 CA         -5.6050  -25.7586  -53.3770 C.3       17 UNK         0.1400 
     96 CB         -5.5269  -27.2415  -53.7705 C.3       17 UNK        -0.1800 
     97 C          -4.4946  -24.9556  -54.0840 C.2       17 UNK         0.5000 
     98 O          -4.6548  -24.6125  -55.2563 O.2       17 UNK        -0.5000 
     99 N          -3.4065  -24.6417  -53.3650 N.am      18 UNK        -0.5000 
    100 CA        -2.2968  -23.8210  -53.8530 C.3       18 UNK         0.1400 
    101 CB        -1.1380  -23.8922  -52.8535 C.3       18 UNK        -0.1800 
    102 C         -2.6810  -22.3535  -54.1255 C.2       18 UNK         0.5000 
    103 O         -1.9727  -21.6849  -54.8776 O.2       18 UNK        -0.5000 
    104 N         -3.8051  -21.8814  -53.5642 N.am      19 UNK        -0.5000 
    105 CA        -4.3537  -20.5368  -53.7636 C.3       19 UNK         0.1400 
    106 CB        -5.6596  -20.4052  -52.9688 C.3       19 UNK        -0.1800 
    107 C         -4.6029  -20.1820  -55.2425 C.2       19 UNK         0.5000 
    108 O         -4.4437  -19.0224  -55.6239 O.2       19 UNK        -0.5000 
    109 N         -4.9411  -21.1935  -56.0551 N.am      20 UNK        -0.5000 
    110 CA        -5.1189  -21.0813  -57.5027 C.3       20 UNK         0.1400 
    111 CB        -5.7503  -22.3799  -58.0268 C.3       20 UNK        -0.1800 
    112 C         -3.8121  -20.7718  -58.2614 C.2       20 UNK         0.5000 
    113 O         -3.8718  -20.1739  -59.3366 O.2       20 UNK        -0.5000 
    114 N         -2.6649  -21.1738  -57.6971 N.am      21 UNK        -0.5000 
    115 CA        -1.3357  -20.8741  -58.2244 C.3       21 UNK         0.1400 
    116 CB        -0.3847  -22.0427  -57.9183 C.3       21 UNK        -0.1800 
    117 C         -0.7948  -19.5590  -57.6396 C.2       21 UNK         0.5000 
    118 O         -0.2210  -18.7611  -58.3825 O.2       21 UNK        -0.5000 
    119 N         -0.9833  -19.3561  -56.3282 N.am      22 UNK        -0.5000 
    120 CA        -0.5319  -18.1572  -55.6017 C.3       22 UNK         0.1400 
    121 C         -1.3068  -16.8593  -55.9666 C.2       22 UNK         0.5000 
    122 N         -2.5907  -16.9250  -56.2966 N.am      22 UNK        -0.7600 
    123 O         -0.7306  -15.7751  -55.9543 O.2       22 UNK        -0.5000 
    124 C124       -0.5279  -18.3620  -54.0668 C.3       23 UNK        -0.0398 
    125 S125        0.5129  -19.7651  -53.5384 S.3       23 UNK        -0.2404 
    126 C126       -0.2975  -20.2303  -51.9777 C.3       23 UNK        -0.0205 
    127 H127       -6.6250  -17.5850  -47.2467 H         1 UNK         0.0600 
    128 H128       -8.0615  -16.5664  -47.1101 H         1 UNK         0.0600 
    129 H129       -7.2733  -17.1830  -45.6540 H         1 UNK         0.0600 
    130 H130       -4.8209  -16.3912  -47.7850 H         1 UNK         0.3000 
    131 H131       -4.6510  -13.5338  -47.3904 H         1 UNK         0.0600 
    132 H132       -2.4388  -13.8332  -48.6547 H         1 UNK         0.0800 
    133 H133       -3.9099  -14.1877  -49.4944 H         1 UNK         0.0800 
    134 H134       -0.5622  -15.6008  -48.2462 H         1 UNK         0.0800 
    135 H135       -0.6362  -15.2647  -49.9672 H         1 UNK         0.0800 
    136 H136       -1.4113  -17.8688  -51.1692 H         1 UNK         0.1150 
    137 H137        1.7674  -20.5942  -50.2447 H         1 UNK         0.1150 
    138 H138        1.2718  -17.0187  -47.9421 H         1 UNK         0.1150 
    139 H139        3.6295  -19.6501  -48.8031 H         1 UNK         0.0800 
    140 H140        3.3067  -18.3275  -47.7143 H         1 UNK         0.0800 
    141 H141        1.3529  -18.4074  -46.1125 H         1 UNK         0.0800 
    142 H142        1.6889  -19.4642  -44.7777 H         1 UNK         0.0800 
    143 H143       -0.3462  -20.2614  -46.9177 H         1 UNK         0.0600 
    144 H144        0.6474  -21.5762  -44.6571 H         1 UNK         0.3000 
    145 H145       -2.1108  -23.3589  -43.4709 H         1 UNK         0.0600 
    146 H146       -0.7234  -25.3616  -44.0231 H         1 UNK         0.0600 
    147 H147       -1.5448  -24.7589  -45.4516 H         1 UNK         0.0600 
    148 H148        0.1702  -24.4299  -45.2239 H         1 UNK         0.0600 
    149 H149        0.6181  -23.6527  -42.8387 H         1 UNK         0.3000 
    150 H150        1.0654  -20.8506  -40.6987 H         1 UNK         0.0600 
    151 H151       -0.0755  -22.5336  -39.3098 H         1 UNK         0.0600 
    152 H152        1.6659  -22.6816  -39.1286 H         1 UNK         0.0600 
    153 H153        0.7761  -23.8425  -40.1130 H         1 UNK         0.0600 
    154 H154        2.9187  -21.2480  -41.7444 H         1 UNK         0.3000 
    155 H155        4.8628  -24.0165  -42.4248 H         1 UNK         0.0600 
    156 H156        3.7708  -22.2590  -44.6925 H         1 UNK         0.0600 
    157 H157        3.7678  -24.0180  -44.6772 H         1 UNK         0.0600 
    158 H158        5.2929  -23.1492  -44.7186 H         1 UNK         0.0600 
    159 H159        5.1998  -21.2188  -43.0046 H         1 UNK         0.3000 
    160 H160        5.5497  -19.9605  -39.8269 H         1 UNK         0.0600 
    161 H161        8.0519  -20.6532  -41.4574 H         1 UNK         0.0600 
    162 H162        7.7877  -21.0824  -39.7717 H         1 UNK         0.0600 
    163 H163        7.9286  -19.3936  -40.2278 H         1 UNK         0.0600 
    164 H164        6.5332  -18.8099  -42.1685 H         1 UNK         0.3000 
    165 H165        5.1257  -16.9290  -42.8524 H         1 UNK         0.0600 
    166 H166        4.9751  -17.4481  -45.3336 H         1 UNK         0.0600 
    167 H167        6.0702  -18.5408  -44.5064 H         1 UNK         0.0600 
    168 H168        4.4572  -19.0863  -44.9475 H         1 UNK         0.0600 
    169 H169        2.4162  -17.9621  -43.2233 H         1 UNK         0.3000 
    170 H170        0.8646  -16.5520  -44.4698 H         1 UNK         0.0600 
    171 H171        0.8463  -14.9368  -41.8614 H         1 UNK         0.0600 
    172 H172       -0.5536  -15.6631  -42.6464 H         1 UNK         0.0600 
    173 H173        0.6947  -16.6870  -41.9624 H         1 UNK         0.0600 
    174 H174        0.5455  -13.7580  -43.9877 H         1 UNK         0.3000 
    175 H175        1.9326  -12.1682  -46.0289 H         1 UNK         0.0600 
    176 H176        0.0249  -13.2790  -48.1551 H         1 UNK         0.0600 
    177 H177        0.7299  -11.6656  -48.1533 H         1 UNK         0.0600 
    178 H178        1.7634  -13.0712  -48.3461 H         1 UNK         0.0600 
    179 H179       -0.9529  -12.8392  -45.7130 H         1 UNK         0.3000 
    180 H180       -1.4140  -10.3222  -43.3693 H         1 UNK         0.0600 
    181 H181       -3.2237   -9.3063  -44.7409 H         1 UNK         0.0600 
    182 H182       -2.5077   -9.9639  -46.2135 H         1 UNK         0.0600 
    183 H183       -1.6546   -8.7369  -45.2851 H         1 UNK         0.0600 
    184 H184       -3.2926  -11.8786  -44.8894 H         1 UNK         0.3000 
    185 H185       -2.7366  -14.9867  -43.3890 H         1 UNK         0.0600 
    186 H186       -5.0663  -14.8922  -42.5826 H         1 UNK         0.0600 
    187 H187       -4.0340  -13.9301  -41.5363 H         1 UNK         0.0600 
    188 H188       -5.0738  -13.1327  -42.7125 H         1 UNK         0.0600 
    189 H189       -4.9142  -14.2158  -44.9740 H         1 UNK         0.3000 
    190 H190       -1.1686  -19.6677  -43.5006 H         1 UNK         0.3000 
    191 H191       -2.3453  -17.0786  -43.9545 H         1 UNK         0.0600 
    192 H192       -3.2514  -17.3814  -41.6732 H         1 UNK         0.0600 
    193 H193       -1.5634  -17.8688  -41.6996 H         1 UNK         0.0600 
    194 H194       -2.8337  -19.0900  -41.6937 H         1 UNK         0.0600 
    195 H195       -3.3930  -20.3088  -44.6215 H         1 UNK         0.3000 
    196 H196       -6.1978  -19.4522  -45.1828 H         1 UNK         0.0600 
    197 H197       -5.0382  -22.2599  -44.7591 H         1 UNK         0.0600 
    198 H198       -5.9560  -21.3548  -43.5565 H         1 UNK         0.0600 
    199 H199       -6.7282  -21.8620  -45.0488 H         1 UNK         0.0600 
    200 H200       -3.5305  -19.0926  -46.7138 H         1 UNK         0.3000 
    201 H201       -2.7539  -19.0302  -48.7527 H         1 UNK         0.0600 
    202 H202       -4.2988  -18.8938  -50.6548 H         1 UNK         0.0600 
    203 H203       -5.0517  -18.1024  -49.2831 H         1 UNK         0.0600 
    204 H204       -5.5694  -19.7164  -49.7544 H         1 UNK         0.0600 
    205 H205       -2.8505  -21.6687  -47.3143 H         1 UNK         0.3000 
    206 H206       -2.2969  -23.7800  -47.5221 H         1 UNK         0.0600 
    207 H207       -0.1879  -22.8968  -48.2753 H         1 UNK         0.0600 
    208 H208       -0.5127  -24.3219  -49.2463 H         1 UNK         0.0600 
    209 H209       -0.7512  -22.7130  -49.9247 H         1 UNK         0.0600 
    210 H210       -4.8337  -23.1988  -48.4518 H         1 UNK         0.3000 
    211 H211       -6.6386  -24.1173  -49.3207 H         1 UNK         0.0600 
    212 H212       -6.7193  -26.6062  -49.5315 H         1 UNK         0.0600 
    213 H213       -5.9139  -26.1087  -48.0570 H         1 UNK         0.0600 
    214 H214       -4.9613  -26.6892  -49.4150 H         1 UNK         0.0600 
    215 H215       -5.4401  -26.5144  -51.4068 H         1 UNK         0.3000 
    216 H216       -6.5600  -25.3618  -53.7272 H         1 UNK         0.0600 
    217 H217       -4.6020  -27.7016  -53.4202 H         1 UNK         0.0600 
    218 H218       -5.5634  -27.3615  -54.8542 H         1 UNK         0.0600 
    219 H219       -6.3623  -27.8054  -53.3550 H         1 UNK         0.0600 
    220 H220       -3.3605  -24.9366  -52.3968 H         1 UNK         0.3000 
    221 H221       -1.9558  -24.2470  -54.7988 H         1 UNK         0.0600 
    222 H222       -0.8250  -24.9211  -52.6756 H         1 UNK         0.0600 
    223 H223       -1.4281  -23.4574  -51.8995 H         1 UNK         0.0600 
    224 H224       -0.2696  -23.3421  -53.2185 H         1 UNK         0.0600 
    225 H225       -4.3255  -22.4855  -52.9386 H         1 UNK         0.3000 
    226 H226       -3.6302  -19.8257  -53.3616 H         1 UNK         0.0600 
    227 H227       -6.4384  -21.0586  -53.3643 H         1 UNK         0.0600 
    228 H228       -5.5106  -20.6701  -51.9231 H         1 UNK         0.0600 
    229 H229       -6.0367  -19.3824  -52.9993 H         1 UNK         0.0600 
    230 H230       -5.0239  -22.1205  -55.6595 H         1 UNK         0.3000 
    231 H231       -5.8131  -20.2605  -57.6945 H         1 UNK         0.0600 
    232 H232       -5.1085  -23.2420  -57.8399 H         1 UNK         0.0600 
    233 H233       -5.9232  -22.3251  -59.1024 H         1 UNK         0.0600 
    234 H234       -6.7133  -22.5702  -57.5525 H         1 UNK         0.0600 
    235 H235       -2.6934  -21.6030  -56.7798 H         1 UNK         0.3000 
    236 H236       -1.3864  -20.7652  -59.3099 H         1 UNK         0.0600 
    237 H237       -0.2589  -22.1982  -56.8465 H         1 UNK         0.0600 
    238 H238       -0.7529  -22.9731  -58.3505 H         1 UNK         0.0600 
    239 H239        0.6044  -21.8575  -58.3388 H         1 UNK         0.0600 
    240 H240       -1.4080  -20.0920  -55.7714 H         1 UNK         0.3000 
    241 H241        0.5043  -17.9830  -55.8992 H         1 UNK         0.0600 
    242 H242       -3.0790  -16.0778  -56.5380 H         1 UNK         0.3800 
    243 H243       -3.1124  -17.7942  -56.2260 H         1 UNK         0.3800 
    244 H244       -1.5484  -18.5146  -53.7131 H         1 UNK         0.0800 
    245 H245       -0.1569  -17.4683  -53.5614 H         1 UNK         0.0800 
    246 H246       -1.3805  -20.2116  -52.0993 H         1 UNK         0.0800 
    247 H247       -0.0395  -21.2639  -51.7470 H         1 UNK         0.0800 
@<TRIPOS>BOND
     1    1    2 1    
     2    1  127 1    
     3    1  128 1    
     4    1  129 1    
     5    2    3 2    
     6    2    4 am   BACKBONE|DICT|INTERRES
     7    4    5 1    
     8    4  130 1    
     9    5    6 1    
    10    5   65 1    
    11    5  131 1    
    12    6    7 1    
    13    6  132 1    
    14    6  133 1    
    15    7    8 1    
    16    8    9 1    
    17    8  134 1    
    18    8  135 1    
    19    9   10 ar   
    20    9   14 ar   
    21   10   11 ar   
    22   10  136 1    
    23   11   12 ar   
    24   11  126 1    
    25   12   13 ar   
    26   12  137 1    
    27   13   14 ar   
    28   13   15 1    
    29   14  138 1    
    30   15   16 1    
    31   15  139 1    
    32   15  140 1    
    33   16   17 1    
    34   17   18 1    
    35   17  141 1    
    36   17  142 1    
    37   18   19 1    
    38   18   67 1    
    39   18  143 1    
    40   19   20 am   BACKBONE|DICT|INTERRES
    41   19  144 1    
    42   20   21 2    
    43   20   22 1    
    44   22   23 1    
    45   22   24 1    
    46   22  145 1    
    47   23  146 1    
    48   23  147 1    
    49   23  148 1    
    50   24   25 am   BACKBONE|DICT|INTERRES
    51   24  149 1    
    52   25   26 2    
    53   25   27 1    
    54   27   28 1    
    55   27   29 1    
    56   27  150 1    
    57   28  151 1    
    58   28  152 1    
    59   28  153 1    
    60   29   30 am   BACKBONE|DICT|INTERRES
    61   29  154 1    
    62   30   31 2    
    63   30   32 1    
    64   32   33 1    
    65   32   34 1    
    66   32  155 1    
    67   33  156 1    
    68   33  157 1    
    69   33  158 1    
    70   34   35 am   BACKBONE|DICT|INTERRES
    71   34  159 1    
    72   35   36 2    
    73   35   37 1    
    74   37   38 1    
    75   37   39 1    
    76   37  160 1    
    77   38  161 1    
    78   38  162 1    
    79   38  163 1    
    80   39   40 am   BACKBONE|DICT|INTERRES
    81   39  164 1    
    82   40   41 2    
    83   40   42 1    
    84   42   43 1    
    85   42   44 1    
    86   42  165 1    
    87   43  166 1    
    88   43  167 1    
    89   43  168 1    
    90   44   45 am   BACKBONE|DICT|INTERRES
    91   44  169 1    
    92   45   46 2    
    93   45   47 1    
    94   47   48 1    
    95   47   49 1    
    96   47  170 1    
    97   48  171 1    
    98   48  172 1    
    99   48  173 1    
   100   49   50 am   BACKBONE|DICT|INTERRES
   101   49  174 1    
   102   50   51 2    
   103   50   52 1    
   104   52   53 1    
   105   52   54 1    
   106   52  175 1    
   107   53  176 1    
   108   53  177 1    
   109   53  178 1    
   110   54   55 am   BACKBONE|DICT|INTERRES
   111   54  179 1    
   112   55   56 2    
   113   55   57 1    
   114   57   58 1    
   115   57   59 1    
   116   57  180 1    
   117   58  181 1    
   118   58  182 1    
   119   58  183 1    
   120   59   60 am   BACKBONE|DICT|INTERRES
   121   59  184 1    
   122   60   61 2    
   123   60   62 1    
   124   62   63 1    
   125   62   64 1    
   126   62  185 1    
   127   63  186 1    
   128   63  187 1    
   129   63  188 1    
   130   64   65 am   BACKBONE|DICT|INTERRES
   131   64  189 1    
   132   65   66 2    
   133   67   68 2    
   134   67   69 am   BACKBONE|DICT|INTERRES
   135   69   70 1    
   136   69  190 1    
   137   70   71 1    
   138   70   72 1    
   139   70  191 1    
   140   71  192 1    
   141   71  193 1    
   142   71  194 1    
   143   72   73 2    
   144   72   74 am   BACKBONE|DICT|INTERRES
   145   74   75 1    
   146   74  195 1    
   147   75   76 1    
   148   75   77 1    
   149   75  196 1    
   150   76  197 1    
   151   76  198 1    
   152   76  199 1    
   153   77   78 2    
   154   77   79 am   BACKBONE|DICT|INTERRES
   155   79   80 1    
   156   79  200 1    
   157   80   81 1    
   158   80   82 1    
   159   80  201 1    
   160   81  202 1    
   161   81  203 1    
   162   81  204 1    
   163   82   83 2    
   164   82   84 am   BACKBONE|DICT|INTERRES
   165   84   85 1    
   166   84  205 1    
   167   85   86 1    
   168   85   87 1    
   169   85  206 1    
   170   86  207 1    
   171   86  208 1    
   172   86  209 1    
   173   87   88 2    
   174   87   89 am   BACKBONE|DICT|INTERRES
   175   89   90 1    
   176   89  210 1    
   177   90   91 1    
   178   90   92 1    
   179   90  211 1    
   180   91  212 1    
   181   91  213 1    
   182   91  214 1    
   183   92   93 2    
   184   92   94 am   BACKBONE|DICT|INTERRES
   185   94   95 1    
   186   94  215 1    
   187   95   96 1    
   188   95   97 1    
   189   95  216 1    
   190   96  217 1    
   191   96  218 1    
   192   96  219 1    
   193   97   98 2    
   194   97   99 am   BACKBONE|DICT|INTERRES
   195   99  100 1    
   196   99  220 1    
   197  100  101 1    
   198  100  102 1    
   199  100  221 1    
   200  101  222 1    
   201  101  223 1    
   202  101  224 1    
   203  102  103 2    
   204  102  104 am   BACKBONE|DICT|INTERRES
   205  104  105 1    
   206  104  225 1    
   207  105  106 1    
   208  105  107 1    
   209  105  226 1    
   210  106  227 1    
   211  106  228 1    
   212  106  229 1    
   213  107  108 2    
   214  107  109 am   BACKBONE|DICT|INTERRES
   215  109  110 1    
   216  109  230 1    
   217  110  111 1    
   218  110  112 1    
   219  110  231 1    
   220  111  232 1    
   221  111  233 1    
   222  111  234 1    
   223  112  113 2    
   224  112  114 am   BACKBONE|DICT|INTERRES
   225  114  115 1    
   226  114  235 1    
   227  115  116 1    
   228  115  117 1    
   229  115  236 1    
   230  116  237 1    
   231  116  238 1    
   232  116  239 1    
   233  117  118 2    
   234  117  119 am   BACKBONE|DICT|INTERRES
   235  119  120 1    
   236  119  240 1    
   237  120  121 1    
   238  120  124 1    
   239  120  241 1    
   240  121  122 am   BACKBONE|DICT|INTERRES
   241  121  123 2    
   242  122  242 1    
   243  122  243 1    
   244  124  125 1    
   245  124  244 1    
   246  124  245 1    
   247  125  126 1    
   248  126  246 1    
   249  126  247 1    
@<TRIPOS>SUBSTRUCTURE
     1 UNK         1 GROUP             0       ****    0 ROOT    
