@<TRIPOS>MOLECULE
3R540
247   249    1
SMALL
USER_CHARGES


@<TRIPOS>ATOM
      1 CA         -1.0823  -15.5627  -49.9802 C.3       0 UNK        -0.1800 
      2 C           0.1262  -14.8201  -49.4284 C.2       0 UNK         0.5000 
      3 O           0.1669  -14.5270  -48.2364 O.2       0 UNK        -0.5000 
      4 N           1.0990  -14.5077  -50.2950 N.am      1 UNK        -0.5000 
      5 CA          2.3339  -13.7659  -49.9859 C.3       1 UNK         0.1400 
      6 C6          3.2828  -14.4837  -48.9849 C.3       23 UNK        -0.0398 
      7 S7          3.7437  -16.1674  -49.5096 S.3       23 UNK        -0.2404 
      8 C8          3.0519  -17.1565  -48.1464 C.3       23 UNK        -0.0205 
      9 C9          2.6679  -18.5456  -48.6219 C.ar      23 UNK        -0.0193 
     10 C10         1.6144  -18.6923  -49.5248 C.ar      23 UNK        -0.1150 
     11 C11         1.2691  -19.9507  -50.0186 C.ar      23 UNK        -0.0193 
     12 C12         1.9504  -21.0798  -49.5565 C.ar      23 UNK        -0.1150 
     13 C13         2.9881  -20.9501  -48.6281 C.ar      23 UNK        -0.0193 
     14 C14         3.3509  -19.6785  -48.1715 C.ar      23 UNK        -0.1150 
     15 C15         3.7338  -22.1806  -48.1356 C.3       23 UNK        -0.0205 
     16 S16         3.2860  -22.6112  -46.4259 S.3       23 UNK        -0.2404 
     17 C17         1.5518  -23.1428  -46.6194 C.3       23 UNK        -0.0398 
     18 CA          1.0234  -23.8126  -45.3278 C.3       11 UNK         0.1400 
     19 N           0.9110  -22.8765  -44.2058 N.am      11 UNK        -0.5000 
     20 C           0.8112  -23.2327  -42.9166 C.2       10 UNK         0.5000 
     21 O           0.8657  -24.3977  -42.5212 O.2       10 UNK        -0.5000 
     22 CA          0.6070  -22.1034  -41.8891 C.3       10 UNK         0.1400 
     23 CB          1.9540  -21.5340  -41.4180 C.3       10 UNK        -0.1800 
     24 N          -0.2329  -21.0277  -42.4149 N.am      10 UNK        -0.5000 
     25 C          -1.5634  -21.1174  -42.5518 C.2       9 UNK         0.5000 
     26 O          -2.2243  -22.0718  -42.1425 O.2       9 UNK        -0.5000 
     27 CA         -2.2850  -19.9589  -43.2689 C.3       9 UNK         0.1400 
     28 CB         -2.8285  -18.9496  -42.2468 C.3       9 UNK        -0.1800 
     29 N          -1.4468  -19.2517  -44.2371 N.am      9 UNK        -0.5000 
     30 C          -0.9430  -19.7853  -45.3583 C.2       8 UNK         0.5000 
     31 O          -1.1511  -20.9422  -45.7238 O.2       8 UNK        -0.5000 
     32 CA          0.0106  -18.8896  -46.1682 C.3       8 UNK         0.1400 
     33 CB         -0.7678  -17.8580  -46.9982 C.3       8 UNK        -0.1800 
     34 N           0.9748  -18.1997  -45.3082 N.am      8 UNK        -0.5000 
     35 C           1.9008  -18.8244  -44.5666 C.2       7 UNK         0.5000 
     36 O           2.0592  -20.0433  -44.5634 O.2       7 UNK        -0.5000 
     37 CA          2.7409  -17.9525  -43.6188 C.3       7 UNK         0.1400 
     38 CB          3.9518  -17.3455  -44.3417 C.3       7 UNK        -0.1800 
     39 N           1.9389  -16.8903  -43.0122 N.am      7 UNK        -0.5000 
     40 C           1.0459  -17.0995  -42.0326 C.2       6 UNK         0.5000 
     41 O           0.8580  -18.1958  -41.5064 O.2       6 UNK        -0.5000 
     42 CA          0.1921  -15.8954  -41.5886 C.3       6 UNK         0.1400 
     43 CB          0.8947  -15.1215  -40.4636 C.3       6 UNK        -0.1800 
     44 N          -0.1169  -14.9766  -42.6847 N.am      6 UNK        -0.5000 
     45 C          -0.8378  -15.2960  -43.7686 C.2       5 UNK         0.5000 
     46 O          -1.3857  -16.3873  -43.9186 O.2       5 UNK        -0.5000 
     47 CA         -0.9244  -14.2451  -44.8917 C.3       5 UNK         0.1400 
     48 CB         -2.2530  -13.4797  -44.8167 C.3       5 UNK        -0.1800 
     49 N           0.1805  -13.2829  -44.8925 N.am      5 UNK        -0.5000 
     50 C           1.4734  -13.5746  -45.0874 C.2       4 UNK         0.5000 
     51 O           1.8890  -14.7246  -45.2429 O.2       4 UNK        -0.5000 
     52 CA          2.4570  -12.3842  -45.0542 C.3       4 UNK         0.1400 
     53 CB          3.8730  -12.7522  -45.5305 C.3       4 UNK        -0.1800 
     54 N           1.9752  -11.2253  -45.8139 N.am      4 UNK        -0.5000 
     55 C           1.1238  -10.3012  -45.3446 C.2       3 UNK         0.5000 
     56 O           0.6073  -10.3706  -44.2287 O.2       3 UNK        -0.5000 
     57 CA          0.7728   -9.1095  -46.2564 C.3       3 UNK         0.1400 
     58 CB          1.6319   -7.8887  -45.8934 C.3       3 UNK        -0.1800 
     59 N           0.9341   -9.3931  -47.6813 N.am      3 UNK        -0.5000 
     60 C           0.1161  -10.1667  -48.4061 C.2       2 UNK         0.5000 
     61 O          -0.8860  -10.7177  -47.9486 O.2       2 UNK        -0.5000 
     62 CA          0.4742  -10.3675  -49.8939 C.3       2 UNK         0.1400 
     63 CB          1.4422   -9.3035  -50.4599 C.3       2 UNK        -0.1800 
     64 N           0.9892  -11.7152  -50.1472 N.am      2 UNK        -0.5000 
     65 C           2.0443  -12.3052  -49.5632 C.2       1 UNK         0.5000 
     66 O           2.7635  -11.7456  -48.7315 O.2       1 UNK        -0.5000 
     67 C          -0.3087  -24.5555  -45.5557 C.2       11 UNK         0.5000 
     68 O          -0.3406  -25.7711  -45.3624 O.2       11 UNK        -0.5000 
     69 N          -1.3646  -23.8039  -45.9175 N.am      12 UNK        -0.5000 
     70 CA         -2.7796  -24.1950  -46.0398 C.3       12 UNK         0.1400 
     71 CB         -3.4643  -23.9570  -44.6813 C.3       12 UNK        -0.1800 
     72 C          -3.0300  -25.6246  -46.5738 C.2       12 UNK         0.5000 
     73 O          -3.4974  -26.4870  -45.8251 O.2       12 UNK        -0.5000 
     74 N          -2.6678  -25.8662  -47.8382 N.am      13 UNK        -0.5000 
     75 CA         -2.6657  -27.1952  -48.4490 C.3       13 UNK         0.1400 
     76 CB         -1.2429  -27.7874  -48.3583 C.3       13 UNK        -0.1800 
     77 C          -3.2340  -27.1099  -49.8740 C.2       13 UNK         0.5000 
     78 O          -4.3838  -26.7013  -50.0399 O.2       13 UNK        -0.5000 
     79 N          -2.4300  -27.4857  -50.8799 N.am      14 UNK        -0.5000 
     80 CA         -2.7599  -27.4020  -52.3082 C.3       14 UNK         0.1400 
     81 CB         -1.7018  -28.1780  -53.1078 C.3       14 UNK        -0.1800 
     82 C          -2.8764  -25.9530  -52.8261 C.2       14 UNK         0.5000 
     83 O          -3.4610  -25.7287  -53.8863 O.2       14 UNK        -0.5000 
     84 N          -2.3344  -25.0055  -52.0570 N.am      15 UNK        -0.5000 
     85 CA         -2.5302  -23.5720  -52.1799 C.3       15 UNK         0.1400 
     86 CB         -1.3085  -22.9522  -52.8701 C.3       15 UNK        -0.1800 
     87 C          -2.7414  -23.0137  -50.7619 C.2       15 UNK         0.5000 
     88 O          -2.3347  -23.6536  -49.7841 O.2       15 UNK        -0.5000 
     89 N          -3.3694  -21.8339  -50.6994 N.am      16 UNK        -0.5000 
     90 CA         -3.8250  -21.0958  -49.5173 C.3       16 UNK         0.1400 
     91 CB         -2.6536  -20.7897  -48.5648 C.3       16 UNK        -0.1800 
     92 C          -5.0009  -21.7588  -48.7689 C.2       16 UNK         0.5000 
     93 O          -5.3501  -22.9143  -49.0226 O.2       16 UNK        -0.5000 
     94 N          -5.5974  -20.9848  -47.8494 N.am      17 UNK        -0.5000 
     95 CA         -6.7549  -21.3199  -47.0152 C.3       17 UNK         0.1400 
     96 CB         -6.3895  -22.4059  -45.9807 C.3       17 UNK        -0.1800 
     97 C          -7.9960  -21.6531  -47.8667 C.2       17 UNK         0.5000 
     98 O          -8.6206  -20.7352  -48.3999 O.2       17 UNK        -0.5000 
     99 N          -8.3306  -22.9448  -47.9804 N.am      18 UNK        -0.5000 
    100 CA        -9.4253  -23.4514  -48.8090 C.3       18 UNK         0.1400 
    101 CB        -9.7600  -24.8840  -48.3654 C.3       18 UNK        -0.1800 
    102 C         -9.1107  -23.4144  -50.3181 C.2       18 UNK         0.5000 
    103 O        -10.0412  -23.3817  -51.1249 O.2       18 UNK        -0.5000 
    104 N         -7.8200  -23.4281  -50.6718 N.am      19 UNK        -0.5000 
    105 CA        -7.3209  -23.3296  -52.0399 C.3       19 UNK         0.1400 
    106 CB        -6.1592  -24.3219  -52.1957 C.3       19 UNK        -0.1800 
    107 C         -6.8863  -21.8861  -52.3598 C.2       19 UNK         0.5000 
    108 O         -6.8894  -21.0220  -51.4794 O.2       19 UNK        -0.5000 
    109 N         -6.5331  -21.6466  -53.6298 N.am      20 UNK        -0.5000 
    110 CA        -6.1087  -20.3489  -54.1624 C.3       20 UNK         0.1400 
    111 CB        -5.8672  -20.4890  -55.6730 C.3       20 UNK        -0.1800 
    112 C         -4.8490  -19.7907  -53.4723 C.2       20 UNK         0.5000 
    113 O         -3.9531  -20.5589  -53.1147 O.2       20 UNK        -0.5000 
    114 N         -4.8061  -18.4643  -53.3069 N.am      21 UNK        -0.5000 
    115 CA        -3.6881  -17.7327  -52.7137 C.3       21 UNK         0.1400 
    116 CB        -4.1671  -16.3182  -52.3514 C.3       21 UNK        -0.1800 
    117 C         -2.4733  -17.6673  -53.6588 C.2       21 UNK         0.5000 
    118 O         -2.6434  -17.6157  -54.8796 O.2       21 UNK        -0.5000 
    119 N         -1.2752  -17.6424  -53.0676 N.am      22 UNK        -0.5000 
    120 CA         0.0077  -17.5331  -53.7738 C.3       22 UNK         0.1400 
    121 C          0.3675  -16.0419  -54.0025 C.2       22 UNK         0.5000 
    122 N          0.4769  -15.5992  -55.2467 N.am      22 UNK        -0.7600 
    123 O          0.5805  -15.2910  -53.0521 O.2       22 UNK        -0.5000 
    124 C124        1.1471  -18.2538  -53.0094 C.3       23 UNK        -0.0398 
    125 S125        0.8260  -20.0347  -52.7570 S.3       23 UNK        -0.2404 
    126 C126        0.1692  -20.0881  -51.0567 C.3       23 UNK        -0.0205 
    127 H127       -1.1630  -15.4385  -51.0588 H         1 UNK         0.0600 
    128 H128       -1.9978  -15.1790  -49.5297 H         1 UNK         0.0600 
    129 H129       -1.0126  -16.6263  -49.7575 H         1 UNK         0.0600 
    130 H130        0.9895  -14.7763  -51.2713 H         1 UNK         0.3000 
    131 H131        2.8690  -13.6884  -50.9334 H         1 UNK         0.0600 
    132 H132        4.2126  -13.9227  -48.8781 H         1 UNK         0.0800 
    133 H133        2.8338  -14.5131  -47.9917 H         1 UNK         0.0800 
    134 H134        3.7880  -17.2099  -47.3449 H         1 UNK         0.0800 
    135 H135        2.1694  -16.6706  -47.7298 H         1 UNK         0.0800 
    136 H136        1.0849  -17.8135  -49.8595 H         1 UNK         0.1150 
    137 H137        1.6789  -22.0575  -49.9292 H         1 UNK         0.1150 
    138 H138        4.1598  -19.5758  -47.4620 H         1 UNK         0.1150 
    139 H139        3.5497  -23.0362  -48.7872 H         1 UNK         0.0800 
    140 H140        4.8069  -21.9898  -48.1802 H         1 UNK         0.0800 
    141 H141        0.9436  -22.2787  -46.8911 H         1 UNK         0.0800 
    142 H142        1.5023  -23.8373  -47.4601 H         1 UNK         0.0800 
    143 H143        1.7542  -24.5730  -45.0421 H         1 UNK         0.0600 
    144 H144        0.9163  -21.8907  -44.4395 H         1 UNK         0.3000 
    145 H145        0.1088  -22.5336  -41.0176 H         1 UNK         0.0600 
    146 H146        1.8127  -20.7491  -40.6748 H         1 UNK         0.0600 
    147 H147        2.5313  -21.1158  -42.2416 H         1 UNK         0.0600 
    148 H148        2.5631  -22.3124  -40.9572 H         1 UNK         0.0600 
    149 H149        0.2379  -20.1931  -42.7368 H         1 UNK         0.3000 
    150 H150       -3.1306  -20.3855  -43.8122 H         1 UNK         0.0600 
    151 H151       -3.4897  -19.4363  -41.5289 H         1 UNK         0.0600 
    152 H152       -3.4020  -18.1621  -42.7362 H         1 UNK         0.0600 
    153 H153       -2.0227  -18.4766  -41.6846 H         1 UNK         0.0600 
    154 H154       -1.2627  -18.2704  -44.0431 H         1 UNK         0.3000 
    155 H155        0.5701  -19.5313  -46.8513 H         1 UNK         0.0600 
    156 H156       -1.3684  -18.3436  -47.7648 H         1 UNK         0.0600 
    157 H157       -0.0921  -17.1741  -47.5068 H         1 UNK         0.0600 
    158 H158       -1.4431  -17.2607  -46.3869 H         1 UNK         0.0600 
    159 H159        0.8941  -17.1953  -45.2382 H         1 UNK         0.3000 
    160 H160        3.1197  -18.5999  -42.8247 H         1 UNK         0.0600 
    161 H161        3.6511  -16.6318  -45.1069 H         1 UNK         0.0600 
    162 H162        4.5458  -18.1205  -44.8280 H         1 UNK         0.0600 
    163 H163        4.6054  -16.8251  -43.6417 H         1 UNK         0.0600 
    164 H164        1.9996  -15.9754  -43.4417 H         1 UNK         0.3000 
    165 H165       -0.7518  -16.2838  -41.2004 H         1 UNK         0.0600 
    166 H166        0.2660  -14.3143  -40.0873 H         1 UNK         0.0600 
    167 H167        1.1191  -15.7768  -39.6208 H         1 UNK         0.0600 
    168 H168        1.8362  -14.6860  -40.8007 H         1 UNK         0.0600 
    169 H169        0.2920  -14.0553  -42.6384 H         1 UNK         0.3000 
    170 H170       -0.8950  -14.7862  -45.8386 H         1 UNK         0.0600 
    171 H171       -3.1012  -14.1653  -44.8416 H         1 UNK         0.0600 
    172 H172       -2.3287  -12.8939  -43.8998 H         1 UNK         0.0600 
    173 H173       -2.3616  -12.7988  -45.6615 H         1 UNK         0.0600 
    174 H174       -0.0599  -12.3114  -44.7379 H         1 UNK         0.3000 
    175 H175        2.5466  -12.0990  -44.0040 H         1 UNK         0.0600 
    176 H176        3.8898  -13.0119  -46.5865 H         1 UNK         0.0600 
    177 H177        4.5623  -11.9206  -45.3844 H         1 UNK         0.0600 
    178 H178        4.2715  -13.6017  -44.9742 H         1 UNK         0.0600 
    179 H179        2.2967  -11.1540  -46.7738 H         1 UNK         0.3000 
    180 H180       -0.2734   -8.8545  -46.0738 H         1 UNK         0.0600 
    181 H181        1.3432   -7.0148  -46.4777 H         1 UNK         0.0600 
    182 H182        2.6921   -8.0761  -46.0690 H         1 UNK         0.0600 
    183 H183        1.5148   -7.6271  -44.8408 H         1 UNK         0.0600 
    184 H184        1.7502   -9.0053  -48.1318 H         1 UNK         0.3000 
    185 H185       -0.4629  -10.2835  -50.4463 H         1 UNK         0.0600 
    186 H186        1.5684   -9.4296  -51.5352 H         1 UNK         0.0600 
    187 H187        1.0555   -8.2961  -50.3001 H         1 UNK         0.0600 
    188 H188        2.4328   -9.3561  -50.0073 H         1 UNK         0.0600 
    189 H189        0.4422  -12.2773  -50.7839 H         1 UNK         0.3000 
    190 H190       -1.2076  -22.8012  -45.9963 H         1 UNK         0.3000 
    191 H191       -3.2346  -23.5148  -46.7612 H         1 UNK         0.0600 
    192 H192       -4.5083  -24.2705  -44.6974 H         1 UNK         0.0600 
    193 H193       -3.4476  -22.8997  -44.4199 H         1 UNK         0.0600 
    194 H194       -2.9688  -24.5070  -43.8803 H         1 UNK         0.0600 
    195 H195       -2.3894  -25.0907  -48.4350 H         1 UNK         0.3000 
    196 H196       -3.3406  -27.8623  -47.9090 H         1 UNK         0.0600 
    197 H197       -1.1977  -28.7878  -48.7907 H         1 UNK         0.0600 
    198 H198       -0.9294  -27.8791  -47.3180 H         1 UNK         0.0600 
    199 H199       -0.5073  -27.1616  -48.8653 H         1 UNK         0.0600 
    200 H200       -1.5044  -27.8206  -50.6541 H         1 UNK         0.3000 
    201 H201       -3.7287  -27.8817  -52.4619 H         1 UNK         0.0600 
    202 H202       -0.7072  -27.7484  -52.9815 H         1 UNK         0.0600 
    203 H203       -1.9313  -28.1660  -54.1742 H         1 UNK         0.0600 
    204 H204       -1.6598  -29.2224  -52.7983 H         1 UNK         0.0600 
    205 H205       -1.9272  -25.2830  -51.1742 H         1 UNK         0.3000 
    206 H206       -3.4216  -23.3621  -52.7741 H         1 UNK         0.0600 
    207 H207       -1.1385  -23.4013  -53.8486 H         1 UNK         0.0600 
    208 H208       -1.4605  -21.8847  -53.0293 H         1 UNK         0.0600 
    209 H209       -0.4005  -23.0807  -52.2799 H         1 UNK         0.0600 
    210 H210       -3.6348  -21.4057  -51.5862 H         1 UNK         0.3000 
    211 H211       -4.2008  -20.1463  -49.9017 H         1 UNK         0.0600 
    212 H212       -2.2428  -21.6929  -48.1151 H         1 UNK         0.0600 
    213 H213       -2.9701  -20.1424  -47.7473 H         1 UNK         0.0600 
    214 H214       -1.8445  -20.2803  -49.0828 H         1 UNK         0.0600 
    215 H215       -5.2632  -20.0380  -47.7420 H         1 UNK         0.3000 
    216 H216       -7.0057  -20.4161  -46.4577 H         1 UNK         0.0600 
    217 H217       -5.6037  -22.0480  -45.3163 H         1 UNK         0.0600 
    218 H218       -6.0364  -23.3260  -46.4467 H         1 UNK         0.0600 
    219 H219       -7.2463  -22.6572  -45.3543 H         1 UNK         0.0600 
    220 H220       -7.7451  -23.6336  -47.5310 H         1 UNK         0.3000 
    221 H221      -10.3056  -22.8276  -48.6397 H         1 UNK         0.0600 
    222 H222      -10.5934  -25.2870  -48.9424 H         1 UNK         0.0600 
    223 H223       -8.9114  -25.5557  -48.5015 H         1 UNK         0.0600 
    224 H224      -10.0489  -24.9149  -47.3147 H         1 UNK         0.0600 
    225 H225       -7.1122  -23.3675  -49.9463 H         1 UNK         0.3000 
    226 H226       -8.1031  -23.6057  -52.7499 H         1 UNK         0.0600 
    227 H227       -6.4956  -25.3465  -52.0363 H         1 UNK         0.0600 
    228 H228       -5.7250  -24.2790  -53.1945 H         1 UNK         0.0600 
    229 H229       -5.3660  -24.1259  -51.4756 H         1 UNK         0.0600 
    230 H230       -6.5382  -22.4122  -54.2874 H         1 UNK         0.3000 
    231 H231       -6.9303  -19.6469  -54.0054 H         1 UNK         0.0600 
    232 H232       -5.5707  -19.5355  -56.1123 H         1 UNK         0.0600 
    233 H233       -6.7692  -20.8169  -56.1900 H         1 UNK         0.0600 
    234 H234       -5.0752  -21.2080  -55.8872 H         1 UNK         0.0600 
    235 H235       -5.5636  -17.9020  -53.6659 H         1 UNK         0.3000 
    236 H236       -3.3917  -18.2452  -51.7956 H         1 UNK         0.0600 
    237 H237       -4.5040  -15.7703  -53.2324 H         1 UNK         0.0600 
    238 H238       -4.9929  -16.3514  -51.6404 H         1 UNK         0.0600 
    239 H239       -3.3695  -15.7352  -51.8921 H         1 UNK         0.0600 
    240 H240       -1.2226  -17.6370  -52.0623 H         1 UNK         0.3000 
    241 H241       -0.0864  -18.0211  -54.7464 H         1 UNK         0.0600 
    242 H242        0.7224  -14.6339  -55.4020 H         1 UNK         0.3800 
    243 H243        0.2974  -16.1977  -56.0385 H         1 UNK         0.3800 
    244 H244        1.3447  -17.7655  -52.0575 H         1 UNK         0.0800 
    245 H245        2.0770  -18.1746  -53.5750 H         1 UNK         0.0800 
    246 H246       -0.5846  -19.3131  -50.9213 H         1 UNK         0.0800 
    247 H247       -0.3461  -21.0367  -50.9076 H         1 UNK         0.0800 
@<TRIPOS>BOND
     1    1    2 1    
     2    1  127 1    
     3    1  128 1    
     4    1  129 1    
     5    2    3 2    
     6    2    4 am   BACKBONE|DICT|INTERRES
     7    4    5 1    
     8    4  130 1    
     9    5    6 1    
    10    5   65 1    
    11    5  131 1    
    12    6    7 1    
    13    6  132 1    
    14    6  133 1    
    15    7    8 1    
    16    8    9 1    
    17    8  134 1    
    18    8  135 1    
    19    9   10 ar   
    20    9   14 ar   
    21   10   11 ar   
    22   10  136 1    
    23   11   12 ar   
    24   11  126 1    
    25   12   13 ar   
    26   12  137 1    
    27   13   14 ar   
    28   13   15 1    
    29   14  138 1    
    30   15   16 1    
    31   15  139 1    
    32   15  140 1    
    33   16   17 1    
    34   17   18 1    
    35   17  141 1    
    36   17  142 1    
    37   18   19 1    
    38   18   67 1    
    39   18  143 1    
    40   19   20 am   BACKBONE|DICT|INTERRES
    41   19  144 1    
    42   20   21 2    
    43   20   22 1    
    44   22   23 1    
    45   22   24 1    
    46   22  145 1    
    47   23  146 1    
    48   23  147 1    
    49   23  148 1    
    50   24   25 am   BACKBONE|DICT|INTERRES
    51   24  149 1    
    52   25   26 2    
    53   25   27 1    
    54   27   28 1    
    55   27   29 1    
    56   27  150 1    
    57   28  151 1    
    58   28  152 1    
    59   28  153 1    
    60   29   30 am   BACKBONE|DICT|INTERRES
    61   29  154 1    
    62   30   31 2    
    63   30   32 1    
    64   32   33 1    
    65   32   34 1    
    66   32  155 1    
    67   33  156 1    
    68   33  157 1    
    69   33  158 1    
    70   34   35 am   BACKBONE|DICT|INTERRES
    71   34  159 1    
    72   35   36 2    
    73   35   37 1    
    74   37   38 1    
    75   37   39 1    
    76   37  160 1    
    77   38  161 1    
    78   38  162 1    
    79   38  163 1    
    80   39   40 am   BACKBONE|DICT|INTERRES
    81   39  164 1    
    82   40   41 2    
    83   40   42 1    
    84   42   43 1    
    85   42   44 1    
    86   42  165 1    
    87   43  166 1    
    88   43  167 1    
    89   43  168 1    
    90   44   45 am   BACKBONE|DICT|INTERRES
    91   44  169 1    
    92   45   46 2    
    93   45   47 1    
    94   47   48 1    
    95   47   49 1    
    96   47  170 1    
    97   48  171 1    
    98   48  172 1    
    99   48  173 1    
   100   49   50 am   BACKBONE|DICT|INTERRES
   101   49  174 1    
   102   50   51 2    
   103   50   52 1    
   104   52   53 1    
   105   52   54 1    
   106   52  175 1    
   107   53  176 1    
   108   53  177 1    
   109   53  178 1    
   110   54   55 am   BACKBONE|DICT|INTERRES
   111   54  179 1    
   112   55   56 2    
   113   55   57 1    
   114   57   58 1    
   115   57   59 1    
   116   57  180 1    
   117   58  181 1    
   118   58  182 1    
   119   58  183 1    
   120   59   60 am   BACKBONE|DICT|INTERRES
   121   59  184 1    
   122   60   61 2    
   123   60   62 1    
   124   62   63 1    
   125   62   64 1    
   126   62  185 1    
   127   63  186 1    
   128   63  187 1    
   129   63  188 1    
   130   64   65 am   BACKBONE|DICT|INTERRES
   131   64  189 1    
   132   65   66 2    
   133   67   68 2    
   134   67   69 am   BACKBONE|DICT|INTERRES
   135   69   70 1    
   136   69  190 1    
   137   70   71 1    
   138   70   72 1    
   139   70  191 1    
   140   71  192 1    
   141   71  193 1    
   142   71  194 1    
   143   72   73 2    
   144   72   74 am   BACKBONE|DICT|INTERRES
   145   74   75 1    
   146   74  195 1    
   147   75   76 1    
   148   75   77 1    
   149   75  196 1    
   150   76  197 1    
   151   76  198 1    
   152   76  199 1    
   153   77   78 2    
   154   77   79 am   BACKBONE|DICT|INTERRES
   155   79   80 1    
   156   79  200 1    
   157   80   81 1    
   158   80   82 1    
   159   80  201 1    
   160   81  202 1    
   161   81  203 1    
   162   81  204 1    
   163   82   83 2    
   164   82   84 am   BACKBONE|DICT|INTERRES
   165   84   85 1    
   166   84  205 1    
   167   85   86 1    
   168   85   87 1    
   169   85  206 1    
   170   86  207 1    
   171   86  208 1    
   172   86  209 1    
   173   87   88 2    
   174   87   89 am   BACKBONE|DICT|INTERRES
   175   89   90 1    
   176   89  210 1    
   177   90   91 1    
   178   90   92 1    
   179   90  211 1    
   180   91  212 1    
   181   91  213 1    
   182   91  214 1    
   183   92   93 2    
   184   92   94 am   BACKBONE|DICT|INTERRES
   185   94   95 1    
   186   94  215 1    
   187   95   96 1    
   188   95   97 1    
   189   95  216 1    
   190   96  217 1    
   191   96  218 1    
   192   96  219 1    
   193   97   98 2    
   194   97   99 am   BACKBONE|DICT|INTERRES
   195   99  100 1    
   196   99  220 1    
   197  100  101 1    
   198  100  102 1    
   199  100  221 1    
   200  101  222 1    
   201  101  223 1    
   202  101  224 1    
   203  102  103 2    
   204  102  104 am   BACKBONE|DICT|INTERRES
   205  104  105 1    
   206  104  225 1    
   207  105  106 1    
   208  105  107 1    
   209  105  226 1    
   210  106  227 1    
   211  106  228 1    
   212  106  229 1    
   213  107  108 2    
   214  107  109 am   BACKBONE|DICT|INTERRES
   215  109  110 1    
   216  109  230 1    
   217  110  111 1    
   218  110  112 1    
   219  110  231 1    
   220  111  232 1    
   221  111  233 1    
   222  111  234 1    
   223  112  113 2    
   224  112  114 am   BACKBONE|DICT|INTERRES
   225  114  115 1    
   226  114  235 1    
   227  115  116 1    
   228  115  117 1    
   229  115  236 1    
   230  116  237 1    
   231  116  238 1    
   232  116  239 1    
   233  117  118 2    
   234  117  119 am   BACKBONE|DICT|INTERRES
   235  119  120 1    
   236  119  240 1    
   237  120  121 1    
   238  120  124 1    
   239  120  241 1    
   240  121  122 am   BACKBONE|DICT|INTERRES
   241  121  123 2    
   242  122  242 1    
   243  122  243 1    
   244  124  125 1    
   245  124  244 1    
   246  124  245 1    
   247  125  126 1    
   248  126  246 1    
   249  126  247 1    
@<TRIPOS>SUBSTRUCTURE
     1 UNK         1 GROUP             0       ****    0 ROOT    
