@<TRIPOS>MOLECULE
3R540
247   249    1
SMALL
USER_CHARGES


@<TRIPOS>ATOM
      1 CA          5.1800  -12.3649  -49.0727 C.3       0 UNK        -0.1800 
      2 C           4.5075  -13.3287  -48.1074 C.2       0 UNK         0.5000 
      3 O           4.0573  -12.9130  -47.0397 O.2       0 UNK        -0.5000 
      4 N           4.4124  -14.6113  -48.4829 N.am      1 UNK        -0.5000 
      5 CA          3.8289  -15.6983  -47.6816 C.3       1 UNK         0.1400 
      6 C6          4.0658  -17.0918  -48.3145 C.3       23 UNK        -0.0398 
      7 S7          3.5212  -17.2414  -50.0549 S.3       23 UNK        -0.2404 
      8 C8          2.2244  -18.5207  -49.9724 C.3       23 UNK        -0.0205 
      9 C9          0.8286  -17.9330  -50.1152 C.ar      23 UNK        -0.0193 
     10 C10         0.3880  -17.4971  -51.3681 C.ar      23 UNK        -0.1150 
     11 C11        -0.9059  -16.9989  -51.5315 C.ar      23 UNK        -0.0193 
     12 C12        -1.7587  -16.9338  -50.4274 C.ar      23 UNK        -0.1150 
     13 C13        -1.3437  -17.3766  -49.1688 C.ar      23 UNK        -0.0193 
     14 C14        -0.0369  -17.8640  -49.0182 C.ar      23 UNK        -0.1150 
     15 C15        -2.3271  -17.2649  -48.0030 C.3       23 UNK        -0.0205 
     16 S16        -2.0186  -18.3976  -46.6086 S.3       23 UNK        -0.2404 
     17 C17        -2.9606  -19.8889  -47.0696 C.3       23 UNK        -0.0398 
     18 CA         -2.1720  -21.2000  -46.8259 C.3       11 UNK         0.1400 
     19 N          -1.6358  -21.2805  -45.4572 N.am      11 UNK        -0.5000 
     20 C          -0.9327  -22.2941  -44.9326 C.2       10 UNK         0.5000 
     21 O          -0.6898  -23.3309  -45.5486 O.2       10 UNK        -0.5000 
     22 CA         -0.4208  -22.1613  -43.4844 C.3       10 UNK         0.1400 
     23 CB          1.1101  -22.2869  -43.4417 C.3       10 UNK        -0.1800 
     24 N          -0.8113  -20.9218  -42.8112 N.am      10 UNK        -0.5000 
     25 C          -2.0220  -20.6503  -42.3057 C.2       9 UNK         0.5000 
     26 O          -2.9842  -21.4120  -42.4035 O.2       9 UNK        -0.5000 
     27 CA         -2.1898  -19.2999  -41.5832 C.3       9 UNK         0.1400 
     28 CB         -1.9475  -19.4612  -40.0744 C.3       9 UNK        -0.1800 
     29 N          -1.2705  -18.2907  -42.1145 N.am      9 UNK        -0.5000 
     30 C          -1.5933  -17.4012  -43.0645 C.2       8 UNK         0.5000 
     31 O          -2.7411  -17.2521  -43.4842 O.2       8 UNK        -0.5000 
     32 CA         -0.4632  -16.5247  -43.6488 C.3       8 UNK         0.1400 
     33 CB         -0.5704  -15.0855  -43.1226 C.3       8 UNK        -0.1800 
     34 N           0.8868  -17.0260  -43.3846 N.am      8 UNK        -0.5000 
     35 C           1.4069  -18.1516  -43.8962 C.2       7 UNK         0.5000 
     36 O           0.7991  -18.9147  -44.6449 O.2       7 UNK        -0.5000 
     37 CA          2.8190  -18.5376  -43.4170 C.3       7 UNK         0.1400 
     38 CB          3.8957  -17.8040  -44.2274 C.3       7 UNK        -0.1800 
     39 N           3.0288  -18.2829  -41.9912 N.am      7 UNK        -0.5000 
     40 C           2.3029  -18.7927  -40.9884 C.2       6 UNK         0.5000 
     41 O           1.3574  -19.5610  -41.1636 O.2       6 UNK        -0.5000 
     42 CA          2.6426  -18.3300  -39.5573 C.3       6 UNK         0.1400 
     43 CB          3.8227  -19.1287  -38.9724 C.3       6 UNK        -0.1800 
     44 N           2.8428  -16.8780  -39.4359 N.am      6 UNK        -0.5000 
     45 C           3.8256  -16.1221  -39.9438 C.2       5 UNK         0.5000 
     46 O           4.8048  -16.5687  -40.5470 O.2       5 UNK        -0.5000 
     47 CA          3.6630  -14.6006  -39.7756 C.3       5 UNK         0.1400 
     48 CB          4.4843  -14.1000  -38.5779 C.3       5 UNK        -0.1800 
     49 N           4.0640  -13.8618  -40.9747 N.am      5 UNK        -0.5000 
     50 C           3.5265  -14.0082  -42.1938 C.2       4 UNK         0.5000 
     51 O           2.6167  -14.7994  -42.4558 O.2       4 UNK        -0.5000 
     52 CA          4.1410  -13.1352  -43.3056 C.3       4 UNK         0.1400 
     53 CB          5.2848  -13.8802  -44.0102 C.3       4 UNK        -0.1800 
     54 N           3.1700  -12.7007  -44.3105 N.am      4 UNK        -0.5000 
     55 C           2.1132  -11.9110  -44.0738 C.2       3 UNK         0.5000 
     56 O           1.8292  -11.4661  -42.9606 O.2       3 UNK        -0.5000 
     57 CA          1.2380  -11.5195  -45.2768 C.3       3 UNK         0.1400 
     58 CB          1.7612  -10.2205  -45.9103 C.3       3 UNK        -0.1800 
     59 N           1.2010  -12.5591  -46.3065 N.am      3 UNK        -0.5000 
     60 C           0.1152  -13.2745  -46.6331 C.2       2 UNK         0.5000 
     61 O          -0.9754  -13.1547  -46.0741 O.2       2 UNK        -0.5000 
     62 CA          0.2458  -14.2802  -47.7953 C.3       2 UNK         0.1400 
     63 CB         -0.3815  -13.7120  -49.0773 C.3       2 UNK        -0.1800 
     64 N           1.6240  -14.6696  -48.0806 N.am      2 UNK        -0.5000 
     65 C           2.3467  -15.4886  -47.3070 C.2       1 UNK         0.5000 
     66 O           1.8999  -16.0421  -46.3064 O.2       1 UNK        -0.5000 
     67 C          -3.0494  -22.4100  -47.2216 C.2       11 UNK         0.5000 
     68 O          -3.0383  -22.8104  -48.3864 O.2       11 UNK        -0.5000 
     69 N          -3.7792  -22.9752  -46.2487 N.am      12 UNK        -0.5000 
     70 CA         -4.6101  -24.1693  -46.4122 C.3       12 UNK         0.1400 
     71 CB         -5.6117  -24.2477  -45.2509 C.3       12 UNK        -0.1800 
     72 C          -3.7905  -25.4681  -46.5134 C.2       12 UNK         0.5000 
     73 O          -4.1784  -26.3675  -47.2584 O.2       12 UNK        -0.5000 
     74 N          -2.6682  -25.5396  -45.7849 N.am      13 UNK        -0.5000 
     75 CA         -1.7329  -26.6661  -45.8163 C.3       13 UNK         0.1400 
     76 CB         -0.8796  -26.6614  -44.5381 C.3       13 UNK        -0.1800 
     77 C          -0.8440  -26.6232  -47.0711 C.2       13 UNK         0.5000 
     78 O          -0.5663  -27.6671  -47.6619 O.2       13 UNK        -0.5000 
     79 N          -0.4469  -25.4077  -47.4708 N.am      14 UNK        -0.5000 
     80 CA          0.2929  -25.1190  -48.6991 C.3       14 UNK         0.1400 
     81 CB          0.8277  -23.6799  -48.6214 C.3       14 UNK        -0.1800 
     82 C          -0.5522  -25.3011  -49.9759 C.2       14 UNK         0.5000 
     83 O           0.0219  -25.4763  -51.0510 O.2       14 UNK        -0.5000 
     84 N          -1.8857  -25.2400  -49.8303 N.am      15 UNK        -0.5000 
     85 CA         -2.9049  -25.2523  -50.8836 C.3       15 UNK         0.1400 
     86 CB         -2.9429  -26.6131  -51.6089 C.3       15 UNK        -0.1800 
     87 C          -2.7398  -24.0497  -51.8331 C.2       15 UNK         0.5000 
     88 O          -2.6482  -24.2180  -53.0496 O.2       15 UNK        -0.5000 
     89 N          -2.6648  -22.8580  -51.2291 N.am      16 UNK        -0.5000 
     90 CA         -2.4761  -21.5750  -51.8965 C.3       16 UNK         0.1400 
     91 CB         -1.5854  -20.6989  -50.9969 C.3       16 UNK        -0.1800 
     92 C          -3.8450  -20.9494  -52.2390 C.2       16 UNK         0.5000 
     93 O          -4.6797  -21.6110  -52.8609 O.2       16 UNK        -0.5000 
     94 N          -4.0849  -19.6962  -51.8242 N.am      17 UNK        -0.5000 
     95 CA         -5.3329  -18.9570  -52.0595 C.3       17 UNK         0.1400 
     96 CB         -5.1797  -17.5104  -51.5734 C.3       17 UNK        -0.1800 
     97 C          -6.5712  -19.6076  -51.4154 C.2       17 UNK         0.5000 
     98 O          -7.6753  -19.4533  -51.9351 O.2       17 UNK        -0.5000 
     99 N          -6.3560  -20.3800  -50.3424 N.am      18 UNK        -0.5000 
    100 CA        -7.3593  -21.2181  -49.6831 C.3       18 UNK         0.1400 
    101 CB        -6.7349  -21.8037  -48.4100 C.3       18 UNK        -0.1800 
    102 C         -7.9065  -22.3482  -50.5824 C.2       18 UNK         0.5000 
    103 O         -9.0420  -22.7798  -50.3825 O.2       18 UNK        -0.5000 
    104 N         -7.1045  -22.7856  -51.5635 N.am      19 UNK        -0.5000 
    105 CA        -7.4790  -23.7479  -52.6018 C.3       19 UNK         0.1400 
    106 CB        -6.3538  -24.7886  -52.7262 C.3       19 UNK        -0.1800 
    107 C         -7.7348  -23.0534  -53.9570 C.2       19 UNK         0.5000 
    108 O         -7.9362  -23.7438  -54.9567 O.2       19 UNK        -0.5000 
    109 N         -7.7040  -21.7105  -53.9733 N.am      20 UNK        -0.5000 
    110 CA        -7.8265  -20.8175  -55.1302 C.3       20 UNK         0.1400 
    111 CB        -9.2413  -20.9037  -55.7399 C.3       20 UNK        -0.1800 
    112 C         -6.7050  -21.0005  -56.1772 C.2       20 UNK         0.5000 
    113 O         -6.9322  -20.7576  -57.3638 O.2       20 UNK        -0.5000 
    114 N         -5.5132  -21.4248  -55.7306 N.am      21 UNK        -0.5000 
    115 CA        -4.3607  -21.6756  -56.5992 C.3       21 UNK         0.1400 
    116 CB        -3.3911  -22.6298  -55.8893 C.3       21 UNK        -0.1800 
    117 C         -3.6330  -20.3864  -57.0241 C.2       21 UNK         0.5000 
    118 O         -3.0317  -20.3600  -58.0990 O.2       21 UNK        -0.5000 
    119 N         -3.6883  -19.3507  -56.1774 N.am      22 UNK        -0.5000 
    120 CA        -3.1012  -18.0264  -56.4329 C.3       22 UNK         0.1400 
    121 C         -3.8866  -17.2429  -57.5200 C.2       22 UNK         0.5000 
    122 N         -3.1978  -16.5705  -58.4320 N.am      22 UNK        -0.7600 
    123 O         -5.1150  -17.2026  -57.5154 O.2       22 UNK        -0.5000 
    124 C124       -2.9939  -17.1852  -55.1365 C.3       23 UNK        -0.0398 
    125 S125       -1.9599  -17.9906  -53.8698 S.3       23 UNK        -0.2404 
    126 C126       -1.3936  -16.5582  -52.9021 C.3       23 UNK        -0.0205 
    127 H127        5.5122  -12.8670  -49.9816 H         1 UNK         0.0600 
    128 H128        4.4865  -11.5726  -49.3542 H         1 UNK         0.0600 
    129 H129        6.0482  -11.9071  -48.5989 H         1 UNK         0.0600 
    130 H130        4.7726  -14.8909  -49.3847 H         1 UNK         0.3000 
    131 H131        4.3685  -15.6922  -46.7326 H         1 UNK         0.0600 
    132 H132        5.1345  -17.3088  -48.2960 H         1 UNK         0.0800 
    133 H133        3.6093  -17.8721  -47.7044 H         1 UNK         0.0800 
    134 H134        2.3061  -19.1062  -49.0560 H         1 UNK         0.0800 
    135 H135        2.3891  -19.2277  -50.7868 H         1 UNK         0.0800 
    136 H136        1.0489  -17.5611  -52.2211 H         1 UNK         0.1150 
    137 H137       -2.7520  -16.5292  -50.5464 H         1 UNK         0.1150 
    138 H138        0.3138  -18.1920  -48.0499 H         1 UNK         0.1150 
    139 H139       -3.3483  -17.4150  -48.3564 H         1 UNK         0.0800 
    140 H140       -2.2955  -16.2446  -47.6222 H         1 UNK         0.0800 
    141 H141       -3.2577  -19.8139  -48.1164 H         1 UNK         0.0800 
    142 H142       -3.8855  -19.8832  -46.4897 H         1 UNK         0.0800 
    143 H143       -1.3102  -21.2005  -47.4958 H         1 UNK         0.0600 
    144 H144       -1.7349  -20.4443  -44.8995 H         1 UNK         0.3000 
    145 H145       -0.8408  -22.9977  -42.9221 H         1 UNK         0.0600 
    146 H146        1.4884  -22.1990  -42.4229 H         1 UNK         0.0600 
    147 H147        1.4348  -23.2549  -43.8256 H         1 UNK         0.0600 
    148 H148        1.5902  -21.5188  -44.0476 H         1 UNK         0.0600 
    149 H149       -0.0714  -20.2454  -42.6734 H         1 UNK         0.3000 
    150 H150       -3.2241  -18.9776  -41.7201 H         1 UNK         0.0600 
    151 H151       -0.9420  -19.8229  -39.8590 H         1 UNK         0.0600 
    152 H152       -2.6501  -20.1750  -39.6426 H         1 UNK         0.0600 
    153 H153       -2.0828  -18.5149  -39.5506 H         1 UNK         0.0600 
    154 H154       -0.3039  -18.3640  -41.8234 H         1 UNK         0.3000 
    155 H155       -0.5982  -16.4974  -44.7318 H         1 UNK         0.0600 
    156 H156       -1.5590  -14.6678  -43.3169 H         1 UNK         0.0600 
    157 H157        0.1537  -14.4351  -43.6136 H         1 UNK         0.0600 
    158 H158       -0.3928  -15.0351  -42.0478 H         1 UNK         0.0600 
    159 H159        1.4916  -16.4191  -42.8393 H         1 UNK         0.3000 
    160 H160        2.9462  -19.6093  -43.5774 H         1 UNK         0.0600 
    161 H161        3.8070  -16.7241  -44.1147 H         1 UNK         0.0600 
    162 H162        3.8028  -18.0325  -45.2889 H         1 UNK         0.0600 
    163 H163        4.8985  -18.0960  -43.9156 H         1 UNK         0.0600 
    164 H164        3.7767  -17.6420  -41.7416 H         1 UNK         0.3000 
    165 H165        1.7676  -18.5552  -38.9453 H         1 UNK         0.0600 
    166 H166        4.0334  -18.8263  -37.9467 H         1 UNK         0.0600 
    167 H167        4.7357  -19.0017  -39.5545 H         1 UNK         0.0600 
    168 H168        3.5963  -20.1955  -38.9571 H         1 UNK         0.0600 
    169 H169        2.0852  -16.3959  -38.9719 H         1 UNK         0.3000 
    170 H170        2.6099  -14.3773  -39.5924 H         1 UNK         0.0600 
    171 H171        4.1918  -14.6138  -37.6611 H         1 UNK         0.0600 
    172 H172        5.5518  -14.2711  -38.7232 H         1 UNK         0.0600 
    173 H173        4.3337  -13.0330  -38.4129 H         1 UNK         0.0600 
    174 H174        4.8321  -13.2176  -40.8587 H         1 UNK         0.3000 
    175 H175        4.5535  -12.2358  -42.8438 H         1 UNK         0.0600 
    176 H176        4.9183  -14.7404  -44.5685 H         1 UNK         0.0600 
    177 H177        5.8059  -13.2276  -44.7111 H         1 UNK         0.0600 
    178 H178        6.0224  -14.2424  -43.2928 H         1 UNK         0.0600 
    179 H179        3.3699  -12.9710  -45.2678 H         1 UNK         0.3000 
    180 H180        0.2347  -11.3234  -44.8932 H         1 UNK         0.0600 
    181 H181        2.7660  -10.3467  -46.3160 H         1 UNK         0.0600 
    182 H182        1.8010   -9.4147  -45.1762 H         1 UNK         0.0600 
    183 H183        1.1120   -9.8895  -46.7211 H         1 UNK         0.0600 
    184 H184        2.0729  -12.7416  -46.7910 H         1 UNK         0.3000 
    185 H185       -0.3032  -15.1766  -47.5080 H         1 UNK         0.0600 
    186 H186       -0.3205  -14.4276  -49.8971 H         1 UNK         0.0600 
    187 H187       -1.4367  -13.4814  -48.9261 H         1 UNK         0.0600 
    188 H188        0.1149  -12.7945  -49.3953 H         1 UNK         0.0600 
    189 H189        2.0614  -14.2605  -48.8928 H         1 UNK         0.3000 
    190 H190       -3.7292  -22.5799  -45.3204 H         1 UNK         0.3000 
    191 H191       -5.1771  -24.0801  -47.3391 H         1 UNK         0.0600 
    192 H192       -6.2570  -25.1217  -45.3493 H         1 UNK         0.0600 
    193 H193       -6.2573  -23.3695  -45.2291 H         1 UNK         0.0600 
    194 H194       -5.1068  -24.3181  -44.2866 H         1 UNK         0.0600 
    195 H195       -2.3733  -24.7262  -45.2624 H         1 UNK         0.3000 
    196 H196       -2.3032  -27.5974  -45.8386 H         1 UNK         0.0600 
    197 H197       -0.2727  -25.7592  -44.4562 H         1 UNK         0.0600 
    198 H198       -1.5045  -26.7269  -43.6474 H         1 UNK         0.0600 
    199 H199       -0.2003  -27.5145  -44.5219 H         1 UNK         0.0600 
    200 H200       -0.6578  -24.6132  -46.8708 H         1 UNK         0.3000 
    201 H201        1.1419  -25.8030  -48.7583 H         1 UNK         0.0600 
    202 H202        0.0156  -22.9537  -48.5769 H         1 UNK         0.0600 
    203 H203        1.4344  -23.4396  -49.4953 H         1 UNK         0.0600 
    204 H204        1.4534  -23.5368  -47.7401 H         1 UNK         0.0600 
    205 H205       -2.2324  -25.0477  -48.9011 H         1 UNK         0.3000 
    206 H206       -3.8653  -25.1205  -50.3827 H         1 UNK         0.0600 
    207 H207       -3.0820  -27.4309  -50.9018 H         1 UNK         0.0600 
    208 H208       -2.0266  -26.8045  -52.1677 H         1 UNK         0.0600 
    209 H209       -3.7705  -26.6514  -52.3180 H         1 UNK         0.0600 
    210 H210       -2.7658  -22.8299  -50.2169 H         1 UNK         0.3000 
    211 H211       -1.9471  -21.7257  -52.8391 H         1 UNK         0.0600 
    212 H212       -1.3310  -19.7648  -51.4931 H         1 UNK         0.0600 
    213 H213       -0.6435  -21.2002  -50.7730 H         1 UNK         0.0600 
    214 H214       -2.0622  -20.4612  -50.0468 H         1 UNK         0.0600 
    215 H215       -3.3452  -19.1965  -51.3524 H         1 UNK         0.3000 
    216 H216       -5.5046  -18.9349  -53.1376 H         1 UNK         0.0600 
    217 H217       -4.9468  -17.4662  -50.5092 H         1 UNK         0.0600 
    218 H218       -6.0996  -16.9455  -51.7305 H         1 UNK         0.0600 
    219 H219       -4.3931  -16.9940  -52.1215 H         1 UNK         0.0600 
    220 H220       -5.4125  -20.4487  -49.9933 H         1 UNK         0.3000 
    221 H221       -8.2011  -20.5833  -49.3991 H         1 UNK         0.0600 
    222 H222       -6.4411  -21.0187  -47.7128 H         1 UNK         0.0600 
    223 H223       -5.8479  -22.3880  -48.6511 H         1 UNK         0.0600 
    224 H224       -7.4345  -22.4583  -47.8884 H         1 UNK         0.0600 
    225 H225       -6.1940  -22.3558  -51.6848 H         1 UNK         0.3000 
    226 H226       -8.3971  -24.2699  -52.3257 H         1 UNK         0.0600 
    227 H227       -5.4349  -24.3377  -53.1014 H         1 UNK         0.0600 
    228 H228       -6.1356  -25.2542  -51.7652 H         1 UNK         0.0600 
    229 H229       -6.6308  -25.5859  -53.4168 H         1 UNK         0.0600 
    230 H230       -7.5706  -21.2368  -53.0889 H         1 UNK         0.3000 
    231 H231       -7.7029  -19.8059  -54.7415 H         1 UNK         0.0600 
    232 H232      -10.0075  -20.7588  -54.9783 H         1 UNK         0.0600 
    233 H233       -9.4195  -21.8677  -56.2169 H         1 UNK         0.0600 
    234 H234       -9.3896  -20.1327  -56.4967 H         1 UNK         0.0600 
    235 H235       -5.3875  -21.6083  -54.7397 H         1 UNK         0.3000 
    236 H236       -4.7113  -22.1727  -57.5063 H         1 UNK         0.0600 
    237 H237       -3.8905  -23.5508  -55.5874 H         1 UNK         0.0600 
    238 H238       -2.5646  -22.9064  -56.5447 H         1 UNK         0.0600 
    239 H239       -2.9616  -22.1751  -54.9973 H         1 UNK         0.0600 
    240 H240       -4.2143  -19.4533  -55.3243 H         1 UNK         0.3000 
    241 H241       -2.0869  -18.1885  -56.8040 H         1 UNK         0.0600 
    242 H242       -3.6970  -16.0452  -59.1334 H         1 UNK         0.3800 
    243 H243       -2.1894  -16.5846  -58.4518 H         1 UNK         0.3800 
    244 H244       -3.9821  -16.9988  -54.7126 H         1 UNK         0.0800 
    245 H245       -2.5638  -16.2070  -55.3597 H         1 UNK         0.0800 
    246 H246       -2.2067  -15.8384  -52.7959 H         1 UNK         0.0800 
    247 H247       -0.5942  -16.0470  -53.4403 H         1 UNK         0.0800 
@<TRIPOS>BOND
     1    1    2 1    
     2    1  127 1    
     3    1  128 1    
     4    1  129 1    
     5    2    3 2    
     6    2    4 am   BACKBONE|DICT|INTERRES
     7    4    5 1    
     8    4  130 1    
     9    5    6 1    
    10    5   65 1    
    11    5  131 1    
    12    6    7 1    
    13    6  132 1    
    14    6  133 1    
    15    7    8 1    
    16    8    9 1    
    17    8  134 1    
    18    8  135 1    
    19    9   10 ar   
    20    9   14 ar   
    21   10   11 ar   
    22   10  136 1    
    23   11   12 ar   
    24   11  126 1    
    25   12   13 ar   
    26   12  137 1    
    27   13   14 ar   
    28   13   15 1    
    29   14  138 1    
    30   15   16 1    
    31   15  139 1    
    32   15  140 1    
    33   16   17 1    
    34   17   18 1    
    35   17  141 1    
    36   17  142 1    
    37   18   19 1    
    38   18   67 1    
    39   18  143 1    
    40   19   20 am   BACKBONE|DICT|INTERRES
    41   19  144 1    
    42   20   21 2    
    43   20   22 1    
    44   22   23 1    
    45   22   24 1    
    46   22  145 1    
    47   23  146 1    
    48   23  147 1    
    49   23  148 1    
    50   24   25 am   BACKBONE|DICT|INTERRES
    51   24  149 1    
    52   25   26 2    
    53   25   27 1    
    54   27   28 1    
    55   27   29 1    
    56   27  150 1    
    57   28  151 1    
    58   28  152 1    
    59   28  153 1    
    60   29   30 am   BACKBONE|DICT|INTERRES
    61   29  154 1    
    62   30   31 2    
    63   30   32 1    
    64   32   33 1    
    65   32   34 1    
    66   32  155 1    
    67   33  156 1    
    68   33  157 1    
    69   33  158 1    
    70   34   35 am   BACKBONE|DICT|INTERRES
    71   34  159 1    
    72   35   36 2    
    73   35   37 1    
    74   37   38 1    
    75   37   39 1    
    76   37  160 1    
    77   38  161 1    
    78   38  162 1    
    79   38  163 1    
    80   39   40 am   BACKBONE|DICT|INTERRES
    81   39  164 1    
    82   40   41 2    
    83   40   42 1    
    84   42   43 1    
    85   42   44 1    
    86   42  165 1    
    87   43  166 1    
    88   43  167 1    
    89   43  168 1    
    90   44   45 am   BACKBONE|DICT|INTERRES
    91   44  169 1    
    92   45   46 2    
    93   45   47 1    
    94   47   48 1    
    95   47   49 1    
    96   47  170 1    
    97   48  171 1    
    98   48  172 1    
    99   48  173 1    
   100   49   50 am   BACKBONE|DICT|INTERRES
   101   49  174 1    
   102   50   51 2    
   103   50   52 1    
   104   52   53 1    
   105   52   54 1    
   106   52  175 1    
   107   53  176 1    
   108   53  177 1    
   109   53  178 1    
   110   54   55 am   BACKBONE|DICT|INTERRES
   111   54  179 1    
   112   55   56 2    
   113   55   57 1    
   114   57   58 1    
   115   57   59 1    
   116   57  180 1    
   117   58  181 1    
   118   58  182 1    
   119   58  183 1    
   120   59   60 am   BACKBONE|DICT|INTERRES
   121   59  184 1    
   122   60   61 2    
   123   60   62 1    
   124   62   63 1    
   125   62   64 1    
   126   62  185 1    
   127   63  186 1    
   128   63  187 1    
   129   63  188 1    
   130   64   65 am   BACKBONE|DICT|INTERRES
   131   64  189 1    
   132   65   66 2    
   133   67   68 2    
   134   67   69 am   BACKBONE|DICT|INTERRES
   135   69   70 1    
   136   69  190 1    
   137   70   71 1    
   138   70   72 1    
   139   70  191 1    
   140   71  192 1    
   141   71  193 1    
   142   71  194 1    
   143   72   73 2    
   144   72   74 am   BACKBONE|DICT|INTERRES
   145   74   75 1    
   146   74  195 1    
   147   75   76 1    
   148   75   77 1    
   149   75  196 1    
   150   76  197 1    
   151   76  198 1    
   152   76  199 1    
   153   77   78 2    
   154   77   79 am   BACKBONE|DICT|INTERRES
   155   79   80 1    
   156   79  200 1    
   157   80   81 1    
   158   80   82 1    
   159   80  201 1    
   160   81  202 1    
   161   81  203 1    
   162   81  204 1    
   163   82   83 2    
   164   82   84 am   BACKBONE|DICT|INTERRES
   165   84   85 1    
   166   84  205 1    
   167   85   86 1    
   168   85   87 1    
   169   85  206 1    
   170   86  207 1    
   171   86  208 1    
   172   86  209 1    
   173   87   88 2    
   174   87   89 am   BACKBONE|DICT|INTERRES
   175   89   90 1    
   176   89  210 1    
   177   90   91 1    
   178   90   92 1    
   179   90  211 1    
   180   91  212 1    
   181   91  213 1    
   182   91  214 1    
   183   92   93 2    
   184   92   94 am   BACKBONE|DICT|INTERRES
   185   94   95 1    
   186   94  215 1    
   187   95   96 1    
   188   95   97 1    
   189   95  216 1    
   190   96  217 1    
   191   96  218 1    
   192   96  219 1    
   193   97   98 2    
   194   97   99 am   BACKBONE|DICT|INTERRES
   195   99  100 1    
   196   99  220 1    
   197  100  101 1    
   198  100  102 1    
   199  100  221 1    
   200  101  222 1    
   201  101  223 1    
   202  101  224 1    
   203  102  103 2    
   204  102  104 am   BACKBONE|DICT|INTERRES
   205  104  105 1    
   206  104  225 1    
   207  105  106 1    
   208  105  107 1    
   209  105  226 1    
   210  106  227 1    
   211  106  228 1    
   212  106  229 1    
   213  107  108 2    
   214  107  109 am   BACKBONE|DICT|INTERRES
   215  109  110 1    
   216  109  230 1    
   217  110  111 1    
   218  110  112 1    
   219  110  231 1    
   220  111  232 1    
   221  111  233 1    
   222  111  234 1    
   223  112  113 2    
   224  112  114 am   BACKBONE|DICT|INTERRES
   225  114  115 1    
   226  114  235 1    
   227  115  116 1    
   228  115  117 1    
   229  115  236 1    
   230  116  237 1    
   231  116  238 1    
   232  116  239 1    
   233  117  118 2    
   234  117  119 am   BACKBONE|DICT|INTERRES
   235  119  120 1    
   236  119  240 1    
   237  120  121 1    
   238  120  124 1    
   239  120  241 1    
   240  121  122 am   BACKBONE|DICT|INTERRES
   241  121  123 2    
   242  122  242 1    
   243  122  243 1    
   244  124  125 1    
   245  124  244 1    
   246  124  245 1    
   247  125  126 1    
   248  126  246 1    
   249  126  247 1    
@<TRIPOS>SUBSTRUCTURE
     1 UNK         1 GROUP             0       ****    0 ROOT    
