@<TRIPOS>MOLECULE
3R540
247   249    1
SMALL
USER_CHARGES


@<TRIPOS>ATOM
      1 CA          3.9249  -15.4906  -50.3721 C.3       0 UNK        -0.1800 
      2 C           2.4796  -15.1145  -50.0774 C.2       0 UNK         0.5000 
      3 O           1.6281  -15.2185  -50.9588 O.2       0 UNK        -0.5000 
      4 N           2.2095  -14.6773  -48.8450 N.am      1 UNK        -0.5000 
      5 CA          0.8995  -14.3282  -48.3012 C.3       1 UNK         0.1400 
      6 C6          0.3070  -13.0355  -48.9332 C.3       23 UNK        -0.0398 
      7 S7         -1.4717  -12.7442  -48.6049 S.3       23 UNK        -0.2404 
      8 C8         -2.3051  -13.6007  -49.9842 C.3       23 UNK        -0.0205 
      9 C9         -2.6336  -15.0389  -49.6159 C.ar      23 UNK        -0.0193 
     10 C10        -3.8496  -15.3576  -49.0037 C.ar      23 UNK        -0.1150 
     11 C11        -4.1256  -16.6738  -48.6175 C.ar      23 UNK        -0.0193 
     12 C12        -3.1581  -17.6638  -48.8078 C.ar      23 UNK        -0.1150 
     13 C13        -1.9400  -17.3531  -49.4165 C.ar      23 UNK        -0.0193 
     14 C14        -1.7067  -16.0516  -49.8606 C.ar      23 UNK        -0.1150 
     15 C15        -0.8687  -18.4131  -49.5961 C.3       23 UNK        -0.0205 
     16 S16         0.4568  -18.2615  -48.3500 S.3       23 UNK        -0.2404 
     17 C17        -0.3769  -18.6657  -46.7729 C.3       23 UNK        -0.0398 
     18 CA         -0.2205  -20.1604  -46.3925 C.3       11 UNK         0.1400 
     19 N          -0.0359  -20.3582  -44.9494 N.am      11 UNK        -0.5000 
     20 C           0.4318  -21.4904  -44.3999 C.2       10 UNK         0.5000 
     21 O           0.7869  -22.4710  -45.0538 O.2       10 UNK        -0.5000 
     22 CA          0.4566  -21.5564  -42.8635 C.3       10 UNK         0.1400 
     23 CB          1.6921  -20.8434  -42.2917 C.3       10 UNK        -0.1800 
     24 N          -0.7631  -20.9808  -42.2968 N.am      10 UNK        -0.5000 
     25 C          -1.9391  -21.6256  -42.2591 C.2       9 UNK         0.5000 
     26 O          -2.0800  -22.7977  -42.6067 O.2       9 UNK        -0.5000 
     27 CA         -3.1707  -20.8375  -41.7687 C.3       9 UNK         0.1400 
     28 CB         -3.4378  -21.1337  -40.2854 C.3       9 UNK        -0.1800 
     29 N          -3.0558  -19.3896  -41.9474 N.am      9 UNK        -0.5000 
     30 C          -2.9977  -18.7517  -43.1257 C.2       8 UNK         0.5000 
     31 O          -3.0604  -19.3167  -44.2150 O.2       8 UNK        -0.5000 
     32 CA         -2.7449  -17.2328  -43.0682 C.3       8 UNK         0.1400 
     33 CB         -4.0738  -16.4746  -42.9324 C.3       8 UNK        -0.1800 
     34 N          -1.8489  -16.8624  -41.9662 N.am      8 UNK        -0.5000 
     35 C          -0.5863  -17.2959  -41.8565 C.2       7 UNK         0.5000 
     36 O          -0.0152  -17.9506  -42.7354 O.2       7 UNK        -0.5000 
     37 CA          0.1125  -17.0448  -40.5131 C.3       7 UNK         0.1400 
     38 CB         -0.5197  -17.9253  -39.4144 C.3       7 UNK        -0.1800 
     39 N           1.5234  -17.3706  -40.6737 N.am      7 UNK        -0.5000 
     40 C           2.5136  -17.1302  -39.8070 C.2       6 UNK         0.5000 
     41 O           2.3516  -16.6137  -38.7007 O.2       6 UNK        -0.5000 
     42 CA          3.9358  -17.5202  -40.2624 C.3       6 UNK         0.1400 
     43 CB          4.2933  -18.9301  -39.7675 C.3       6 UNK        -0.1800 
     44 N           4.1169  -17.4613  -41.7171 N.am      6 UNK        -0.5000 
     45 C           4.0617  -16.3311  -42.4342 C.2       5 UNK         0.5000 
     46 O           3.9009  -15.2177  -41.9284 O.2       5 UNK        -0.5000 
     47 CA          4.1774  -16.4904  -43.9640 C.3       5 UNK         0.1400 
     48 CB          2.9389  -17.2063  -44.5346 C.3       5 UNK        -0.1800 
     49 N           4.3049  -15.2000  -44.6351 N.am      5 UNK        -0.5000 
     50 C           5.3759  -14.3973  -44.6004 C.2       4 UNK         0.5000 
     51 O           6.4553  -14.7111  -44.0961 O.2       4 UNK        -0.5000 
     52 CA          5.2009  -13.0028  -45.2254 C.3       4 UNK         0.1400 
     53 CB          5.4237  -13.0601  -46.7455 C.3       4 UNK        -0.1800 
     54 N           3.8659  -12.4642  -44.9548 N.am      4 UNK        -0.5000 
     55 C           3.5579  -11.6596  -43.9285 C.2       3 UNK         0.5000 
     56 O           4.3845  -11.2453  -43.1147 O.2       3 UNK        -0.5000 
     57 CA          2.0862  -11.2167  -43.7930 C.3       3 UNK         0.1400 
     58 CB          1.8805   -9.8443  -44.4530 C.3       3 UNK        -0.1800 
     59 N           1.1394  -12.1661  -44.3801 N.am      3 UNK        -0.5000 
     60 C           0.7244  -13.2931  -43.7858 C.2       2 UNK         0.5000 
     61 O           1.0425  -13.6212  -42.6437 O.2       2 UNK        -0.5000 
     62 CA         -0.2102  -14.2147  -44.5975 C.3       2 UNK         0.1400 
     63 CB         -1.6735  -13.9284  -44.2314 C.3       2 UNK        -0.1800 
     64 N          -0.0788  -14.1359  -46.0569 N.am      2 UNK        -0.5000 
     65 C           1.0436  -14.2834  -46.7697 C.2       1 UNK         0.5000 
     66 O           2.1619  -14.3937  -46.2607 O.2       1 UNK        -0.5000 
     67 C          -1.3741  -21.0192  -46.9582 C.2       11 UNK         0.5000 
     68 O          -1.3168  -21.4228  -48.1188 O.2       11 UNK        -0.5000 
     69 N          -2.3796  -21.3374  -46.1291 N.am      12 UNK        -0.5000 
     70 CA         -3.5341  -22.1756  -46.4704 C.3       12 UNK         0.1400 
     71 CB         -4.4672  -22.2938  -45.2576 C.3       12 UNK        -0.1800 
     72 C          -3.1763  -23.5753  -47.0140 C.2       12 UNK         0.5000 
     73 O          -3.9456  -24.1310  -47.7968 O.2       12 UNK        -0.5000 
     74 N          -1.9995  -24.0974  -46.6387 N.am      13 UNK        -0.5000 
     75 CA         -1.4259  -25.3313  -47.1778 C.3       13 UNK         0.1400 
     76 CB         -0.2044  -25.7258  -46.3347 C.3       13 UNK        -0.1800 
     77 C          -1.0429  -25.2252  -48.6690 C.2       13 UNK         0.5000 
     78 O          -1.1190  -26.2263  -49.3808 O.2       13 UNK        -0.5000 
     79 N          -0.6607  -24.0225  -49.1220 N.am      14 UNK        -0.5000 
     80 CA         -0.3995  -23.7129  -50.5275 C.3       14 UNK         0.1400 
     81 CB          0.6332  -22.5798  -50.6274 C.3       14 UNK        -0.1800 
     82 C          -1.6969  -23.3318  -51.2591 C.2       14 UNK         0.5000 
     83 O          -1.8611  -23.6822  -52.4282 O.2       14 UNK        -0.5000 
     84 N          -2.6185  -22.6537  -50.5585 N.am      15 UNK        -0.5000 
     85 CA         -3.9389  -22.2808  -51.0779 C.3       15 UNK         0.1400 
     86 CB         -4.6399  -21.3311  -50.0978 C.3       15 UNK        -0.1800 
     87 C          -4.8391  -23.4926  -51.3985 C.2       15 UNK         0.5000 
     88 O          -5.7518  -23.3726  -52.2154 O.2       15 UNK        -0.5000 
     89 N          -4.5462  -24.6518  -50.7934 N.am      16 UNK        -0.5000 
     90 CA         -5.1522  -25.9565  -51.0616 C.3       16 UNK         0.1400 
     91 CB         -4.7946  -26.9077  -49.9059 C.3       16 UNK        -0.1800 
     92 C          -4.7547  -26.5240  -52.4456 C.2       16 UNK         0.5000 
     93 O          -4.1361  -27.5853  -52.5321 O.2       16 UNK        -0.5000 
     94 N          -5.1159  -25.7855  -53.5029 N.am      17 UNK        -0.5000 
     95 CA         -5.0092  -26.0837  -54.9364 C.3       17 UNK         0.1400 
     96 CB         -5.7940  -27.3645  -55.2855 C.3       17 UNK        -0.1800 
     97 C          -3.5830  -26.1206  -55.5266 C.2       17 UNK         0.5000 
     98 O          -3.4609  -26.2184  -56.7485 O.2       17 UNK        -0.5000 
     99 N          -2.5344  -26.0282  -54.6967 N.am      18 UNK        -0.5000 
    100 CA        -1.1385  -26.0286  -55.1425 C.3       18 UNK         0.1400 
    101 CB        -0.2121  -26.3858  -53.9690 C.3       18 UNK        -0.1800 
    102 C         -0.7539  -24.6849  -55.7862 C.2       18 UNK         0.5000 
    103 O         -0.3125  -24.6591  -56.9358 O.2       18 UNK        -0.5000 
    104 N         -0.9687  -23.5963  -55.0395 N.am      19 UNK        -0.5000 
    105 CA        -0.8155  -22.2130  -55.4915 C.3       19 UNK         0.1400 
    106 CB        -0.0245  -21.4317  -54.4297 C.3       19 UNK        -0.1800 
    107 C         -2.1800  -21.5394  -55.7264 C.2       19 UNK         0.5000 
    108 O         -2.2258  -20.4891  -56.3682 O.2       19 UNK        -0.5000 
    109 N         -3.2566  -22.1320  -55.1844 N.am      20 UNK        -0.5000 
    110 CA        -4.6571  -21.6834  -55.1740 C.3       20 UNK         0.1400 
    111 CB        -5.2221  -21.5193  -56.5973 C.3       20 UNK        -0.1800 
    112 C         -4.8976  -20.4270  -54.3133 C.2       20 UNK         0.5000 
    113 O         -5.7610  -20.4580  -53.4373 O.2       20 UNK        -0.5000 
    114 N         -4.1019  -19.3734  -54.5400 N.am      21 UNK        -0.5000 
    115 CA        -4.0086  -18.1304  -53.7698 C.3       21 UNK         0.1400 
    116 CB        -3.1667  -18.3816  -52.5026 C.3       21 UNK        -0.1800 
    117 C         -5.3828  -17.4795  -53.4911 C.2       21 UNK         0.5000 
    118 O         -6.0345  -17.0296  -54.4353 O.2       21 UNK        -0.5000 
    119 N         -5.7979  -17.4477  -52.2182 N.am      22 UNK        -0.5000 
    120 CA        -7.1086  -16.9644  -51.7589 C.3       22 UNK         0.1400 
    121 C         -8.3190  -17.8927  -52.0838 C.2       22 UNK         0.5000 
    122 N         -8.1302  -19.1021  -52.5972 N.am      22 UNK        -0.7600 
    123 O         -9.4636  -17.4969  -51.8786 O.2       22 UNK        -0.5000 
    124 C124       -7.0750  -16.5586  -50.2609 C.3       23 UNK        -0.0398 
    125 S125       -6.5596  -17.9039  -49.1306 S.3       23 UNK        -0.2404 
    126 C126       -5.4560  -17.0300  -47.9732 C.3       23 UNK        -0.0205 
    127 H127        3.9872  -16.5406  -50.6580 H         1 UNK         0.0600 
    128 H128        4.5695  -15.3350  -49.5065 H         1 UNK         0.0600 
    129 H129        4.3093  -14.8880  -51.1950 H         1 UNK         0.0600 
    130 H130        2.9366  -14.6540  -48.1405 H         1 UNK         0.3000 
    131 H131        0.2462  -15.1714  -48.4966 H         1 UNK         0.0600 
    132 H132        0.8649  -12.1631  -48.5891 H         1 UNK         0.0800 
    133 H133        0.4398  -13.0479  -50.0148 H         1 UNK         0.0800 
    134 H134       -1.6920  -13.5642  -50.8859 H         1 UNK         0.0800 
    135 H135       -3.2255  -13.0658  -50.2229 H         1 UNK         0.0800 
    136 H136       -4.5771  -14.5789  -48.8228 H         1 UNK         0.1150 
    137 H137       -3.3542  -18.6736  -48.4771 H         1 UNK         0.1150 
    138 H138       -0.7765  -15.8182  -50.3568 H         1 UNK         0.1150 
    139 H139       -1.3070  -19.4089  -49.5777 H         1 UNK         0.0800 
    140 H140       -0.4237  -18.3060  -50.5864 H         1 UNK         0.0800 
    141 H141       -1.4199  -18.3477  -46.7806 H         1 UNK         0.0800 
    142 H142        0.1029  -18.0403  -46.0182 H         1 UNK         0.0800 
    143 H143        0.6936  -20.5323  -46.8613 H         1 UNK         0.0600 
    144 H144       -0.3013  -19.5940  -44.3415 H         1 UNK         0.3000 
    145 H145        0.5181  -22.6073  -42.5718 H         1 UNK         0.0600 
    146 H146        1.6861  -20.8605  -41.2019 H         1 UNK         0.0600 
    147 H147        2.6079  -21.3359  -42.6204 H         1 UNK         0.0600 
    148 H148        1.7521  -19.8048  -42.6115 H         1 UNK         0.0600 
    149 H149       -0.7260  -20.0073  -42.0317 H         1 UNK         0.3000 
    150 H150       -4.0311  -21.1797  -42.3472 H         1 UNK         0.0600 
    151 H151       -3.5580  -22.2046  -40.1159 H         1 UNK         0.0600 
    152 H152       -4.3523  -20.6483  -39.9440 H         1 UNK         0.0600 
    153 H153       -2.6181  -20.7912  -39.6523 H         1 UNK         0.0600 
    154 H154       -2.9982  -18.8380  -41.1047 H         1 UNK         0.3000 
    155 H155       -2.2698  -16.9409  -44.0069 H         1 UNK         0.0600 
    156 H156       -4.6003  -16.7436  -42.0158 H         1 UNK         0.0600 
    157 H157       -3.9207  -15.3960  -42.9230 H         1 UNK         0.0600 
    158 H158       -4.7363  -16.6997  -43.7694 H         1 UNK         0.0600 
    159 H159       -2.2565  -16.3300  -41.2108 H         1 UNK         0.3000 
    160 H160        0.0156  -15.9878  -40.2580 H         1 UNK         0.0600 
    161 H161       -0.4156  -18.9870  -39.6423 H         1 UNK         0.0600 
    162 H162       -1.5834  -17.7159  -39.2980 H         1 UNK         0.0600 
    163 H163       -0.0588  -17.7490  -38.4429 H         1 UNK         0.0600 
    164 H164        1.7427  -17.7661  -41.5789 H         1 UNK         0.3000 
    165 H165        4.6318  -16.8128  -39.8066 H         1 UNK         0.0600 
    166 H166        5.3251  -19.1842  -40.0109 H         1 UNK         0.0600 
    167 H167        4.1896  -19.0011  -38.6839 H         1 UNK         0.0600 
    168 H168        3.6469  -19.6889  -40.2087 H         1 UNK         0.0600 
    169 H169        4.2674  -18.3406  -42.1898 H         1 UNK         0.3000 
    170 H170        5.0661  -17.0851  -44.1839 H         1 UNK         0.0600 
    171 H171        2.8441  -18.2181  -44.1407 H         1 UNK         0.0600 
    172 H172        2.0200  -16.6721  -44.2908 H         1 UNK         0.0600 
    173 H173        2.9946  -17.2897  -45.6204 H         1 UNK         0.0600 
    174 H174        3.4671  -14.8589  -45.0982 H         1 UNK         0.3000 
    175 H175        5.9612  -12.3447  -44.7993 H         1 UNK         0.0600 
    176 H176        6.4208  -13.4355  -46.9787 H         1 UNK         0.0600 
    177 H177        4.7041  -13.7147  -47.2371 H         1 UNK         0.0600 
    178 H178        5.3361  -12.0701  -47.1933 H         1 UNK         0.0600 
    179 H179        3.1143  -12.8254  -45.5299 H         1 UNK         0.3000 
    180 H180        1.8688  -11.1152  -42.7275 H         1 UNK         0.0600 
    181 H181        2.0753   -9.8796  -45.5257 H         1 UNK         0.0600 
    182 H182        2.5507   -9.0992  -44.0222 H         1 UNK         0.0600 
    183 H183        0.8615   -9.4853  -44.3077 H         1 UNK         0.0600 
    184 H184        0.8090  -11.9654  -45.3122 H         1 UNK         0.3000 
    185 H185        0.0194  -15.2423  -44.3098 H         1 UNK         0.0600 
    186 H186       -1.8380  -14.0451  -43.1595 H         1 UNK         0.0600 
    187 H187       -1.9609  -12.9107  -44.4986 H         1 UNK         0.0600 
    188 H188       -2.3517  -14.6099  -44.7442 H         1 UNK         0.0600 
    189 H189       -0.9421  -14.0075  -46.5682 H         1 UNK         0.3000 
    190 H190       -2.4108  -20.8801  -45.2239 H         1 UNK         0.3000 
    191 H191       -4.0767  -21.6465  -47.2520 H         1 UNK         0.0600 
    192 H192       -3.9870  -22.8161  -44.4311 H         1 UNK         0.0600 
    193 H193       -5.3690  -22.8512  -45.5143 H         1 UNK         0.0600 
    194 H194       -4.7850  -21.3136  -44.9027 H         1 UNK         0.0600 
    195 H195       -1.4219  -23.5706  -45.9978 H         1 UNK         0.3000 
    196 H196       -2.1756  -26.1200  -47.0846 H         1 UNK         0.0600 
    197 H197        0.2260  -26.6645  -46.6859 H         1 UNK         0.0600 
    198 H198       -0.4747  -25.8636  -45.2876 H         1 UNK         0.0600 
    199 H199        0.5782  -24.9674  -46.3820 H         1 UNK         0.0600 
    200 H200       -0.6797  -23.2288  -48.4904 H         1 UNK         0.3000 
    201 H201        0.0216  -24.5925  -51.0180 H         1 UNK         0.0600 
    202 H202        1.5467  -22.8309  -50.0885 H         1 UNK         0.0600 
    203 H203        0.2538  -21.6410  -50.2231 H         1 UNK         0.0600 
    204 H204        0.9100  -22.3990  -51.6662 H         1 UNK         0.0600 
    205 H205       -2.3872  -22.3579  -49.6172 H         1 UNK         0.3000 
    206 H206       -3.7673  -21.7396  -52.0086 H         1 UNK         0.0600 
    207 H207       -5.4822  -20.8349  -50.5820 H         1 UNK         0.0600 
    208 H208       -5.0382  -21.8686  -49.2384 H         1 UNK         0.0600 
    209 H209       -3.9669  -20.5536  -49.7388 H         1 UNK         0.0600 
    210 H210       -3.8142  -24.6389  -50.0962 H         1 UNK         0.3000 
    211 H211       -6.2370  -25.8333  -51.0648 H         1 UNK         0.0600 
    212 H212       -3.7184  -27.0687  -49.8361 H         1 UNK         0.0600 
    213 H213       -5.2660  -27.8821  -50.0396 H         1 UNK         0.0600 
    214 H214       -5.1354  -26.5114  -48.9491 H         1 UNK         0.0600 
    215 H215       -5.5553  -24.8948  -53.2807 H         1 UNK         0.3000 
    216 H216       -5.5084  -25.2531  -55.4377 H         1 UNK         0.0600 
    217 H217       -5.8420  -27.5133  -56.3649 H         1 UNK         0.0600 
    218 H218       -6.8202  -27.3104  -54.9221 H         1 UNK         0.0600 
    219 H219       -5.3315  -28.2538  -54.8565 H         1 UNK         0.0600 
    220 H220       -2.7041  -25.9615  -53.7031 H         1 UNK         0.3000 
    221 H221       -1.0186  -26.8058  -55.9006 H         1 UNK         0.0600 
    222 H222       -0.2942  -25.6741  -53.1493 H         1 UNK         0.0600 
    223 H223       -0.4446  -27.3748  -53.5737 H         1 UNK         0.0600 
    224 H224        0.8310  -26.3998  -54.2871 H         1 UNK         0.0600 
    225 H225       -1.3028  -23.7191  -54.0838 H         1 UNK         0.3000 
    226 H226       -0.2607  -22.1755  -56.4310 H         1 UNK         0.0600 
    227 H227        0.9447  -21.8935  -54.2412 H         1 UNK         0.0600 
    228 H228        0.1616  -20.4079  -54.7564 H         1 UNK         0.0600 
    229 H229       -0.5628  -21.3789  -53.4827 H         1 UNK         0.0600 
    230 H230       -3.0779  -22.9706  -54.6516 H         1 UNK         0.3000 
    231 H231       -5.2164  -22.4933  -54.7043 H         1 UNK         0.0600 
    232 H232       -6.2900  -21.3001  -56.5651 H         1 UNK         0.0600 
    233 H233       -5.0950  -22.4329  -57.1782 H         1 UNK         0.0600 
    234 H234       -4.7420  -20.7059  -57.1413 H         1 UNK         0.0600 
    235 H235       -3.4303  -19.4747  -55.2962 H         1 UNK         0.3000 
    236 H236       -3.4595  -17.4231  -54.3928 H         1 UNK         0.0600 
    237 H237       -2.1753  -18.7560  -52.7582 H         1 UNK         0.0600 
    238 H238       -3.0258  -17.4529  -51.9515 H         1 UNK         0.0600 
    239 H239       -3.6294  -19.1070  -51.8334 H         1 UNK         0.0600 
    240 H240       -5.2156  -17.8611  -51.5047 H         1 UNK         0.3000 
    241 H241       -7.3108  -16.0482  -52.3170 H         1 UNK         0.0600 
    242 H242       -8.9302  -19.6785  -52.8010 H         1 UNK         0.3800 
    243 H243       -7.1982  -19.4596  -52.7956 H         1 UNK         0.3800 
    244 H244       -6.3988  -15.7124  -50.1449 H         1 UNK         0.0800 
    245 H245       -8.0499  -16.1904  -49.9370 H         1 UNK         0.0800 
    246 H246       -5.9569  -16.1387  -47.5922 H         1 UNK         0.0800 
    247 H247       -5.2748  -17.6705  -47.1086 H         1 UNK         0.0800 
@<TRIPOS>BOND
     1    1    2 1    
     2    1  127 1    
     3    1  128 1    
     4    1  129 1    
     5    2    3 2    
     6    2    4 am   BACKBONE|DICT|INTERRES
     7    4    5 1    
     8    4  130 1    
     9    5    6 1    
    10    5   65 1    
    11    5  131 1    
    12    6    7 1    
    13    6  132 1    
    14    6  133 1    
    15    7    8 1    
    16    8    9 1    
    17    8  134 1    
    18    8  135 1    
    19    9   10 ar   
    20    9   14 ar   
    21   10   11 ar   
    22   10  136 1    
    23   11   12 ar   
    24   11  126 1    
    25   12   13 ar   
    26   12  137 1    
    27   13   14 ar   
    28   13   15 1    
    29   14  138 1    
    30   15   16 1    
    31   15  139 1    
    32   15  140 1    
    33   16   17 1    
    34   17   18 1    
    35   17  141 1    
    36   17  142 1    
    37   18   19 1    
    38   18   67 1    
    39   18  143 1    
    40   19   20 am   BACKBONE|DICT|INTERRES
    41   19  144 1    
    42   20   21 2    
    43   20   22 1    
    44   22   23 1    
    45   22   24 1    
    46   22  145 1    
    47   23  146 1    
    48   23  147 1    
    49   23  148 1    
    50   24   25 am   BACKBONE|DICT|INTERRES
    51   24  149 1    
    52   25   26 2    
    53   25   27 1    
    54   27   28 1    
    55   27   29 1    
    56   27  150 1    
    57   28  151 1    
    58   28  152 1    
    59   28  153 1    
    60   29   30 am   BACKBONE|DICT|INTERRES
    61   29  154 1    
    62   30   31 2    
    63   30   32 1    
    64   32   33 1    
    65   32   34 1    
    66   32  155 1    
    67   33  156 1    
    68   33  157 1    
    69   33  158 1    
    70   34   35 am   BACKBONE|DICT|INTERRES
    71   34  159 1    
    72   35   36 2    
    73   35   37 1    
    74   37   38 1    
    75   37   39 1    
    76   37  160 1    
    77   38  161 1    
    78   38  162 1    
    79   38  163 1    
    80   39   40 am   BACKBONE|DICT|INTERRES
    81   39  164 1    
    82   40   41 2    
    83   40   42 1    
    84   42   43 1    
    85   42   44 1    
    86   42  165 1    
    87   43  166 1    
    88   43  167 1    
    89   43  168 1    
    90   44   45 am   BACKBONE|DICT|INTERRES
    91   44  169 1    
    92   45   46 2    
    93   45   47 1    
    94   47   48 1    
    95   47   49 1    
    96   47  170 1    
    97   48  171 1    
    98   48  172 1    
    99   48  173 1    
   100   49   50 am   BACKBONE|DICT|INTERRES
   101   49  174 1    
   102   50   51 2    
   103   50   52 1    
   104   52   53 1    
   105   52   54 1    
   106   52  175 1    
   107   53  176 1    
   108   53  177 1    
   109   53  178 1    
   110   54   55 am   BACKBONE|DICT|INTERRES
   111   54  179 1    
   112   55   56 2    
   113   55   57 1    
   114   57   58 1    
   115   57   59 1    
   116   57  180 1    
   117   58  181 1    
   118   58  182 1    
   119   58  183 1    
   120   59   60 am   BACKBONE|DICT|INTERRES
   121   59  184 1    
   122   60   61 2    
   123   60   62 1    
   124   62   63 1    
   125   62   64 1    
   126   62  185 1    
   127   63  186 1    
   128   63  187 1    
   129   63  188 1    
   130   64   65 am   BACKBONE|DICT|INTERRES
   131   64  189 1    
   132   65   66 2    
   133   67   68 2    
   134   67   69 am   BACKBONE|DICT|INTERRES
   135   69   70 1    
   136   69  190 1    
   137   70   71 1    
   138   70   72 1    
   139   70  191 1    
   140   71  192 1    
   141   71  193 1    
   142   71  194 1    
   143   72   73 2    
   144   72   74 am   BACKBONE|DICT|INTERRES
   145   74   75 1    
   146   74  195 1    
   147   75   76 1    
   148   75   77 1    
   149   75  196 1    
   150   76  197 1    
   151   76  198 1    
   152   76  199 1    
   153   77   78 2    
   154   77   79 am   BACKBONE|DICT|INTERRES
   155   79   80 1    
   156   79  200 1    
   157   80   81 1    
   158   80   82 1    
   159   80  201 1    
   160   81  202 1    
   161   81  203 1    
   162   81  204 1    
   163   82   83 2    
   164   82   84 am   BACKBONE|DICT|INTERRES
   165   84   85 1    
   166   84  205 1    
   167   85   86 1    
   168   85   87 1    
   169   85  206 1    
   170   86  207 1    
   171   86  208 1    
   172   86  209 1    
   173   87   88 2    
   174   87   89 am   BACKBONE|DICT|INTERRES
   175   89   90 1    
   176   89  210 1    
   177   90   91 1    
   178   90   92 1    
   179   90  211 1    
   180   91  212 1    
   181   91  213 1    
   182   91  214 1    
   183   92   93 2    
   184   92   94 am   BACKBONE|DICT|INTERRES
   185   94   95 1    
   186   94  215 1    
   187   95   96 1    
   188   95   97 1    
   189   95  216 1    
   190   96  217 1    
   191   96  218 1    
   192   96  219 1    
   193   97   98 2    
   194   97   99 am   BACKBONE|DICT|INTERRES
   195   99  100 1    
   196   99  220 1    
   197  100  101 1    
   198  100  102 1    
   199  100  221 1    
   200  101  222 1    
   201  101  223 1    
   202  101  224 1    
   203  102  103 2    
   204  102  104 am   BACKBONE|DICT|INTERRES
   205  104  105 1    
   206  104  225 1    
   207  105  106 1    
   208  105  107 1    
   209  105  226 1    
   210  106  227 1    
   211  106  228 1    
   212  106  229 1    
   213  107  108 2    
   214  107  109 am   BACKBONE|DICT|INTERRES
   215  109  110 1    
   216  109  230 1    
   217  110  111 1    
   218  110  112 1    
   219  110  231 1    
   220  111  232 1    
   221  111  233 1    
   222  111  234 1    
   223  112  113 2    
   224  112  114 am   BACKBONE|DICT|INTERRES
   225  114  115 1    
   226  114  235 1    
   227  115  116 1    
   228  115  117 1    
   229  115  236 1    
   230  116  237 1    
   231  116  238 1    
   232  116  239 1    
   233  117  118 2    
   234  117  119 am   BACKBONE|DICT|INTERRES
   235  119  120 1    
   236  119  240 1    
   237  120  121 1    
   238  120  124 1    
   239  120  241 1    
   240  121  122 am   BACKBONE|DICT|INTERRES
   241  121  123 2    
   242  122  242 1    
   243  122  243 1    
   244  124  125 1    
   245  124  244 1    
   246  124  245 1    
   247  125  126 1    
   248  126  246 1    
   249  126  247 1    
@<TRIPOS>SUBSTRUCTURE
     1 UNK         1 GROUP             0       ****    0 ROOT    
