@<TRIPOS>MOLECULE
3R540
247   249    1
SMALL
USER_CHARGES


@<TRIPOS>ATOM
      1 CA         -1.1420  -14.0280  -53.2731 C.3       0 UNK        -0.1800 
      2 C          -0.6903  -14.0381  -51.8209 C.2       0 UNK         0.5000 
      3 O           0.1118  -13.1893  -51.4281 O.2       0 UNK        -0.5000 
      4 N          -1.1910  -14.9979  -51.0350 N.am      1 UNK        -0.5000 
      5 CA         -0.8987  -15.1756  -49.6136 C.3       1 UNK         0.1400 
      6 C6         -0.4015  -16.6202  -49.3360 C.3       23 UNK        -0.0398 
      7 S7          0.8985  -16.6743  -48.0627 S.3       23 UNK        -0.2404 
      8 C8          2.3938  -16.9559  -49.0674 C.3       23 UNK        -0.0205 
      9 C9          2.5928  -18.4234  -49.4308 C.ar      23 UNK        -0.0193 
     10 C10         2.0540  -18.9399  -50.6132 C.ar      23 UNK        -0.1150 
     11 C11         2.2457  -20.2792  -50.9609 C.ar      23 UNK        -0.0193 
     12 C12         3.0248  -21.0974  -50.1332 C.ar      23 UNK        -0.1150 
     13 C13         3.6058  -20.5868  -48.9661 C.ar      23 UNK        -0.0193 
     14 C14         3.3635  -19.2549  -48.6107 C.ar      23 UNK        -0.1150 
     15 C15         4.5891  -21.4275  -48.1526 C.3       23 UNK        -0.0205 
     16 S16         3.9002  -22.9789  -47.4843 S.3       23 UNK        -0.2404 
     17 C17         2.9281  -22.3776  -46.0580 C.3       23 UNK        -0.0398 
     18 CA          1.5411  -23.0510  -45.8878 C.3       11 UNK         0.1400 
     19 N           0.8045  -22.5019  -44.7444 N.am      11 UNK        -0.5000 
     20 C          -0.3828  -22.9464  -44.3035 C.2       10 UNK         0.5000 
     21 O          -0.9559  -23.9371  -44.7564 O.2       10 UNK        -0.5000 
     22 CA         -1.0730  -22.1192  -43.2044 C.3       10 UNK         0.1400 
     23 CB         -0.5093  -22.4763  -41.8213 C.3       10 UNK        -0.1800 
     24 N          -0.9659  -20.6764  -43.4301 N.am      10 UNK        -0.5000 
     25 C          -1.5067  -20.0260  -44.4718 C.2       9 UNK         0.5000 
     26 O          -2.2065  -20.5682  -45.3263 O.2       9 UNK        -0.5000 
     27 CA         -1.1611  -18.5314  -44.6198 C.3       9 UNK         0.1400 
     28 CB         -2.0305  -17.6628  -43.6996 C.3       9 UNK        -0.1800 
     29 N           0.2517  -18.2544  -44.3640 N.am      9 UNK        -0.5000 
     30 C           1.2630  -18.7632  -45.0804 C.2       8 UNK         0.5000 
     31 O           1.1042  -19.4896  -46.0591 O.2       8 UNK        -0.5000 
     32 CA          2.6858  -18.4712  -44.5760 C.3       8 UNK         0.1400 
     33 CB          3.1578  -17.0690  -44.9871 C.3       8 UNK        -0.1800 
     34 N           2.7750  -18.6129  -43.1241 N.am      8 UNK        -0.5000 
     35 C           2.7297  -19.7846  -42.4763 C.2       7 UNK         0.5000 
     36 O           2.6481  -20.8748  -43.0427 O.2       7 UNK        -0.5000 
     37 CA          2.7461  -19.7237  -40.9374 C.3       7 UNK         0.1400 
     38 CB          4.1878  -19.6354  -40.4155 C.3       7 UNK        -0.1800 
     39 N           1.9685  -18.6023  -40.4057 N.am      7 UNK        -0.5000 
     40 C           0.6347  -18.5038  -40.4919 C.2       6 UNK         0.5000 
     41 O          -0.0804  -19.3601  -41.0094 O.2       6 UNK        -0.5000 
     42 CA         -0.0062  -17.2107  -39.9536 C.3       6 UNK         0.1400 
     43 CB         -0.2544  -17.3217  -38.4420 C.3       6 UNK        -0.1800 
     44 N           0.7622  -15.9924  -40.2324 N.am      6 UNK        -0.5000 
     45 C           1.1289  -15.5776  -41.4522 C.2       5 UNK         0.5000 
     46 O           0.9505  -16.2367  -42.4786 O.2       5 UNK        -0.5000 
     47 CA          1.8531  -14.2186  -41.5282 C.3       5 UNK         0.1400 
     48 CB          3.3443  -14.3986  -41.2030 C.3       5 UNK        -0.1800 
     49 N           1.7371  -13.5906  -42.8472 N.am      5 UNK        -0.5000 
     50 C           0.5875  -13.2332  -43.4362 C.2       4 UNK         0.5000 
     51 O          -0.5098  -13.3007  -42.8760 O.2       4 UNK        -0.5000 
     52 CA          0.7021  -12.7319  -44.8941 C.3       4 UNK         0.1400 
     53 CB          1.4561  -13.7428  -45.7781 C.3       4 UNK        -0.1800 
     54 N          -0.6036  -12.4993  -45.5069 N.am      4 UNK        -0.5000 
     55 C          -1.4344  -11.4789  -45.2566 C.2       3 UNK         0.5000 
     56 O          -1.1457  -10.5217  -44.5366 O.2       3 UNK        -0.5000 
     57 CA         -2.8189  -11.5312  -45.9402 C.3       3 UNK         0.1400 
     58 CB         -2.9268  -10.4515  -47.0284 C.3       3 UNK        -0.1800 
     59 N          -3.1011  -12.8343  -46.5492 N.am      3 UNK        -0.5000 
     60 C          -3.4687  -13.9409  -45.8932 C.2       2 UNK         0.5000 
     61 O          -3.7382  -13.9621  -44.6930 O.2       2 UNK        -0.5000 
     62 CA         -3.4885  -15.2579  -46.6952 C.3       2 UNK         0.1400 
     63 CB         -4.8508  -15.4761  -47.3819 C.3       2 UNK        -0.1800 
     64 N          -2.3689  -15.4131  -47.6407 N.am      2 UNK        -0.5000 
     65 C          -2.1387  -14.7589  -48.7903 C.2       1 UNK         0.5000 
     66 O          -2.8491  -13.8334  -49.1903 O.2       1 UNK        -0.5000 
     67 C           0.6926  -22.9856  -47.1723 C.2       11 UNK         0.5000 
     68 O           0.5090  -24.0085  -47.8296 O.2       11 UNK        -0.5000 
     69 N           0.1540  -21.7997  -47.4736 N.am      12 UNK        -0.5000 
     70 CA         -0.6744  -21.5455  -48.6461 C.3       12 UNK         0.1400 
     71 CB         -0.9427  -20.0416  -48.7316 C.3       12 UNK        -0.1800 
     72 C          -1.9852  -22.3532  -48.6558 C.2       12 UNK         0.5000 
     73 O          -2.3627  -22.8984  -49.6954 O.2       12 UNK        -0.5000 
     74 N          -2.6323  -22.4550  -47.4866 N.am      13 UNK        -0.5000 
     75 CA         -3.8286  -23.2658  -47.2675 C.3       13 UNK         0.1400 
     76 CB         -4.4047  -22.9706  -45.8756 C.3       13 UNK        -0.1800 
     77 C          -3.5702  -24.7734  -47.4458 C.2       13 UNK         0.5000 
     78 O          -4.4117  -25.4642  -48.0183 O.2       13 UNK        -0.5000 
     79 N          -2.4091  -25.2579  -46.9871 N.am      14 UNK        -0.5000 
     80 CA         -1.9703  -26.6385  -47.1892 C.3       14 UNK         0.1400 
     81 CB         -0.7996  -26.9502  -46.2440 C.3       14 UNK        -0.1800 
     82 C          -1.5856  -26.9253  -48.6533 C.2       14 UNK         0.5000 
     83 O          -1.9155  -27.9943  -49.1684 O.2       14 UNK        -0.5000 
     84 N          -0.8897  -25.9735  -49.2884 N.am      15 UNK        -0.5000 
     85 CA         -0.3728  -26.0812  -50.6494 C.3       15 UNK         0.1400 
     86 CB          0.6716  -24.9782  -50.8941 C.3       15 UNK        -0.1800 
     87 C          -1.4672  -26.0330  -51.7278 C.2       15 UNK         0.5000 
     88 O          -1.4908  -26.9083  -52.5949 O.2       15 UNK        -0.5000 
     89 N          -2.3180  -24.9992  -51.6835 N.am      16 UNK        -0.5000 
     90 CA         -3.2150  -24.6461  -52.7870 C.3       16 UNK         0.1400 
     91 CB         -2.7478  -23.3022  -53.3631 C.3       16 UNK        -0.1800 
     92 C          -4.6934  -24.5397  -52.3874 C.2       16 UNK         0.5000 
     93 O          -5.5367  -24.4751  -53.2832 O.2       16 UNK        -0.5000 
     94 N          -4.9940  -24.4667  -51.0824 N.am      17 UNK        -0.5000 
     95 CA         -6.3058  -24.1976  -50.4681 C.3       17 UNK         0.1400 
     96 CB         -7.3615  -25.2500  -50.8583 C.3       17 UNK        -0.1800 
     97 C          -6.8136  -22.7619  -50.7075 C.2       17 UNK         0.5000 
     98 O          -7.1614  -22.0734  -49.7470 O.2       17 UNK        -0.5000 
     99 N          -6.7954  -22.3085  -51.9665 N.am      18 UNK        -0.5000 
    100 CA        -7.0658  -20.9400  -52.4064 C.3       18 UNK         0.1400 
    101 CB        -7.4192  -20.9648  -53.9038 C.3       18 UNK        -0.1800 
    102 C         -5.8659  -20.0205  -52.1004 C.2       18 UNK         0.5000 
    103 O         -5.2287  -19.4949  -53.0166 O.2       18 UNK        -0.5000 
    104 N         -5.5629  -19.8700  -50.8045 N.am      19 UNK        -0.5000 
    105 CA        -4.3894  -19.1878  -50.2550 C.3       19 UNK         0.1400 
    106 CB        -4.4393  -19.2725  -48.7217 C.3       19 UNK        -0.1800 
    107 C         -4.2239  -17.7256  -50.7024 C.2       19 UNK         0.5000 
    108 O         -3.0951  -17.2624  -50.8525 O.2       19 UNK        -0.5000 
    109 N         -5.3472  -17.0395  -50.9501 N.am      20 UNK        -0.5000 
    110 CA        -5.4020  -15.6652  -51.4539 C.3       20 UNK         0.1400 
    111 CB        -6.8619  -15.1887  -51.4281 C.3       20 UNK        -0.1800 
    112 C         -4.7939  -15.4808  -52.8614 C.2       20 UNK         0.5000 
    113 O         -4.4671  -14.3508  -53.2236 O.2       20 UNK        -0.5000 
    114 N         -4.6432  -16.5772  -53.6166 N.am      21 UNK        -0.5000 
    115 CA        -3.9487  -16.6244  -54.9008 C.3       21 UNK         0.1400 
    116 CB        -4.9005  -17.1837  -55.9709 C.3       21 UNK        -0.1800 
    117 C         -2.6801  -17.4869  -54.7929 C.2       21 UNK         0.5000 
    118 O         -1.6085  -17.0450  -55.2069 O.2       21 UNK        -0.5000 
    119 N         -2.8267  -18.6973  -54.2375 N.am      22 UNK        -0.5000 
    120 CA        -1.7892  -19.7337  -54.1114 C.3       22 UNK         0.1400 
    121 C         -1.1834  -20.2257  -55.4652 C.2       22 UNK         0.5000 
    122 N         -1.9374  -20.1945  -56.5584 N.am      22 UNK        -0.7600 
    123 O         -0.0336  -20.6502  -55.5379 O.2       22 UNK        -0.5000 
    124 C124       -0.7358  -19.4129  -53.0111 C.3       23 UNK        -0.0398 
    125 S125       -0.1695  -20.9391  -52.1744 S.3       23 UNK        -0.2404 
    126 C126        1.6475  -20.8253  -52.2524 C.3       23 UNK        -0.0205 
    127 H127       -1.7100  -13.1186  -53.4848 H         1 UNK         0.0600 
    128 H128       -1.7759  -14.8876  -53.4994 H         1 UNK         0.0600 
    129 H129       -0.2762  -14.0606  -53.9395 H         1 UNK         0.0600 
    130 H130       -1.8855  -15.6453  -51.3930 H         1 UNK         0.3000 
    131 H131       -0.1092  -14.4797  -49.3235 H         1 UNK         0.0600 
    132 H132       -0.0035  -17.0558  -50.2497 H         1 UNK         0.0800 
    133 H133       -1.2117  -17.2907  -49.0512 H         1 UNK         0.0800 
    134 H134        3.2592  -16.5994  -48.5074 H         1 UNK         0.0800 
    135 H135        2.3525  -16.3430  -49.9691 H         1 UNK         0.0800 
    136 H136        1.4840  -18.3031  -51.2723 H         1 UNK         0.1150 
    137 H137        3.2095  -22.1252  -50.4122 H         1 UNK         0.1150 
    138 H138        3.8081  -18.8494  -47.7133 H         1 UNK         0.1150 
    139 H139        5.4288  -21.6821  -48.8004 H         1 UNK         0.0800 
    140 H140        5.0126  -20.8463  -47.3319 H         1 UNK         0.0800 
    141 H141        2.8151  -21.3001  -46.1510 H         1 UNK         0.0800 
    142 H142        3.5233  -22.5356  -45.1578 H         1 UNK         0.0800 
    143 H143        1.7137  -24.1077  -45.6733 H         1 UNK         0.0600 
    144 H144        1.2254  -21.7039  -44.2817 H         1 UNK         0.3000 
    145 H145       -2.1337  -22.3779  -43.2132 H         1 UNK         0.0600 
    146 H146       -1.0604  -21.9695  -41.0291 H         1 UNK         0.0600 
    147 H147        0.5408  -22.1978  -41.7296 H         1 UNK         0.0600 
    148 H148       -0.5834  -23.5482  -41.6336 H         1 UNK         0.0600 
    149 H149       -0.4530  -20.1460  -42.7315 H         1 UNK         0.3000 
    150 H150       -1.3695  -18.2453  -45.6528 H         1 UNK         0.0600 
    151 H151       -3.0905  -17.8147  -43.9062 H         1 UNK         0.0600 
    152 H152       -1.8179  -16.6024  -43.8401 H         1 UNK         0.0600 
    153 H153       -1.8630  -17.8991  -42.6488 H         1 UNK         0.0600 
    154 H154        0.4698  -17.6314  -43.5894 H         1 UNK         0.3000 
    155 H155        3.3603  -19.1973  -45.0340 H         1 UNK         0.0600 
    156 H156        3.1467  -16.9573  -46.0704 H         1 UNK         0.0600 
    157 H157        4.1785  -16.8829  -44.6534 H         1 UNK         0.0600 
    158 H158        2.5227  -16.2883  -44.5712 H         1 UNK         0.0600 
    159 H159        2.7545  -17.7592  -42.5853 H         1 UNK         0.3000 
    160 H160        2.3052  -20.6506  -40.5643 H         1 UNK         0.0600 
    161 H161        4.6772  -18.7141  -40.7339 H         1 UNK         0.0600 
    162 H162        4.7870  -20.4696  -40.7827 H         1 UNK         0.0600 
    163 H163        4.2155  -19.6716  -39.3263 H         1 UNK         0.0600 
    164 H164        2.4817  -17.8504  -39.9700 H         1 UNK         0.3000 
    165 H165       -0.9739  -17.1006  -40.4469 H         1 UNK         0.0600 
    166 H166       -0.8092  -16.4608  -38.0686 H         1 UNK         0.0600 
    167 H167       -0.8412  -18.2108  -38.2067 H         1 UNK         0.0600 
    168 H168        0.6802  -17.3878  -37.8838 H         1 UNK         0.0600 
    169 H169        0.9653  -15.4034  -39.4377 H         1 UNK         0.3000 
    170 H170        1.4060  -13.5458  -40.7938 H         1 UNK         0.0600 
    171 H171        3.8355  -15.0576  -41.9205 H         1 UNK         0.0600 
    172 H172        3.8685  -13.4428  -41.2118 H         1 UNK         0.0600 
    173 H173        3.4828  -14.8319  -40.2116 H         1 UNK         0.0600 
    174 H174        2.5919  -13.5199  -43.3781 H         1 UNK         0.3000 
    175 H175        1.2542  -11.7900  -44.8844 H         1 UNK         0.0600 
    176 H176        0.9892  -14.7278  -45.7397 H         1 UNK         0.0600 
    177 H177        1.4753  -13.4237  -46.8205 H         1 UNK         0.0600 
    178 H178        2.4938  -13.8576  -45.4643 H         1 UNK         0.0600 
    179 H179       -0.9573  -13.2425  -46.0879 H         1 UNK         0.3000 
    180 H180       -3.5718  -11.3282  -45.1761 H         1 UNK         0.0600 
    181 H181       -3.9184  -10.4463  -47.4813 H         1 UNK         0.0600 
    182 H182       -2.1961  -10.6080  -47.8230 H         1 UNK         0.0600 
    183 H183       -2.7547   -9.4576  -46.6135 H         1 UNK         0.0600 
    184 H184       -2.9484  -12.9198  -47.5510 H         1 UNK         0.3000 
    185 H185       -3.3648  -16.0623  -45.9687 H         1 UNK         0.0600 
    186 H186       -5.0844  -14.6854  -48.0949 H         1 UNK         0.0600 
    187 H187       -4.8766  -16.4246  -47.9156 H         1 UNK         0.0600 
    188 H188       -5.6559  -15.4953  -46.6467 H         1 UNK         0.0600 
    189 H189       -1.6908  -16.1132  -47.3734 H         1 UNK         0.3000 
    190 H190        0.3819  -20.9941  -46.8945 H         1 UNK         0.3000 
    191 H191       -0.0900  -21.8471  -49.5147 H         1 UNK         0.0600 
    192 H192       -1.5259  -19.6870  -47.8825 H         1 UNK         0.0600 
    193 H193       -1.4736  -19.7856  -49.6462 H         1 UNK         0.0600 
    194 H194       -0.0053  -19.4887  -48.7384 H         1 UNK         0.0600 
    195 H195       -2.2839  -21.9321  -46.6872 H         1 UNK         0.3000 
    196 H196       -4.5705  -22.9650  -48.0098 H         1 UNK         0.0600 
    197 H197       -4.6678  -21.9175  -45.7745 H         1 UNK         0.0600 
    198 H198       -3.6932  -23.2151  -45.0864 H         1 UNK         0.0600 
    199 H199       -5.3101  -23.5514  -45.6956 H         1 UNK         0.0600 
    200 H200       -1.7782  -24.6443  -46.4814 H         1 UNK         0.3000 
    201 H201       -2.7971  -27.3020  -46.9265 H         1 UNK         0.0600 
    202 H202       -1.0911  -26.8205  -45.2016 H         1 UNK         0.0600 
    203 H203        0.0566  -26.3021  -46.4329 H         1 UNK         0.0600 
    204 H204       -0.4648  -27.9812  -46.3633 H         1 UNK         0.0600 
    205 H205       -0.5975  -25.1533  -48.7609 H         1 UNK         0.3000 
    206 H206        0.1357  -27.0436  -50.7376 H         1 UNK         0.0600 
    207 H207        1.0723  -25.0339  -51.9070 H         1 UNK         0.0600 
    208 H208        0.2464  -23.9822  -50.7648 H         1 UNK         0.0600 
    209 H209        1.5128  -25.0720  -50.2071 H         1 UNK         0.0600 
    210 H210       -2.2268  -24.3133  -50.9367 H         1 UNK         0.3000 
    211 H211       -3.1661  -25.3893  -53.5851 H         1 UNK         0.0600 
    212 H212       -2.8046  -22.5179  -52.6073 H         1 UNK         0.0600 
    213 H213       -3.3641  -22.9936  -54.2087 H         1 UNK         0.0600 
    214 H214       -1.7171  -23.3568  -53.7144 H         1 UNK         0.0600 
    215 H215       -4.2250  -24.5213  -50.4287 H         1 UNK         0.3000 
    216 H216       -6.1604  -24.2860  -49.3930 H         1 UNK         0.0600 
    217 H217       -8.2803  -25.1028  -50.2896 H         1 UNK         0.0600 
    218 H218       -7.0066  -26.2585  -50.6460 H         1 UNK         0.0600 
    219 H219       -7.6262  -25.2018  -51.9145 H         1 UNK         0.0600 
    220 H220       -6.4579  -22.9538  -52.6760 H         1 UNK         0.3000 
    221 H221       -7.9289  -20.5536  -51.8606 H         1 UNK         0.0600 
    222 H222       -6.5999  -21.3625  -54.5044 H         1 UNK         0.0600 
    223 H223       -8.2994  -21.5802  -54.0901 H         1 UNK         0.0600 
    224 H224       -7.6406  -19.9618  -54.2710 H         1 UNK         0.0600 
    225 H225       -6.1360  -20.3816  -50.1411 H         1 UNK         0.3000 
    226 H226       -3.5139  -19.7330  -50.6101 H         1 UNK         0.0600 
    227 H227       -4.3668  -20.3049  -48.3809 H         1 UNK         0.0600 
    228 H228       -3.6186  -18.7187  -48.2652 H         1 UNK         0.0600 
    229 H229       -5.3678  -18.8578  -48.3280 H         1 UNK         0.0600 
    230 H230       -6.2310  -17.5064  -50.8104 H         1 UNK         0.3000 
    231 H231       -4.8257  -15.0385  -50.7704 H         1 UNK         0.0600 
    232 H232       -6.9421  -14.1546  -51.7661 H         1 UNK         0.0600 
    233 H233       -7.2727  -15.2310  -50.4192 H         1 UNK         0.0600 
    234 H234       -7.4943  -15.7964  -52.0765 H         1 UNK         0.0600 
    235 H235       -4.9301  -17.4695  -53.2309 H         1 UNK         0.3000 
    236 H236       -3.6410  -15.6244  -55.2132 H         1 UNK         0.0600 
    237 H237       -5.2687  -18.1767  -55.7095 H         1 UNK         0.0600 
    238 H238       -5.7653  -16.5332  -56.1017 H         1 UNK         0.0600 
    239 H239       -4.4013  -17.2594  -56.9377 H         1 UNK         0.0600 
    240 H240       -3.7486  -18.9782  -53.9104 H         1 UNK         0.3000 
    241 H241       -2.3631  -20.5881  -53.7602 H         1 UNK         0.0600 
    242 H242       -2.8852  -19.8559  -56.5229 H         1 UNK         0.3800 
    243 H243       -1.5511  -20.5126  -57.4333 H         1 UNK         0.3800 
    244 H244        0.1015  -18.8473  -53.4216 H         1 UNK         0.0800 
    245 H245       -1.1759  -18.7779  -52.2411 H         1 UNK         0.0800 
    246 H246        1.9572  -20.2096  -53.0976 H         1 UNK         0.0800 
    247 H247        2.0376  -21.8243  -52.4517 H         1 UNK         0.0800 
@<TRIPOS>BOND
     1    1    2 1    
     2    1  127 1    
     3    1  128 1    
     4    1  129 1    
     5    2    3 2    
     6    2    4 am   BACKBONE|DICT|INTERRES
     7    4    5 1    
     8    4  130 1    
     9    5    6 1    
    10    5   65 1    
    11    5  131 1    
    12    6    7 1    
    13    6  132 1    
    14    6  133 1    
    15    7    8 1    
    16    8    9 1    
    17    8  134 1    
    18    8  135 1    
    19    9   10 ar   
    20    9   14 ar   
    21   10   11 ar   
    22   10  136 1    
    23   11   12 ar   
    24   11  126 1    
    25   12   13 ar   
    26   12  137 1    
    27   13   14 ar   
    28   13   15 1    
    29   14  138 1    
    30   15   16 1    
    31   15  139 1    
    32   15  140 1    
    33   16   17 1    
    34   17   18 1    
    35   17  141 1    
    36   17  142 1    
    37   18   19 1    
    38   18   67 1    
    39   18  143 1    
    40   19   20 am   BACKBONE|DICT|INTERRES
    41   19  144 1    
    42   20   21 2    
    43   20   22 1    
    44   22   23 1    
    45   22   24 1    
    46   22  145 1    
    47   23  146 1    
    48   23  147 1    
    49   23  148 1    
    50   24   25 am   BACKBONE|DICT|INTERRES
    51   24  149 1    
    52   25   26 2    
    53   25   27 1    
    54   27   28 1    
    55   27   29 1    
    56   27  150 1    
    57   28  151 1    
    58   28  152 1    
    59   28  153 1    
    60   29   30 am   BACKBONE|DICT|INTERRES
    61   29  154 1    
    62   30   31 2    
    63   30   32 1    
    64   32   33 1    
    65   32   34 1    
    66   32  155 1    
    67   33  156 1    
    68   33  157 1    
    69   33  158 1    
    70   34   35 am   BACKBONE|DICT|INTERRES
    71   34  159 1    
    72   35   36 2    
    73   35   37 1    
    74   37   38 1    
    75   37   39 1    
    76   37  160 1    
    77   38  161 1    
    78   38  162 1    
    79   38  163 1    
    80   39   40 am   BACKBONE|DICT|INTERRES
    81   39  164 1    
    82   40   41 2    
    83   40   42 1    
    84   42   43 1    
    85   42   44 1    
    86   42  165 1    
    87   43  166 1    
    88   43  167 1    
    89   43  168 1    
    90   44   45 am   BACKBONE|DICT|INTERRES
    91   44  169 1    
    92   45   46 2    
    93   45   47 1    
    94   47   48 1    
    95   47   49 1    
    96   47  170 1    
    97   48  171 1    
    98   48  172 1    
    99   48  173 1    
   100   49   50 am   BACKBONE|DICT|INTERRES
   101   49  174 1    
   102   50   51 2    
   103   50   52 1    
   104   52   53 1    
   105   52   54 1    
   106   52  175 1    
   107   53  176 1    
   108   53  177 1    
   109   53  178 1    
   110   54   55 am   BACKBONE|DICT|INTERRES
   111   54  179 1    
   112   55   56 2    
   113   55   57 1    
   114   57   58 1    
   115   57   59 1    
   116   57  180 1    
   117   58  181 1    
   118   58  182 1    
   119   58  183 1    
   120   59   60 am   BACKBONE|DICT|INTERRES
   121   59  184 1    
   122   60   61 2    
   123   60   62 1    
   124   62   63 1    
   125   62   64 1    
   126   62  185 1    
   127   63  186 1    
   128   63  187 1    
   129   63  188 1    
   130   64   65 am   BACKBONE|DICT|INTERRES
   131   64  189 1    
   132   65   66 2    
   133   67   68 2    
   134   67   69 am   BACKBONE|DICT|INTERRES
   135   69   70 1    
   136   69  190 1    
   137   70   71 1    
   138   70   72 1    
   139   70  191 1    
   140   71  192 1    
   141   71  193 1    
   142   71  194 1    
   143   72   73 2    
   144   72   74 am   BACKBONE|DICT|INTERRES
   145   74   75 1    
   146   74  195 1    
   147   75   76 1    
   148   75   77 1    
   149   75  196 1    
   150   76  197 1    
   151   76  198 1    
   152   76  199 1    
   153   77   78 2    
   154   77   79 am   BACKBONE|DICT|INTERRES
   155   79   80 1    
   156   79  200 1    
   157   80   81 1    
   158   80   82 1    
   159   80  201 1    
   160   81  202 1    
   161   81  203 1    
   162   81  204 1    
   163   82   83 2    
   164   82   84 am   BACKBONE|DICT|INTERRES
   165   84   85 1    
   166   84  205 1    
   167   85   86 1    
   168   85   87 1    
   169   85  206 1    
   170   86  207 1    
   171   86  208 1    
   172   86  209 1    
   173   87   88 2    
   174   87   89 am   BACKBONE|DICT|INTERRES
   175   89   90 1    
   176   89  210 1    
   177   90   91 1    
   178   90   92 1    
   179   90  211 1    
   180   91  212 1    
   181   91  213 1    
   182   91  214 1    
   183   92   93 2    
   184   92   94 am   BACKBONE|DICT|INTERRES
   185   94   95 1    
   186   94  215 1    
   187   95   96 1    
   188   95   97 1    
   189   95  216 1    
   190   96  217 1    
   191   96  218 1    
   192   96  219 1    
   193   97   98 2    
   194   97   99 am   BACKBONE|DICT|INTERRES
   195   99  100 1    
   196   99  220 1    
   197  100  101 1    
   198  100  102 1    
   199  100  221 1    
   200  101  222 1    
   201  101  223 1    
   202  101  224 1    
   203  102  103 2    
   204  102  104 am   BACKBONE|DICT|INTERRES
   205  104  105 1    
   206  104  225 1    
   207  105  106 1    
   208  105  107 1    
   209  105  226 1    
   210  106  227 1    
   211  106  228 1    
   212  106  229 1    
   213  107  108 2    
   214  107  109 am   BACKBONE|DICT|INTERRES
   215  109  110 1    
   216  109  230 1    
   217  110  111 1    
   218  110  112 1    
   219  110  231 1    
   220  111  232 1    
   221  111  233 1    
   222  111  234 1    
   223  112  113 2    
   224  112  114 am   BACKBONE|DICT|INTERRES
   225  114  115 1    
   226  114  235 1    
   227  115  116 1    
   228  115  117 1    
   229  115  236 1    
   230  116  237 1    
   231  116  238 1    
   232  116  239 1    
   233  117  118 2    
   234  117  119 am   BACKBONE|DICT|INTERRES
   235  119  120 1    
   236  119  240 1    
   237  120  121 1    
   238  120  124 1    
   239  120  241 1    
   240  121  122 am   BACKBONE|DICT|INTERRES
   241  121  123 2    
   242  122  242 1    
   243  122  243 1    
   244  124  125 1    
   245  124  244 1    
   246  124  245 1    
   247  125  126 1    
   248  126  246 1    
   249  126  247 1    
@<TRIPOS>SUBSTRUCTURE
     1 UNK         1 GROUP             0       ****    0 ROOT    
