@<TRIPOS>MOLECULE
3R540
247   249    1
SMALL
USER_CHARGES


@<TRIPOS>ATOM
      1 CA         -3.9636  -15.9038  -46.4896 C.3       0 UNK        -0.1800 
      2 C          -2.5183  -15.4543  -46.6474 C.2       0 UNK         0.5000 
      3 O          -1.7411  -15.5551  -45.6983 O.2       0 UNK        -0.5000 
      4 N          -2.1553  -14.9578  -47.8397 N.am      1 UNK        -0.5000 
      5 CA         -0.8327  -14.4167  -48.1759 C.3       1 UNK         0.1400 
      6 C6          0.2620  -15.5215  -48.1754 C.3       23 UNK        -0.0398 
      7 S7          1.8618  -14.9922  -48.8824 S.3       23 UNK        -0.2404 
      8 C8          1.7184  -15.5139  -50.6211 C.3       23 UNK        -0.0205 
      9 C9          1.6192  -17.0248  -50.7786 C.ar      23 UNK        -0.0193 
     10 C10         0.4707  -17.5962  -51.3324 C.ar      23 UNK        -0.1150 
     11 C11         0.3798  -18.9792  -51.5009 C.ar      23 UNK        -0.0193 
     12 C12         1.4440  -19.7931  -51.1077 C.ar      23 UNK        -0.1150 
     13 C13         2.5971  -19.2381  -50.5437 C.ar      23 UNK        -0.0193 
     14 C14         2.6789  -17.8504  -50.3893 C.ar      23 UNK        -0.1150 
     15 C15         3.7734  -20.1165  -50.1265 C.3       23 UNK        -0.0205 
     16 S16         3.2927  -21.6743  -49.3048 S.3       23 UNK        -0.2404 
     17 C17         2.5056  -21.0611  -47.7785 C.3       23 UNK        -0.0398 
     18 CA          1.2756  -21.9045  -47.3611 C.3       11 UNK         0.1400 
     19 N           1.0114  -21.7971  -45.9228 N.am      11 UNK        -0.5000 
     20 C           0.1308  -22.5479  -45.2459 C.2       10 UNK         0.5000 
     21 O          -0.5278  -23.4540  -45.7550 O.2       10 UNK        -0.5000 
     22 CA         -0.0844  -22.2022  -43.7612 C.3       10 UNK         0.1400 
     23 CB          1.0039  -22.8452  -42.8893 C.3       10 UNK        -0.1800 
     24 N          -0.1307  -20.7593  -43.5180 N.am      10 UNK        -0.5000 
     25 C          -1.0728  -19.9375  -44.0034 C.2       9 UNK         0.5000 
     26 O          -2.0375  -20.3236  -44.6611 O.2       9 UNK        -0.5000 
     27 CA         -0.8786  -18.4283  -43.7694 C.3       9 UNK         0.1400 
     28 CB         -1.3423  -18.0188  -42.3646 C.3       9 UNK        -0.1800 
     29 N           0.5053  -18.0035  -43.9731 N.am      9 UNK        -0.5000 
     30 C           1.1662  -18.0977  -45.1358 C.2       8 UNK         0.5000 
     31 O           0.6680  -18.5152  -46.1814 O.2       8 UNK        -0.5000 
     32 CA          2.6559  -17.7186  -45.1035 C.3       8 UNK         0.1400 
     33 CB          2.8388  -16.1950  -45.1438 C.3       8 UNK        -0.1800 
     34 N           3.3187  -18.2561  -43.9155 N.am      8 UNK        -0.5000 
     35 C           3.5573  -19.5586  -43.7088 C.2       7 UNK         0.5000 
     36 O           3.2644  -20.4425  -44.5129 O.2       7 UNK        -0.5000 
     37 CA          4.1923  -19.9386  -42.3591 C.3       7 UNK         0.1400 
     38 CB          5.7163  -19.7536  -42.4053 C.3       7 UNK        -0.1800 
     39 N           3.6418  -19.1678  -41.2432 N.am      7 UNK        -0.5000 
     40 C           2.3758  -19.2621  -40.8130 C.2       6 UNK         0.5000 
     41 O           1.5465  -20.0314  -41.2949 O.2       6 UNK        -0.5000 
     42 CA          1.9521  -18.3055  -39.6846 C.3       6 UNK         0.1400 
     43 CB          2.2653  -18.9182  -38.3116 C.3       6 UNK        -0.1800 
     44 N           2.5684  -16.9796  -39.7779 N.am      6 UNK        -0.5000 
     45 C           2.3983  -16.1304  -40.7988 C.2       5 UNK         0.5000 
     46 O           1.7460  -16.3923  -41.8126 O.2       5 UNK        -0.5000 
     47 CA          3.0762  -14.7589  -40.6706 C.3       5 UNK         0.1400 
     48 CB          4.0721  -14.5210  -41.8161 C.3       5 UNK        -0.1800 
     49 N           2.0533  -13.7199  -40.6915 N.am      5 UNK        -0.5000 
     50 C           1.3467  -13.3325  -39.6215 C.2       4 UNK         0.5000 
     51 O           1.5619  -13.7326  -38.4766 O.2       4 UNK        -0.5000 
     52 CA          0.1989  -12.3388  -39.8756 C.3       4 UNK         0.1400 
     53 CB          0.7038  -10.8918  -39.7702 C.3       4 UNK        -0.1800 
     54 N          -0.4335  -12.5294  -41.1808 N.am      4 UNK        -0.5000 
     55 C          -1.2235  -13.5553  -41.5169 C.2       3 UNK         0.5000 
     56 O          -1.5309  -14.4571  -40.7373 O.2       3 UNK        -0.5000 
     57 CA         -1.7682  -13.5871  -42.9593 C.3       3 UNK         0.1400 
     58 CB         -3.0119  -12.6912  -43.1043 C.3       3 UNK        -0.1800 
     59 N          -0.7859  -13.2997  -44.0143 N.am      3 UNK        -0.5000 
     60 C          -0.1029  -12.1719  -44.2699 C.2       2 UNK         0.5000 
     61 O          -0.1740  -11.1539  -43.5806 O.2       2 UNK        -0.5000 
     62 CA          0.8385  -12.1782  -45.4916 C.3       2 UNK         0.1400 
     63 CB          2.2956  -12.3619  -45.0414 C.3       2 UNK        -0.1800 
     64 N           0.5087  -13.2159  -46.4701 N.am      2 UNK        -0.5000 
     65 C          -0.5469  -13.1751  -47.2943 C.2       1 UNK         0.5000 
     66 O          -1.3137  -12.2118  -47.3607 O.2       1 UNK        -0.5000 
     67 C           0.0221  -21.5764  -48.2034 C.2       11 UNK         0.5000 
     68 O          -0.2798  -22.2973  -49.1556 O.2       11 UNK        -0.5000 
     69 N          -0.7195  -20.5341  -47.8015 N.am      12 UNK        -0.5000 
     70 CA         -2.0121  -20.1768  -48.3805 C.3       12 UNK         0.1400 
     71 CB         -2.4455  -18.7948  -47.8801 C.3       12 UNK        -0.1800 
     72 C          -3.0962  -21.2327  -48.1060 C.2       12 UNK         0.5000 
     73 O          -3.8123  -21.6119  -49.0330 O.2       12 UNK        -0.5000 
     74 N          -3.1891  -21.7131  -46.8581 N.am      13 UNK        -0.5000 
     75 CA         -4.1310  -22.7510  -46.4272 C.3       13 UNK         0.1400 
     76 CB         -4.0303  -22.9535  -44.9090 C.3       13 UNK        -0.1800 
     77 C          -3.9416  -24.0868  -47.1687 C.2       13 UNK         0.5000 
     78 O          -4.9316  -24.7081  -47.5558 O.2       13 UNK        -0.5000 
     79 N          -2.6804  -24.4672  -47.4169 N.am      14 UNK        -0.5000 
     80 CA         -2.2908  -25.6309  -48.2195 C.3       14 UNK         0.1400 
     81 CB         -0.7709  -25.8272  -48.1161 C.3       14 UNK        -0.1800 
     82 C          -2.7253  -25.5396  -49.6978 C.2       14 UNK         0.5000 
     83 O          -2.9025  -26.5743  -50.3407 O.2       14 UNK        -0.5000 
     84 N          -2.9268  -24.3130  -50.1952 N.am      15 UNK        -0.5000 
     85 CA         -3.4558  -23.9994  -51.5216 C.3       15 UNK         0.1400 
     86 CB         -2.6715  -22.8041  -52.0837 C.3       15 UNK        -0.1800 
     87 C          -4.9726  -23.7141  -51.4833 C.2       15 UNK         0.5000 
     88 O          -5.4768  -23.0188  -52.3660 O.2       15 UNK        -0.5000 
     89 N          -5.6692  -24.2305  -50.4584 N.am      16 UNK        -0.5000 
     90 CA         -7.1092  -24.1100  -50.2072 C.3       16 UNK         0.1400 
     91 CB         -7.9184  -24.8555  -51.2888 C.3       16 UNK        -0.1800 
     92 C          -7.5561  -22.6481  -50.0033 C.2       16 UNK         0.5000 
     93 O          -8.5530  -22.2156  -50.5826 O.2       16 UNK        -0.5000 
     94 N          -6.7867  -21.9219  -49.1798 N.am      17 UNK        -0.5000 
     95 CA         -6.9028  -20.4905  -48.8807 C.3       17 UNK         0.1400 
     96 CB         -8.2606  -20.1460  -48.2327 C.3       17 UNK        -0.1800 
     97 C          -6.5621  -19.6286  -50.1123 C.2       17 UNK         0.5000 
     98 O          -7.3072  -18.7114  -50.4614 O.2       17 UNK        -0.5000 
     99 N          -5.4203  -19.9579  -50.7344 N.am      18 UNK        -0.5000 
    100 CA        -4.8190  -19.3125  -51.9041 C.3       18 UNK         0.1400 
    101 CB        -4.3261  -17.8950  -51.5427 C.3       18 UNK        -0.1800 
    102 C         -5.7262  -19.3368  -53.1513 C.2       18 UNK         0.5000 
    103 O         -5.8118  -18.3444  -53.8774 O.2       18 UNK        -0.5000 
    104 N         -6.3697  -20.4830  -53.4071 N.am      19 UNK        -0.5000 
    105 CA        -7.2775  -20.7130  -54.5335 C.3       19 UNK         0.1400 
    106 CB        -8.2799  -21.8132  -54.1448 C.3       19 UNK        -0.1800 
    107 C         -6.5110  -21.0415  -55.8328 C.2       19 UNK         0.5000 
    108 O         -6.7935  -22.0487  -56.4825 O.2       19 UNK        -0.5000 
    109 N         -5.5227  -20.1991  -56.1660 N.am      20 UNK        -0.5000 
    110 CA        -4.6317  -20.2225  -57.3361 C.3       20 UNK         0.1400 
    111 CB        -5.4408  -20.0761  -58.6398 C.3       20 UNK        -0.1800 
    112 C         -3.6550  -21.4170  -57.4212 C.2       20 UNK         0.5000 
    113 O         -2.7366  -21.3744  -58.2411 O.2       20 UNK        -0.5000 
    114 N         -3.8294  -22.4430  -56.5771 N.am      21 UNK        -0.5000 
    115 CA        -3.0547  -23.6882  -56.5655 C.3       21 UNK         0.1400 
    116 CB        -3.6976  -24.6638  -55.5678 C.3       21 UNK        -0.1800 
    117 C         -1.5510  -23.5083  -56.2721 C.2       21 UNK         0.5000 
    118 O         -0.7514  -24.3465  -56.6904 O.2       21 UNK        -0.5000 
    119 N         -1.1922  -22.4149  -55.5886 N.am      22 UNK        -0.5000 
    120 CA         0.1936  -21.9660  -55.3832 C.3       22 UNK         0.1400 
    121 C          0.8279  -21.2280  -56.6018 C.2       22 UNK         0.5000 
    122 N          0.1042  -20.9538  -57.6815 N.am      22 UNK        -0.7600 
    123 O          2.0151  -20.9147  -56.5770 O.2       22 UNK        -0.5000 
    124 C124        0.3518  -21.1647  -54.0649 C.3       23 UNK        -0.0398 
    125 S125       -0.8043  -19.7583  -53.8932 S.3       23 UNK        -0.2404 
    126 C126       -0.8788  -19.5964  -52.0828 C.3       23 UNK        -0.0205 
    127 H127       -4.4773  -15.9591  -47.4496 H         1 UNK         0.0600 
    128 H128       -4.5027  -15.2052  -45.8500 H         1 UNK         0.0600 
    129 H129       -4.0033  -16.8892  -46.0259 H         1 UNK         0.0600 
    130 H130       -2.8525  -14.8677  -48.5650 H         1 UNK         0.3000 
    131 H131       -0.9164  -14.0439  -49.1979 H         1 UNK         0.0600 
    132 H132        0.4321  -15.8997  -47.1682 H         1 UNK         0.0800 
    133 H133       -0.0948  -16.3836  -48.7378 H         1 UNK         0.0800 
    134 H134        0.8586  -15.0159  -51.0719 H         1 UNK         0.0800 
    135 H135        2.5951  -15.1612  -51.1659 H         1 UNK         0.0800 
    136 H136       -0.3532  -16.9660  -51.6370 H         1 UNK         0.1150 
    137 H137        1.3696  -20.8636  -51.2359 H         1 UNK         0.1150 
    138 H138        3.5685  -17.4062  -49.9651 H         1 UNK         0.1150 
    139 H139        4.3534  -20.3585  -51.0178 H         1 UNK         0.0800 
    140 H140        4.4434  -19.5688  -49.4618 H         1 UNK         0.0800 
    141 H141        2.2460  -20.0052  -47.8712 H         1 UNK         0.0800 
    142 H142        3.2731  -21.1120  -47.0066 H         1 UNK         0.0800 
    143 H143        1.5129  -22.9554  -47.5419 H         1 UNK         0.0600 
    144 H144        1.5487  -21.1026  -45.4149 H         1 UNK         0.3000 
    145 H145       -1.0460  -22.6200  -43.4585 H         1 UNK         0.0600 
    146 H146        0.8060  -22.6825  -41.8297 H         1 UNK         0.0600 
    147 H147        1.0469  -23.9232  -43.0498 H         1 UNK         0.0600 
    148 H148        1.9912  -22.4399  -43.1109 H         1 UNK         0.0600 
    149 H149        0.5988  -20.3756  -42.9235 H         1 UNK         0.3000 
    150 H150       -1.4973  -17.9015  -44.4976 H         1 UNK         0.0600 
    151 H151       -2.3919  -18.2723  -42.2116 H         1 UNK         0.0600 
    152 H152       -1.2408  -16.9437  -42.2148 H         1 UNK         0.0600 
    153 H153       -0.7658  -18.5199  -41.5874 H         1 UNK         0.0600 
    154 H154        0.9857  -17.6096  -43.1696 H         1 UNK         0.3000 
    155 H155        3.1373  -18.1453  -45.9862 H         1 UNK         0.0600 
    156 H156        2.2513  -15.6990  -44.3715 H         1 UNK         0.0600 
    157 H157        3.8836  -15.9149  -45.0085 H         1 UNK         0.0600 
    158 H158        2.5237  -15.7931  -46.1044 H         1 UNK         0.0600 
    159 H159        3.5330  -17.6007  -43.1790 H         1 UNK         0.3000 
    160 H160        3.9821  -20.9949  -42.1784 H         1 UNK         0.0600 
    161 H161        5.9929  -18.7095  -42.5567 H         1 UNK         0.0600 
    162 H162        6.1543  -20.3311  -43.2206 H         1 UNK         0.0600 
    163 H163        6.1826  -20.0942  -41.4806 H         1 UNK         0.0600 
    164 H164        4.2581  -18.5098  -40.7896 H         1 UNK         0.3000 
    165 H165        0.8709  -18.1714  -39.7575 H         1 UNK         0.0600 
    166 H166        1.8843  -18.2926  -37.5042 H         1 UNK         0.0600 
    167 H167        1.8005  -19.8996  -38.2070 H         1 UNK         0.0600 
    168 H168        3.3382  -19.0453  -38.1615 H         1 UNK         0.0600 
    169 H169        3.1092  -16.6803  -38.9792 H         1 UNK         0.3000 
    170 H170        3.6289  -14.7113  -39.7298 H         1 UNK         0.0600 
    171 H171        3.5805  -14.5160  -42.7876 H         1 UNK         0.0600 
    172 H172        4.5833  -13.5654  -41.6985 H         1 UNK         0.0600 
    173 H173        4.8368  -15.2983  -41.8379 H         1 UNK         0.0600 
    174 H174        1.7695  -13.3821  -41.5984 H         1 UNK         0.3000 
    175 H175       -0.5556  -12.4959  -39.1019 H         1 UNK         0.0600 
    176 H176       -0.1152  -10.1804  -39.8775 H         1 UNK         0.0600 
    177 H177        1.4453  -10.6673  -40.5381 H         1 UNK         0.0600 
    178 H178        1.1679  -10.7091  -38.8001 H         1 UNK         0.0600 
    179 H179       -0.2507  -11.8300  -41.8974 H         1 UNK         0.3000 
    180 H180       -2.0897  -14.6141  -43.1395 H         1 UNK         0.0600 
    181 H181       -2.7782  -11.6387  -42.9421 H         1 UNK         0.0600 
    182 H182       -3.7789  -12.9702  -42.3808 H         1 UNK         0.0600 
    183 H183       -3.4508  -12.7886  -44.0974 H         1 UNK         0.0600 
    184 H184       -0.6692  -14.0667  -44.6676 H         1 UNK         0.3000 
    185 H185        0.7532  -11.2042  -45.9780 H         1 UNK         0.0600 
    186 H186        2.5948  -11.5708  -44.3526 H         1 UNK         0.0600 
    187 H187        2.4413  -13.3121  -44.5298 H         1 UNK         0.0600 
    188 H188        2.9793  -12.3283  -45.8899 H         1 UNK         0.0600 
    189 H189        1.1133  -14.0232  -46.4968 H         1 UNK         0.3000 
    190 H190       -0.3780  -19.9532  -47.0411 H         1 UNK         0.3000 
    191 H191       -1.8899  -20.1128  -49.4616 H         1 UNK         0.0600 
    192 H192       -1.7356  -18.0304  -48.1931 H         1 UNK         0.0600 
    193 H193       -3.4219  -18.5187  -48.2797 H         1 UNK         0.0600 
    194 H194       -2.5120  -18.7613  -46.7929 H         1 UNK         0.0600 
    195 H195       -2.6010  -21.3081  -46.1328 H         1 UNK         0.3000 
    196 H196       -5.1372  -22.3907  -46.6493 H         1 UNK         0.0600 
    197 H197       -4.7556  -23.6917  -44.5648 H         1 UNK         0.0600 
    198 H198       -4.2314  -22.0262  -44.3724 H         1 UNK         0.0600 
    199 H199       -3.0416  -23.3042  -44.6150 H         1 UNK         0.0600 
    200 H200       -1.9220  -23.9251  -47.0107 H         1 UNK         0.3000 
    201 H201       -2.7787  -26.5081  -47.7900 H         1 UNK         0.0600 
    202 H202       -0.4626  -25.9800  -47.0816 H         1 UNK         0.0600 
    203 H203       -0.2277  -24.9645  -48.5028 H         1 UNK         0.0600 
    204 H204       -0.4483  -26.7009  -48.6837 H         1 UNK         0.0600 
    205 H205       -2.7776  -23.5183  -49.5859 H         1 UNK         0.3000 
    206 H206       -3.3053  -24.8476  -52.1916 H         1 UNK         0.0600 
    207 H207       -1.6024  -23.0140  -52.1057 H         1 UNK         0.0600 
    208 H208       -2.9767  -22.5583  -53.1007 H         1 UNK         0.0600 
    209 H209       -2.8291  -21.9178  -51.4723 H         1 UNK         0.0600 
    210 H210       -5.1536  -24.7289  -49.7436 H         1 UNK         0.3000 
    211 H211       -7.2952  -24.6151  -49.2582 H         1 UNK         0.0600 
    212 H212       -7.8043  -24.3979  -52.2707 H         1 UNK         0.0600 
    213 H213       -8.9826  -24.8557  -51.0504 H         1 UNK         0.0600 
    214 H214       -7.6042  -25.8962  -51.3669 H         1 UNK         0.0600 
    215 H215       -5.9474  -22.3639  -48.8289 H         1 UNK         0.3000 
    216 H216       -6.1335  -20.2728  -48.1386 H         1 UNK         0.0600 
    217 H217       -8.2706  -19.1131  -47.8833 H         1 UNK         0.0600 
    218 H218       -8.4584  -20.7823  -47.3701 H         1 UNK         0.0600 
    219 H219       -9.0902  -20.2582  -48.9309 H         1 UNK         0.0600 
    220 H220       -4.8881  -20.7260  -50.3352 H         1 UNK         0.3000 
    221 H221       -3.9454  -19.9094  -52.1650 H         1 UNK         0.0600 
    222 H222       -5.1553  -17.2229  -51.3200 H         1 UNK         0.0600 
    223 H223       -3.6687  -17.9131  -50.6741 H         1 UNK         0.0600 
    224 H224       -3.7618  -17.4551  -52.3659 H         1 UNK         0.0600 
    225 H225       -6.1802  -21.2935  -52.8223 H         1 UNK         0.3000 
    226 H226       -7.8481  -19.8010  -54.7201 H         1 UNK         0.0600 
    227 H227       -8.8234  -21.5489  -53.2378 H         1 UNK         0.0600 
    228 H228       -9.0191  -21.9681  -54.9316 H         1 UNK         0.0600 
    229 H229       -7.7787  -22.7653  -53.9709 H         1 UNK         0.0600 
    230 H230       -5.3845  -19.4134  -55.5380 H         1 UNK         0.3000 
    231 H231       -4.0042  -19.3352  -57.2405 H         1 UNK         0.0600 
    232 H232       -6.0694  -20.9467  -58.8286 H         1 UNK         0.0600 
    233 H233       -4.7794  -19.9617  -59.4995 H         1 UNK         0.0600 
    234 H234       -6.0844  -19.1970  -58.6083 H         1 UNK         0.0600 
    235 H235       -4.6433  -22.4138  -55.9786 H         1 UNK         0.3000 
    236 H236       -3.1315  -24.1273  -57.5623 H         1 UNK         0.0600 
    237 H237       -4.7208  -24.9039  -55.8575 H         1 UNK         0.0600 
    238 H238       -3.1446  -25.6029  -55.5220 H         1 UNK         0.0600 
    239 H239       -3.7271  -24.2489  -54.5616 H         1 UNK         0.0600 
    240 H240       -1.9101  -21.7681  -55.2982 H         1 UNK         0.3000 
    241 H241        0.8060  -22.8617  -55.2625 H         1 UNK         0.0600 
    242 H242       -0.8775  -21.2047  -57.7465 H         1 UNK         0.3800 
    243 H243        0.5429  -20.4840  -58.4572 H         1 UNK         0.3800 
    244 H244        0.1945  -21.8456  -53.2284 H         1 UNK         0.0800 
    245 H245        1.3725  -20.7959  -53.9499 H         1 UNK         0.0800 
    246 H246       -1.7378  -18.9822  -51.8187 H         1 UNK         0.0800 
    247 H247       -1.0447  -20.5715  -51.6290 H         1 UNK         0.0800 
@<TRIPOS>BOND
     1    1    2 1    
     2    1  127 1    
     3    1  128 1    
     4    1  129 1    
     5    2    3 2    
     6    2    4 am   BACKBONE|DICT|INTERRES
     7    4    5 1    
     8    4  130 1    
     9    5    6 1    
    10    5   65 1    
    11    5  131 1    
    12    6    7 1    
    13    6  132 1    
    14    6  133 1    
    15    7    8 1    
    16    8    9 1    
    17    8  134 1    
    18    8  135 1    
    19    9   10 ar   
    20    9   14 ar   
    21   10   11 ar   
    22   10  136 1    
    23   11   12 ar   
    24   11  126 1    
    25   12   13 ar   
    26   12  137 1    
    27   13   14 ar   
    28   13   15 1    
    29   14  138 1    
    30   15   16 1    
    31   15  139 1    
    32   15  140 1    
    33   16   17 1    
    34   17   18 1    
    35   17  141 1    
    36   17  142 1    
    37   18   19 1    
    38   18   67 1    
    39   18  143 1    
    40   19   20 am   BACKBONE|DICT|INTERRES
    41   19  144 1    
    42   20   21 2    
    43   20   22 1    
    44   22   23 1    
    45   22   24 1    
    46   22  145 1    
    47   23  146 1    
    48   23  147 1    
    49   23  148 1    
    50   24   25 am   BACKBONE|DICT|INTERRES
    51   24  149 1    
    52   25   26 2    
    53   25   27 1    
    54   27   28 1    
    55   27   29 1    
    56   27  150 1    
    57   28  151 1    
    58   28  152 1    
    59   28  153 1    
    60   29   30 am   BACKBONE|DICT|INTERRES
    61   29  154 1    
    62   30   31 2    
    63   30   32 1    
    64   32   33 1    
    65   32   34 1    
    66   32  155 1    
    67   33  156 1    
    68   33  157 1    
    69   33  158 1    
    70   34   35 am   BACKBONE|DICT|INTERRES
    71   34  159 1    
    72   35   36 2    
    73   35   37 1    
    74   37   38 1    
    75   37   39 1    
    76   37  160 1    
    77   38  161 1    
    78   38  162 1    
    79   38  163 1    
    80   39   40 am   BACKBONE|DICT|INTERRES
    81   39  164 1    
    82   40   41 2    
    83   40   42 1    
    84   42   43 1    
    85   42   44 1    
    86   42  165 1    
    87   43  166 1    
    88   43  167 1    
    89   43  168 1    
    90   44   45 am   BACKBONE|DICT|INTERRES
    91   44  169 1    
    92   45   46 2    
    93   45   47 1    
    94   47   48 1    
    95   47   49 1    
    96   47  170 1    
    97   48  171 1    
    98   48  172 1    
    99   48  173 1    
   100   49   50 am   BACKBONE|DICT|INTERRES
   101   49  174 1    
   102   50   51 2    
   103   50   52 1    
   104   52   53 1    
   105   52   54 1    
   106   52  175 1    
   107   53  176 1    
   108   53  177 1    
   109   53  178 1    
   110   54   55 am   BACKBONE|DICT|INTERRES
   111   54  179 1    
   112   55   56 2    
   113   55   57 1    
   114   57   58 1    
   115   57   59 1    
   116   57  180 1    
   117   58  181 1    
   118   58  182 1    
   119   58  183 1    
   120   59   60 am   BACKBONE|DICT|INTERRES
   121   59  184 1    
   122   60   61 2    
   123   60   62 1    
   124   62   63 1    
   125   62   64 1    
   126   62  185 1    
   127   63  186 1    
   128   63  187 1    
   129   63  188 1    
   130   64   65 am   BACKBONE|DICT|INTERRES
   131   64  189 1    
   132   65   66 2    
   133   67   68 2    
   134   67   69 am   BACKBONE|DICT|INTERRES
   135   69   70 1    
   136   69  190 1    
   137   70   71 1    
   138   70   72 1    
   139   70  191 1    
   140   71  192 1    
   141   71  193 1    
   142   71  194 1    
   143   72   73 2    
   144   72   74 am   BACKBONE|DICT|INTERRES
   145   74   75 1    
   146   74  195 1    
   147   75   76 1    
   148   75   77 1    
   149   75  196 1    
   150   76  197 1    
   151   76  198 1    
   152   76  199 1    
   153   77   78 2    
   154   77   79 am   BACKBONE|DICT|INTERRES
   155   79   80 1    
   156   79  200 1    
   157   80   81 1    
   158   80   82 1    
   159   80  201 1    
   160   81  202 1    
   161   81  203 1    
   162   81  204 1    
   163   82   83 2    
   164   82   84 am   BACKBONE|DICT|INTERRES
   165   84   85 1    
   166   84  205 1    
   167   85   86 1    
   168   85   87 1    
   169   85  206 1    
   170   86  207 1    
   171   86  208 1    
   172   86  209 1    
   173   87   88 2    
   174   87   89 am   BACKBONE|DICT|INTERRES
   175   89   90 1    
   176   89  210 1    
   177   90   91 1    
   178   90   92 1    
   179   90  211 1    
   180   91  212 1    
   181   91  213 1    
   182   91  214 1    
   183   92   93 2    
   184   92   94 am   BACKBONE|DICT|INTERRES
   185   94   95 1    
   186   94  215 1    
   187   95   96 1    
   188   95   97 1    
   189   95  216 1    
   190   96  217 1    
   191   96  218 1    
   192   96  219 1    
   193   97   98 2    
   194   97   99 am   BACKBONE|DICT|INTERRES
   195   99  100 1    
   196   99  220 1    
   197  100  101 1    
   198  100  102 1    
   199  100  221 1    
   200  101  222 1    
   201  101  223 1    
   202  101  224 1    
   203  102  103 2    
   204  102  104 am   BACKBONE|DICT|INTERRES
   205  104  105 1    
   206  104  225 1    
   207  105  106 1    
   208  105  107 1    
   209  105  226 1    
   210  106  227 1    
   211  106  228 1    
   212  106  229 1    
   213  107  108 2    
   214  107  109 am   BACKBONE|DICT|INTERRES
   215  109  110 1    
   216  109  230 1    
   217  110  111 1    
   218  110  112 1    
   219  110  231 1    
   220  111  232 1    
   221  111  233 1    
   222  111  234 1    
   223  112  113 2    
   224  112  114 am   BACKBONE|DICT|INTERRES
   225  114  115 1    
   226  114  235 1    
   227  115  116 1    
   228  115  117 1    
   229  115  236 1    
   230  116  237 1    
   231  116  238 1    
   232  116  239 1    
   233  117  118 2    
   234  117  119 am   BACKBONE|DICT|INTERRES
   235  119  120 1    
   236  119  240 1    
   237  120  121 1    
   238  120  124 1    
   239  120  241 1    
   240  121  122 am   BACKBONE|DICT|INTERRES
   241  121  123 2    
   242  122  242 1    
   243  122  243 1    
   244  124  125 1    
   245  124  244 1    
   246  124  245 1    
   247  125  126 1    
   248  126  246 1    
   249  126  247 1    
@<TRIPOS>SUBSTRUCTURE
     1 UNK         1 GROUP             0       ****    0 ROOT    
