@<TRIPOS>MOLECULE
3R540
247   249    1
SMALL
USER_CHARGES


@<TRIPOS>ATOM
      1 CA         -4.9096  -14.9390  -47.4601 C.3       0 UNK        -0.1800 
      2 C          -3.9977  -14.4128  -48.5608 C.2       0 UNK         0.5000 
      3 O          -4.3401  -13.4368  -49.2292 O.2       0 UNK        -0.5000 
      4 N          -2.8550  -15.0757  -48.7644 N.am      1 UNK        -0.5000 
      5 CA         -1.8246  -14.7409  -49.7477 C.3       1 UNK         0.1400 
      6 C6         -0.7788  -15.8748  -49.8858 C.3       23 UNK        -0.0398 
      7 S7          0.0669  -16.3376  -48.3299 S.3       23 UNK        -0.2404 
      8 C8          1.7723  -16.6198  -48.9006 C.3       23 UNK        -0.0205 
      9 C9          1.9754  -18.0041  -49.5079 C.ar      23 UNK        -0.0193 
     10 C10         1.4735  -18.3051  -50.7776 C.ar      23 UNK        -0.1150 
     11 C11         1.7316  -19.5422  -51.3747 C.ar      23 UNK        -0.0193 
     12 C12         2.4979  -20.4875  -50.6876 C.ar      23 UNK        -0.1150 
     13 C13         2.9957  -20.2100  -49.4103 C.ar      23 UNK        -0.0193 
     14 C14         2.7240  -18.9685  -48.8250 C.ar      23 UNK        -0.1150 
     15 C15         3.8723  -21.2222  -48.6781 C.3       23 UNK        -0.0205 
     16 S16         3.1609  -22.9003  -48.6024 S.3       23 UNK        -0.2404 
     17 C17         1.5430  -22.5666  -47.8399 C.3       23 UNK        -0.0398 
     18 CA          0.8764  -23.8454  -47.2931 C.3       11 UNK         0.1400 
     19 N           1.6217  -24.4341  -46.1799 N.am      11 UNK        -0.5000 
     20 C           1.4761  -25.6952  -45.7562 C.2       10 UNK         0.5000 
     21 O           0.7056  -26.5055  -46.2721 O.2       10 UNK        -0.5000 
     22 CA          2.2982  -26.0952  -44.5175 C.3       10 UNK         0.1400 
     23 CB          3.7513  -26.4063  -44.9061 C.3       10 UNK        -0.1800 
     24 N           2.2809  -25.0627  -43.4778 N.am      10 UNK        -0.5000 
     25 C           1.1847  -24.7097  -42.7926 C.2       9 UNK         0.5000 
     26 O           0.0831  -25.2330  -42.9557 O.2       9 UNK        -0.5000 
     27 CA          1.3265  -23.5560  -41.7823 C.3       9 UNK         0.1400 
     28 CB          1.8275  -24.0861  -40.4307 C.3       9 UNK        -0.1800 
     29 N           2.1834  -22.4462  -42.2128 N.am      9 UNK        -0.5000 
     30 C           2.0573  -21.7508  -43.3507 C.2       8 UNK         0.5000 
     31 O           1.2806  -22.0483  -44.2579 O.2       8 UNK        -0.5000 
     32 CA          2.9086  -20.4765  -43.4744 C.3       8 UNK         0.1400 
     33 CB          3.3710  -20.2379  -44.9213 C.3       8 UNK        -0.1800 
     34 N           2.1294  -19.3239  -43.0301 N.am      8 UNK        -0.5000 
     35 C           1.8651  -19.0196  -41.7525 C.2       7 UNK         0.5000 
     36 O           2.3367  -19.6333  -40.7940 O.2       7 UNK        -0.5000 
     37 CA          0.9189  -17.8310  -41.4978 C.3       7 UNK         0.1400 
     38 CB          1.7227  -16.5549  -41.2051 C.3       7 UNK        -0.1800 
     39 N           0.0021  -17.5645  -42.6081 N.am      7 UNK        -0.5000 
     40 C          -1.0691  -18.3021  -42.9240 C.2       6 UNK         0.5000 
     41 O          -1.3952  -19.3187  -42.3110 O.2       6 UNK        -0.5000 
     42 CA         -1.9377  -17.7740  -44.0888 C.3       6 UNK         0.1400 
     43 CB         -3.0387  -18.7642  -44.5106 C.3       6 UNK        -0.1800 
     44 N          -2.5629  -16.4923  -43.7528 N.am      6 UNK        -0.5000 
     45 C          -1.9298  -15.3138  -43.7141 C.2       5 UNK         0.5000 
     46 O          -0.7343  -15.1761  -43.9916 O.2       5 UNK        -0.5000 
     47 CA         -2.7547  -14.1074  -43.2262 C.3       5 UNK         0.1400 
     48 CB         -2.9067  -14.1452  -41.6968 C.3       5 UNK        -0.1800 
     49 N          -2.0993  -12.8552  -43.5978 N.am      5 UNK        -0.5000 
     50 C          -2.1399  -12.3219  -44.8232 C.2       4 UNK         0.5000 
     51 O          -2.9054  -12.7075  -45.7095 O.2       4 UNK        -0.5000 
     52 CA         -1.1462  -11.1784  -45.0850 C.3       4 UNK         0.1400 
     53 CB          0.3043  -11.6923  -45.0339 C.3       4 UNK        -0.1800 
     54 N          -1.3728  -10.6017  -46.4061 N.am      4 UNK        -0.5000 
     55 C          -1.6325   -9.3133  -46.6621 C.2       3 UNK         0.5000 
     56 O          -1.7322   -8.4515  -45.7866 O.2       3 UNK        -0.5000 
     57 CA         -1.7666   -8.9204  -48.1461 C.3       3 UNK         0.1400 
     58 CB         -1.4488   -7.4367  -48.4110 C.3       3 UNK        -0.1800 
     59 N          -0.8869   -9.7595  -48.9560 N.am      3 UNK        -0.5000 
     60 C          -1.2105  -10.3277  -50.1200 C.2       2 UNK         0.5000 
     61 O          -2.2584  -10.1023  -50.7277 O.2       2 UNK        -0.5000 
     62 CA         -0.2157  -11.3580  -50.6943 C.3       2 UNK         0.1400 
     63 CB          1.1948  -11.3099  -50.0616 C.3       2 UNK        -0.1800 
     64 N          -0.7724  -12.7122  -50.6173 N.am      2 UNK        -0.5000 
     65 C          -1.1729  -13.3596  -49.5105 C.2       1 UNK         0.5000 
     66 O          -1.0394  -12.9158  -48.3666 O.2       1 UNK        -0.5000 
     67 C          -0.5892  -23.5693  -46.9105 C.2       11 UNK         0.5000 
     68 O          -1.4546  -23.6347  -47.7811 O.2       11 UNK        -0.5000 
     69 N          -0.8540  -23.2697  -45.6326 N.am      12 UNK        -0.5000 
     70 CA         -2.1959  -23.1018  -45.0783 C.3       12 UNK         0.1400 
     71 CB         -2.1039  -22.4711  -43.6830 C.3       12 UNK        -0.1800 
     72 C          -2.9614  -24.4347  -45.0319 C.2       12 UNK         0.5000 
     73 O          -4.1268  -24.4726  -45.4231 O.2       12 UNK        -0.5000 
     74 N          -2.2805  -25.5127  -44.6145 N.am      13 UNK        -0.5000 
     75 CA         -2.8013  -26.8829  -44.6101 C.3       13 UNK         0.1400 
     76 CB         -1.8151  -27.8045  -43.8771 C.3       13 UNK        -0.1800 
     77 C          -3.0954  -27.4150  -46.0257 C.2       13 UNK         0.5000 
     78 O          -4.0882  -28.1171  -46.2188 O.2       13 UNK        -0.5000 
     79 N          -2.2537  -27.0327  -46.9960 N.am      14 UNK        -0.5000 
     80 CA         -2.4434  -27.2993  -48.4244 C.3       14 UNK         0.1400 
     81 CB         -1.0927  -27.1253  -49.1372 C.3       14 UNK        -0.1800 
     82 C          -3.5126  -26.3996  -49.0832 C.2       14 UNK         0.5000 
     83 O          -3.8728  -26.6451  -50.2342 O.2       14 UNK        -0.5000 
     84 N          -3.9647  -25.3604  -48.3643 N.am      15 UNK        -0.5000 
     85 CA         -4.8916  -24.2929  -48.7608 C.3       15 UNK         0.1400 
     86 CB         -6.2582  -24.8576  -49.1956 C.3       15 UNK        -0.1800 
     87 C          -4.3198  -23.3013  -49.7949 C.2       15 UNK         0.5000 
     88 O          -5.0281  -22.3783  -50.1961 O.2       15 UNK        -0.5000 
     89 N          -3.0449  -23.4571  -50.1718 N.am      16 UNK        -0.5000 
     90 CA         -2.3277  -22.6090  -51.1199 C.3       16 UNK         0.1400 
     91 CB         -0.9670  -23.2418  -51.4473 C.3       16 UNK        -0.1800 
     92 C          -2.1472  -21.1716  -50.6103 C.2       16 UNK         0.5000 
     93 O          -2.3530  -20.2312  -51.3775 O.2       16 UNK        -0.5000 
     94 N          -1.8118  -21.0297  -49.3202 N.am      17 UNK        -0.5000 
     95 CA         -1.6745  -19.7293  -48.6580 C.3       17 UNK         0.1400 
     96 CB         -0.7945  -19.8615  -47.4070 C.3       17 UNK        -0.1800 
     97 C          -3.0288  -19.0996  -48.2907 C.2       17 UNK         0.5000 
     98 O          -3.0990  -17.8841  -48.1234 O.2       17 UNK        -0.5000 
     99 N          -4.0746  -19.9262  -48.1616 N.am      18 UNK        -0.5000 
    100 CA        -5.4354  -19.4822  -47.8663 C.3       18 UNK         0.1400 
    101 CB        -6.2264  -20.6399  -47.2368 C.3       18 UNK        -0.1800 
    102 C         -6.1356  -18.9499  -49.1278 C.2       18 UNK         0.5000 
    103 O         -6.7351  -17.8757  -49.0861 O.2       18 UNK        -0.5000 
    104 N         -6.0339  -19.7065  -50.2290 N.am      19 UNK        -0.5000 
    105 CA        -6.6315  -19.3737  -51.5224 C.3       19 UNK         0.1400 
    106 CB        -6.8205  -20.6720  -52.3234 C.3       19 UNK        -0.1800 
    107 C         -5.8003  -18.3684  -52.3407 C.2       19 UNK         0.5000 
    108 O         -6.3328  -17.7976  -53.2932 O.2       19 UNK        -0.5000 
    109 N         -4.5164  -18.1996  -51.9840 N.am      20 UNK        -0.5000 
    110 CA        -3.4846  -17.4565  -52.7193 C.3       20 UNK         0.1400 
    111 CB        -3.8323  -15.9558  -52.8054 C.3       20 UNK        -0.1800 
    112 C         -3.2096  -18.0988  -54.0960 C.2       20 UNK         0.5000 
    113 O         -3.0901  -17.4007  -55.1049 O.2       20 UNK        -0.5000 
    114 N         -3.1405  -19.4378  -54.1041 N.am      21 UNK        -0.5000 
    115 CA        -3.1278  -20.2926  -55.2951 C.3       21 UNK         0.1400 
    116 CB        -3.1980  -21.7618  -54.8531 C.3       21 UNK        -0.1800 
    117 C         -1.9236  -20.0750  -56.2287 C.2       21 UNK         0.5000 
    118 O         -2.0421  -20.3034  -57.4332 O.2       21 UNK        -0.5000 
    119 N         -0.7980  -19.6332  -55.6583 N.am      22 UNK        -0.5000 
    120 CA         0.4229  -19.2631  -56.3856 C.3       22 UNK         0.1400 
    121 C          0.4253  -17.8074  -56.9446 C.2       22 UNK         0.5000 
    122 N         -0.6005  -16.9943  -56.7146 N.am      22 UNK        -0.7600 
    123 O          1.3707  -17.4123  -57.6217 O.2       22 UNK        -0.5000 
    124 C124        1.6927  -19.6039  -55.5644 C.3       23 UNK        -0.0398 
    125 S125        1.8671  -18.6761  -53.9994 S.3       23 UNK        -0.2404 
    126 C126        1.2049  -19.8481  -52.7696 C.3       23 UNK        -0.0205 
    127 H127       -5.8289  -15.3353  -47.8912 H         1 UNK         0.0600 
    128 H128       -5.1695  -14.1352  -46.7712 H         1 UNK         0.0600 
    129 H129       -4.4318  -15.7339  -46.8863 H         1 UNK         0.0600 
    130 H130       -2.6726  -15.9135  -48.2213 H         1 UNK         0.3000 
    131 H131       -2.3407  -14.6698  -50.7050 H         1 UNK         0.0600 
    132 H132       -0.0420  -15.6013  -50.6419 H         1 UNK         0.0800 
    133 H133       -1.2708  -16.7703  -50.2649 H         1 UNK         0.0800 
    134 H134        2.0602  -15.8528  -49.6207 H         1 UNK         0.0800 
    135 H135        2.4378  -16.4869  -48.0465 H         1 UNK         0.0800 
    136 H136        0.9073  -17.5677  -51.3254 H         1 UNK         0.1150 
    137 H137        2.7175  -21.4400  -51.1490 H         1 UNK         0.1150 
    138 H138        3.1231  -18.7393  -47.8470 H         1 UNK         0.1150 
    139 H139        4.0828  -20.8859  -47.6634 H         1 UNK         0.0800 
    140 H140        4.8362  -21.2762  -49.1855 H         1 UNK         0.0800 
    141 H141        0.9187  -22.1090  -48.6091 H         1 UNK         0.0800 
    142 H142        1.6656  -21.8295  -47.0455 H         1 UNK         0.0800 
    143 H143        0.8538  -24.5762  -48.1040 H         1 UNK         0.0600 
    144 H144        2.2291  -23.8124  -45.6664 H         1 UNK         0.3000 
    145 H145        1.8542  -27.0030  -44.1031 H         1 UNK         0.0600 
    146 H146        3.7922  -27.1836  -45.6704 H         1 UNK         0.0600 
    147 H147        4.3203  -26.7654  -44.0484 H         1 UNK         0.0600 
    148 H148        4.2612  -25.5279  -45.3038 H         1 UNK         0.0600 
    149 H149        3.1470  -24.5798  -43.2892 H         1 UNK         0.3000 
    150 H150        0.3293  -23.1403  -41.6280 H         1 UNK         0.0600 
    151 H151        1.8128  -23.3048  -39.6705 H         1 UNK         0.0600 
    152 H152        1.1958  -24.8992  -40.0703 H         1 UNK         0.0600 
    153 H153        2.8468  -24.4679  -40.5009 H         1 UNK         0.0600 
    154 H154        2.8204  -22.0889  -41.5144 H         1 UNK         0.3000 
    155 H155        3.7967  -20.5799  -42.8473 H         1 UNK         0.0600 
    156 H156        2.5305  -20.0622  -45.5939 H         1 UNK         0.0600 
    157 H157        3.9220  -21.1010  -45.2961 H         1 UNK         0.0600 
    158 H158        4.0342  -19.3752  -44.9854 H         1 UNK         0.0600 
    159 H159        1.6762  -18.7809  -43.7494 H         1 UNK         0.3000 
    160 H160        0.3247  -18.0693  -40.6131 H         1 UNK         0.0600 
    161 H161        2.3261  -16.2543  -42.0626 H         1 UNK         0.0600 
    162 H162        2.3990  -16.7027  -40.3621 H         1 UNK         0.0600 
    163 H163        1.0641  -15.7240  -40.9509 H         1 UNK         0.0600 
    164 H164        0.1430  -16.7018  -43.1260 H         1 UNK         0.3000 
    165 H165       -1.2800  -17.6235  -44.9472 H         1 UNK         0.0600 
    166 H166       -2.6089  -19.7100  -44.8400 H         1 UNK         0.0600 
    167 H167       -3.7258  -18.9809  -43.6919 H         1 UNK         0.0600 
    168 H168       -3.6236  -18.3694  -45.3409 H         1 UNK         0.0600 
    169 H169       -3.5311  -16.5343  -43.4693 H         1 UNK         0.3000 
    170 H170       -3.7461  -14.1495  -43.6827 H         1 UNK         0.0600 
    171 H171       -1.9382  -14.1310  -41.1948 H         1 UNK         0.0600 
    172 H172       -3.4290  -15.0468  -41.3745 H         1 UNK         0.0600 
    173 H173       -3.4833  -13.2927  -41.3370 H         1 UNK         0.0600 
    174 H174       -1.4213  -12.5010  -42.9394 H         1 UNK         0.3000 
    175 H175       -1.2870  -10.4300  -44.3026 H         1 UNK         0.0600 
    176 H176        0.5508  -12.0993  -44.0528 H         1 UNK         0.0600 
    177 H177        0.4734  -12.4821  -45.7679 H         1 UNK         0.0600 
    178 H178        1.0137  -10.8900  -45.2372 H         1 UNK         0.0600 
    179 H179       -1.3885  -11.2788  -47.1648 H         1 UNK         0.3000 
    180 H180       -2.8087   -9.1046  -48.4152 H         1 UNK         0.0600 
    181 H181       -0.4285   -7.1875  -48.1174 H         1 UNK         0.0600 
    182 H182       -2.1226   -6.7840  -47.8548 H         1 UNK         0.0600 
    183 H183       -1.5628   -7.1927  -49.4673 H         1 UNK         0.0600 
    184 H184       -0.0168  -10.0286  -48.5175 H         1 UNK         0.3000 
    185 H185       -0.1081  -11.1217  -51.7540 H         1 UNK         0.0600 
    186 H186        1.6309  -10.3142  -50.1515 H         1 UNK         0.0600 
    187 H187        1.1912  -11.5780  -49.0047 H         1 UNK         0.0600 
    188 H188        1.8687  -12.0000  -50.5694 H         1 UNK         0.0600 
    189 H189       -0.9489  -13.1441  -51.5132 H         1 UNK         0.3000 
    190 H190       -0.0734  -23.1183  -44.9991 H         1 UNK         0.3000 
    191 H191       -2.7456  -22.4151  -45.7258 H         1 UNK         0.0600 
    192 H192       -1.4823  -21.5767  -43.6972 H         1 UNK         0.0600 
    193 H193       -3.0905  -22.1797  -43.3215 H         1 UNK         0.0600 
    194 H194       -1.6779  -23.1584  -42.9533 H         1 UNK         0.0600 
    195 H195       -1.3404  -25.3865  -44.2491 H         1 UNK         0.3000 
    196 H196       -3.7419  -26.8806  -44.0554 H         1 UNK         0.0600 
    197 H197       -0.8391  -27.8181  -44.3633 H         1 UNK         0.0600 
    198 H198       -2.1841  -28.8304  -43.8495 H         1 UNK         0.0600 
    199 H199       -1.6693  -27.4835  -42.8456 H         1 UNK         0.0600 
    200 H200       -1.4194  -26.5192  -46.7366 H         1 UNK         0.3000 
    201 H201       -2.7645  -28.3357  -48.5463 H         1 UNK         0.0600 
    202 H202       -1.1701  -27.3841  -50.1939 H         1 UNK         0.0600 
    203 H203       -0.3291  -27.7696  -48.7009 H         1 UNK         0.0600 
    204 H204       -0.7373  -26.0967  -49.0778 H         1 UNK         0.0600 
    205 H205       -3.5936  -25.2558  -47.4286 H         1 UNK         0.3000 
    206 H206       -5.0593  -23.7052  -47.8579 H         1 UNK         0.0600 
    207 H207       -6.1960  -25.3928  -50.1433 H         1 UNK         0.0600 
    208 H208       -6.6581  -25.5415  -48.4470 H         1 UNK         0.0600 
    209 H209       -6.9872  -24.0567  -49.3246 H         1 UNK         0.0600 
    210 H210       -2.5061  -24.1716  -49.7025 H         1 UNK         0.3000 
    211 H211       -2.9199  -22.5663  -52.0347 H         1 UNK         0.0600 
    212 H212       -0.4160  -22.6345  -52.1667 H         1 UNK         0.0600 
    213 H213       -1.0897  -24.2325  -51.8854 H         1 UNK         0.0600 
    214 H214       -0.3437  -23.3446  -50.5581 H         1 UNK         0.0600 
    215 H215       -1.6944  -21.8646  -48.7566 H         1 UNK         0.3000 
    216 H216       -1.1740  -19.0417  -49.3425 H         1 UNK         0.0600 
    217 H217       -1.1594  -20.6289  -46.7259 H         1 UNK         0.0600 
    218 H218        0.2325  -20.0922  -47.6785 H         1 UNK         0.0600 
    219 H219       -0.7600  -18.9234  -46.8537 H         1 UNK         0.0600 
    220 H220       -3.9407  -20.9077  -48.3480 H         1 UNK         0.3000 
    221 H221       -5.3937  -18.6703  -47.1367 H         1 UNK         0.0600 
    222 H222       -6.3336  -21.4817  -47.9211 H         1 UNK         0.0600 
    223 H223       -5.7399  -21.0033  -46.3313 H         1 UNK         0.0600 
    224 H224       -7.2303  -20.3166  -46.9588 H         1 UNK         0.0600 
    225 H225       -5.5643  -20.6078  -50.1742 H         1 UNK         0.3000 
    226 H226       -7.6156  -18.9311  -51.3544 H         1 UNK         0.0600 
    227 H227       -7.4343  -21.3879  -51.7765 H         1 UNK         0.0600 
    228 H228       -7.3167  -20.4779  -53.2751 H         1 UNK         0.0600 
    229 H229       -5.8651  -21.1502  -52.5430 H         1 UNK         0.0600 
    230 H230       -4.1764  -18.7548  -51.2107 H         1 UNK         0.3000 
    231 H231       -2.5649  -17.5537  -52.1420 H         1 UNK         0.0600 
    232 H232       -4.6433  -15.7650  -53.5087 H         1 UNK         0.0600 
    233 H233       -2.9712  -15.3765  -53.1399 H         1 UNK         0.0600 
    234 H234       -4.1413  -15.5653  -51.8362 H         1 UNK         0.0600 
    235 H235       -3.1624  -19.9069  -53.2052 H         1 UNK         0.3000 
    236 H236       -4.0289  -20.0640  -55.8677 H         1 UNK         0.0600 
    237 H237       -2.3118  -22.0505  -54.2870 H         1 UNK         0.0600 
    238 H238       -4.0748  -21.9491  -54.2330 H         1 UNK         0.0600 
    239 H239       -3.2645  -22.4258  -55.7159 H         1 UNK         0.0600 
    240 H240       -0.8040  -19.4390  -54.6690 H         1 UNK         0.3000 
    241 H241        0.4733  -19.8920  -57.2765 H         1 UNK         0.0600 
    242 H242       -0.5801  -16.0612  -57.0939 H         1 UNK         0.3800 
    243 H243       -1.4064  -17.2924  -56.1751 H         1 UNK         0.3800 
    244 H244        2.5843  -19.4132  -56.1639 H         1 UNK         0.0800 
    245 H245        1.7164  -20.6741  -55.3565 H         1 UNK         0.0800 
    246 H246        1.4666  -20.8681  -53.0541 H         1 UNK         0.0800 
    247 H247        0.1157  -19.7957  -52.7607 H         1 UNK         0.0800 
@<TRIPOS>BOND
     1    1    2 1    
     2    1  127 1    
     3    1  128 1    
     4    1  129 1    
     5    2    3 2    
     6    2    4 am   BACKBONE|DICT|INTERRES
     7    4    5 1    
     8    4  130 1    
     9    5    6 1    
    10    5   65 1    
    11    5  131 1    
    12    6    7 1    
    13    6  132 1    
    14    6  133 1    
    15    7    8 1    
    16    8    9 1    
    17    8  134 1    
    18    8  135 1    
    19    9   10 ar   
    20    9   14 ar   
    21   10   11 ar   
    22   10  136 1    
    23   11   12 ar   
    24   11  126 1    
    25   12   13 ar   
    26   12  137 1    
    27   13   14 ar   
    28   13   15 1    
    29   14  138 1    
    30   15   16 1    
    31   15  139 1    
    32   15  140 1    
    33   16   17 1    
    34   17   18 1    
    35   17  141 1    
    36   17  142 1    
    37   18   19 1    
    38   18   67 1    
    39   18  143 1    
    40   19   20 am   BACKBONE|DICT|INTERRES
    41   19  144 1    
    42   20   21 2    
    43   20   22 1    
    44   22   23 1    
    45   22   24 1    
    46   22  145 1    
    47   23  146 1    
    48   23  147 1    
    49   23  148 1    
    50   24   25 am   BACKBONE|DICT|INTERRES
    51   24  149 1    
    52   25   26 2    
    53   25   27 1    
    54   27   28 1    
    55   27   29 1    
    56   27  150 1    
    57   28  151 1    
    58   28  152 1    
    59   28  153 1    
    60   29   30 am   BACKBONE|DICT|INTERRES
    61   29  154 1    
    62   30   31 2    
    63   30   32 1    
    64   32   33 1    
    65   32   34 1    
    66   32  155 1    
    67   33  156 1    
    68   33  157 1    
    69   33  158 1    
    70   34   35 am   BACKBONE|DICT|INTERRES
    71   34  159 1    
    72   35   36 2    
    73   35   37 1    
    74   37   38 1    
    75   37   39 1    
    76   37  160 1    
    77   38  161 1    
    78   38  162 1    
    79   38  163 1    
    80   39   40 am   BACKBONE|DICT|INTERRES
    81   39  164 1    
    82   40   41 2    
    83   40   42 1    
    84   42   43 1    
    85   42   44 1    
    86   42  165 1    
    87   43  166 1    
    88   43  167 1    
    89   43  168 1    
    90   44   45 am   BACKBONE|DICT|INTERRES
    91   44  169 1    
    92   45   46 2    
    93   45   47 1    
    94   47   48 1    
    95   47   49 1    
    96   47  170 1    
    97   48  171 1    
    98   48  172 1    
    99   48  173 1    
   100   49   50 am   BACKBONE|DICT|INTERRES
   101   49  174 1    
   102   50   51 2    
   103   50   52 1    
   104   52   53 1    
   105   52   54 1    
   106   52  175 1    
   107   53  176 1    
   108   53  177 1    
   109   53  178 1    
   110   54   55 am   BACKBONE|DICT|INTERRES
   111   54  179 1    
   112   55   56 2    
   113   55   57 1    
   114   57   58 1    
   115   57   59 1    
   116   57  180 1    
   117   58  181 1    
   118   58  182 1    
   119   58  183 1    
   120   59   60 am   BACKBONE|DICT|INTERRES
   121   59  184 1    
   122   60   61 2    
   123   60   62 1    
   124   62   63 1    
   125   62   64 1    
   126   62  185 1    
   127   63  186 1    
   128   63  187 1    
   129   63  188 1    
   130   64   65 am   BACKBONE|DICT|INTERRES
   131   64  189 1    
   132   65   66 2    
   133   67   68 2    
   134   67   69 am   BACKBONE|DICT|INTERRES
   135   69   70 1    
   136   69  190 1    
   137   70   71 1    
   138   70   72 1    
   139   70  191 1    
   140   71  192 1    
   141   71  193 1    
   142   71  194 1    
   143   72   73 2    
   144   72   74 am   BACKBONE|DICT|INTERRES
   145   74   75 1    
   146   74  195 1    
   147   75   76 1    
   148   75   77 1    
   149   75  196 1    
   150   76  197 1    
   151   76  198 1    
   152   76  199 1    
   153   77   78 2    
   154   77   79 am   BACKBONE|DICT|INTERRES
   155   79   80 1    
   156   79  200 1    
   157   80   81 1    
   158   80   82 1    
   159   80  201 1    
   160   81  202 1    
   161   81  203 1    
   162   81  204 1    
   163   82   83 2    
   164   82   84 am   BACKBONE|DICT|INTERRES
   165   84   85 1    
   166   84  205 1    
   167   85   86 1    
   168   85   87 1    
   169   85  206 1    
   170   86  207 1    
   171   86  208 1    
   172   86  209 1    
   173   87   88 2    
   174   87   89 am   BACKBONE|DICT|INTERRES
   175   89   90 1    
   176   89  210 1    
   177   90   91 1    
   178   90   92 1    
   179   90  211 1    
   180   91  212 1    
   181   91  213 1    
   182   91  214 1    
   183   92   93 2    
   184   92   94 am   BACKBONE|DICT|INTERRES
   185   94   95 1    
   186   94  215 1    
   187   95   96 1    
   188   95   97 1    
   189   95  216 1    
   190   96  217 1    
   191   96  218 1    
   192   96  219 1    
   193   97   98 2    
   194   97   99 am   BACKBONE|DICT|INTERRES
   195   99  100 1    
   196   99  220 1    
   197  100  101 1    
   198  100  102 1    
   199  100  221 1    
   200  101  222 1    
   201  101  223 1    
   202  101  224 1    
   203  102  103 2    
   204  102  104 am   BACKBONE|DICT|INTERRES
   205  104  105 1    
   206  104  225 1    
   207  105  106 1    
   208  105  107 1    
   209  105  226 1    
   210  106  227 1    
   211  106  228 1    
   212  106  229 1    
   213  107  108 2    
   214  107  109 am   BACKBONE|DICT|INTERRES
   215  109  110 1    
   216  109  230 1    
   217  110  111 1    
   218  110  112 1    
   219  110  231 1    
   220  111  232 1    
   221  111  233 1    
   222  111  234 1    
   223  112  113 2    
   224  112  114 am   BACKBONE|DICT|INTERRES
   225  114  115 1    
   226  114  235 1    
   227  115  116 1    
   228  115  117 1    
   229  115  236 1    
   230  116  237 1    
   231  116  238 1    
   232  116  239 1    
   233  117  118 2    
   234  117  119 am   BACKBONE|DICT|INTERRES
   235  119  120 1    
   236  119  240 1    
   237  120  121 1    
   238  120  124 1    
   239  120  241 1    
   240  121  122 am   BACKBONE|DICT|INTERRES
   241  121  123 2    
   242  122  242 1    
   243  122  243 1    
   244  124  125 1    
   245  124  244 1    
   246  124  245 1    
   247  125  126 1    
   248  126  246 1    
   249  126  247 1    
@<TRIPOS>SUBSTRUCTURE
     1 UNK         1 GROUP             0       ****    0 ROOT    
