@<TRIPOS>MOLECULE
3R540
247   249    1
SMALL
USER_CHARGES


@<TRIPOS>ATOM
      1 CA         -1.1784  -13.3848  -52.7257 C.3       0 UNK        -0.1800 
      2 C          -0.2688  -12.6539  -51.7500 C.2       0 UNK         0.5000 
      3 O          -0.5604  -11.5193  -51.3694 O.2       0 UNK        -0.5000 
      4 N           0.8400  -13.2931  -51.3608 N.am      1 UNK        -0.5000 
      5 CA          1.8311  -12.7580  -50.4203 C.3       1 UNK         0.1400 
      6 C6          3.1897  -13.5052  -50.4949 C.3       23 UNK        -0.0398 
      7 S7          3.7946  -13.7343  -52.2081 S.3       23 UNK        -0.2404 
      8 C8          3.9486  -15.5480  -52.3518 C.3       23 UNK        -0.0205 
      9 C9          2.6650  -16.2874  -51.9968 C.ar      23 UNK        -0.0193 
     10 C10         1.5799  -16.3009  -52.8787 C.ar      23 UNK        -0.1150 
     11 C11         0.3961  -16.9654  -52.5383 C.ar      23 UNK        -0.0193 
     12 C12         0.3051  -17.6165  -51.3030 C.ar      23 UNK        -0.1150 
     13 C13         1.3904  -17.6261  -50.4241 C.ar      23 UNK        -0.0193 
     14 C14         2.5667  -16.9637  -50.7780 C.ar      23 UNK        -0.1150 
     15 C15         1.2940  -18.3329  -49.0838 C.3       23 UNK        -0.0205 
     16 S16         2.0978  -19.9673  -49.1290 S.3       23 UNK        -0.2404 
     17 C17         1.8878  -20.4718  -47.3854 C.3       23 UNK        -0.0398 
     18 CA          0.8324  -21.5794  -47.1316 C.3       11 UNK         0.1400 
     19 N           0.7224  -21.8815  -45.7007 N.am      11 UNK        -0.5000 
     20 C           0.0429  -22.9155  -45.1798 C.2       10 UNK         0.5000 
     21 O          -0.5165  -23.7731  -45.8605 O.2       10 UNK        -0.5000 
     22 CA         -0.0821  -22.9816  -43.6433 C.3       10 UNK         0.1400 
     23 CB          1.0802  -23.7853  -43.0435 C.3       10 UNK        -0.1800 
     24 N          -0.1313  -21.6649  -43.0085 N.am      10 UNK        -0.5000 
     25 C          -1.0450  -20.7169  -43.2609 C.2       9 UNK         0.5000 
     26 O          -2.0249  -20.8952  -43.9843 O.2       9 UNK        -0.5000 
     27 CA         -0.7942  -19.3185  -42.6626 C.3       9 UNK         0.1400 
     28 CB         -1.6925  -19.0888  -41.4389 C.3       9 UNK        -0.1800 
     29 N           0.5995  -19.0527  -42.2900 N.am      9 UNK        -0.5000 
     30 C           1.6648  -19.1065  -43.1027 C.2       8 UNK         0.5000 
     31 O           1.6010  -19.4246  -44.2893 O.2       8 UNK        -0.5000 
     32 CA          3.0337  -18.7965  -42.4767 C.3       8 UNK         0.1400 
     33 CB          3.3151  -17.2879  -42.4996 C.3       8 UNK        -0.1800 
     34 N           3.1342  -19.2930  -41.1047 N.am      8 UNK        -0.5000 
     35 C           3.3459  -20.5757  -40.7782 C.2       7 UNK         0.5000 
     36 O           3.4907  -21.4757  -41.6054 O.2       7 UNK        -0.5000 
     37 CA          3.3995  -20.9103  -39.2757 C.3       7 UNK         0.1400 
     38 CB          4.8310  -20.7534  -38.7407 C.3       7 UNK        -0.1800 
     39 N           2.4967  -20.0756  -38.4824 N.am      7 UNK        -0.5000 
     40 C           1.1641  -20.2154  -38.4615 C.2       6 UNK         0.5000 
     41 O           0.5585  -21.1000  -39.0669 O.2       6 UNK        -0.5000 
     42 CA          0.3741  -19.1682  -37.6516 C.3       6 UNK         0.1400 
     43 CB          0.2261  -19.6167  -36.1899 C.3       6 UNK        -0.1800 
     44 N           0.9570  -17.8207  -37.6888 N.am      6 UNK        -0.5000 
     45 C           1.1138  -17.0968  -38.8040 C.2       5 UNK         0.5000 
     46 O           0.8573  -17.5210  -39.9315 O.2       5 UNK        -0.5000 
     47 CA          1.6841  -15.6834  -38.6519 C.3       5 UNK         0.1400 
     48 CB          3.2209  -15.7027  -38.7367 C.3       5 UNK        -0.1800 
     49 N           1.1255  -14.8612  -39.7199 N.am      5 UNK        -0.5000 
     50 C           1.0434  -13.5285  -39.7302 C.2       4 UNK         0.5000 
     51 O           1.5143  -12.8175  -38.8401 O.2       4 UNK        -0.5000 
     52 CA          0.3088  -12.8882  -40.9309 C.3       4 UNK         0.1400 
     53 CB          0.3798  -11.3499  -40.9188 C.3       4 UNK        -0.1800 
     54 N           0.7978  -13.3630  -42.2284 N.am      4 UNK        -0.5000 
     55 C           0.4756  -14.5236  -42.8145 C.2       3 UNK         0.5000 
     56 O          -0.2476  -15.3692  -42.2874 O.2       3 UNK        -0.5000 
     57 CA          1.0465  -14.7531  -44.2248 C.3       3 UNK         0.1400 
     58 CB          0.3573  -15.9042  -44.9841 C.3       3 UNK        -0.1800 
     59 N           0.9564  -13.5229  -45.0101 N.am      3 UNK        -0.5000 
     60 C           1.8415  -13.1354  -45.9335 C.2       2 UNK         0.5000 
     61 O           2.8844  -13.7426  -46.1893 O.2       2 UNK        -0.5000 
     62 CA          1.5081  -11.8341  -46.6897 C.3       2 UNK         0.1400 
     63 CB          2.2487  -10.6418  -46.0645 C.3       2 UNK        -0.1800 
     64 N           1.8471  -11.9182  -48.1123 N.am      2 UNK        -0.5000 
     65 C           1.2808  -12.7712  -48.9768 C.2       1 UNK         0.5000 
     66 O           0.3767  -13.5530  -48.6670 O.2       1 UNK        -0.5000 
     67 C          -0.5490  -21.2230  -47.7183 C.2       11 UNK         0.5000 
     68 O          -0.9559  -21.8048  -48.7243 O.2       11 UNK        -0.5000 
     69 N          -1.2589  -20.3007  -47.0522 N.am      12 UNK        -0.5000 
     70 CA         -2.5987  -19.8573  -47.4368 C.3       12 UNK         0.1400 
     71 CB         -3.0069  -18.6484  -46.5823 C.3       12 UNK        -0.1800 
     72 C          -3.6420  -20.9838  -47.3400 C.2       12 UNK         0.5000 
     73 O          -4.5058  -21.0810  -48.2117 O.2       12 UNK        -0.5000 
     74 N          -3.5157  -21.8338  -46.3113 N.am      13 UNK        -0.5000 
     75 CA         -4.3269  -23.0337  -46.1171 C.3       13 UNK         0.1400 
     76 CB         -4.0549  -23.6228  -44.7252 C.3       13 UNK        -0.1800 
     77 C          -4.0954  -24.0867  -47.2164 C.2       13 UNK         0.5000 
     78 O          -5.0684  -24.6011  -47.7671 O.2       13 UNK        -0.5000 
     79 N          -2.8239  -24.3617  -47.5455 N.am      14 UNK        -0.5000 
     80 CA         -2.4201  -25.2962  -48.6013 C.3       14 UNK         0.1400 
     81 CB         -0.9019  -25.5219  -48.5422 C.3       14 UNK        -0.1800 
     82 C          -2.8440  -24.8354  -50.0076 C.2       14 UNK         0.5000 
     83 O          -3.2780  -25.6594  -50.8130 O.2       14 UNK        -0.5000 
     84 N          -2.7479  -23.5237  -50.2613 N.am      15 UNK        -0.5000 
     85 CA         -3.2175  -22.8746  -51.4861 C.3       15 UNK         0.1400 
     86 CB         -2.5596  -21.4904  -51.5902 C.3       15 UNK        -0.1800 
     87 C          -4.7518  -22.7366  -51.5565 C.2       15 UNK         0.5000 
     88 O          -5.2699  -22.3833  -52.6163 O.2       15 UNK        -0.5000 
     89 N          -5.4448  -22.9743  -50.4322 N.am      16 UNK        -0.5000 
     90 CA         -6.8862  -22.8229  -50.2128 C.3       16 UNK         0.1400 
     91 CB         -7.6698  -23.8842  -51.0115 C.3       16 UNK        -0.1800 
     92 C          -7.3624  -21.3838  -50.4921 C.2       16 UNK         0.5000 
     93 O          -8.3372  -21.1824  -51.2154 O.2       16 UNK        -0.5000 
     94 N          -6.6155  -20.4015  -49.9657 N.am      17 UNK        -0.5000 
     95 CA         -6.7603  -18.9612  -50.2184 C.3       17 UNK         0.1400 
     96 CB         -8.0605  -18.4209  -49.5882 C.3       17 UNK        -0.1800 
     97 C          -6.6183  -18.6121  -51.7183 C.2       17 UNK         0.5000 
     98 O          -7.3499  -17.7681  -52.2370 O.2       17 UNK        -0.5000 
     99 N          -5.6828  -19.3105  -52.3776 N.am      18 UNK        -0.5000 
    100 CA        -5.3433  -19.2898  -53.8040 C.3       18 UNK         0.1400 
    101 CB        -5.0346  -17.8631  -54.3028 C.3       18 UNK        -0.1800 
    102 C         -6.3486  -20.0208  -54.7184 C.2       18 UNK         0.5000 
    103 O         -6.1056  -20.0816  -55.9243 O.2       18 UNK        -0.5000 
    104 N         -7.4236  -20.6074  -54.1677 N.am      19 UNK        -0.5000 
    105 CA        -8.4334  -21.3480  -54.9330 C.3       19 UNK         0.1400 
    106 CB        -9.6832  -21.5748  -54.0704 C.3       19 UNK        -0.1800 
    107 C         -7.9209  -22.6887  -55.4954 C.2       19 UNK         0.5000 
    108 O         -8.4262  -23.1376  -56.5249 O.2       19 UNK        -0.5000 
    109 N         -6.9213  -23.2901  -54.8357 N.am      20 UNK        -0.5000 
    110 CA        -6.2343  -24.5061  -55.2819 C.3       20 UNK         0.1400 
    111 CB        -6.0297  -25.4381  -54.0746 C.3       20 UNK        -0.1800 
    112 C         -4.8947  -24.1876  -55.9798 C.2       20 UNK         0.5000 
    113 O         -4.1507  -25.1173  -56.2946 O.2       20 UNK        -0.5000 
    114 N         -4.6292  -22.8919  -56.2120 N.am      21 UNK        -0.5000 
    115 CA        -3.4110  -22.2652  -56.7318 C.3       21 UNK         0.1400 
    116 CB        -2.9747  -22.8652  -58.0827 C.3       21 UNK        -0.1800 
    117 C         -2.2581  -22.2659  -55.7101 C.2       21 UNK         0.5000 
    118 O         -2.0625  -23.2320  -54.9704 O.2       21 UNK        -0.5000 
    119 N         -1.5105  -21.1597  -55.6927 N.am      22 UNK        -0.5000 
    120 CA        -0.3338  -20.9575  -54.8363 C.3       22 UNK         0.1400 
    121 C          0.9248  -21.6757  -55.3941 C.2       22 UNK         0.5000 
    122 N          1.8150  -22.1406  -54.5282 N.am      22 UNK        -0.7600 
    123 O          1.1231  -21.7816  -56.6028 O.2       22 UNK        -0.5000 
    124 C124       -0.0546  -19.4513  -54.6144 C.3       23 UNK        -0.0398 
    125 S125       -1.4664  -18.6188  -53.8136 S.3       23 UNK        -0.2404 
    126 C126       -0.7874  -16.9597  -53.4989 C.3       23 UNK        -0.0205 
    127 H127       -1.7113  -12.6740  -53.3576 H         1 UNK         0.0600 
    128 H128       -1.9132  -13.9791  -52.1827 H         1 UNK         0.0600 
    129 H129       -0.6047  -14.0442  -53.3764 H         1 UNK         0.0600 
    130 H130        1.0189  -14.2326  -51.6867 H         1 UNK         0.3000 
    131 H131        2.0119  -11.7168  -50.6968 H         1 UNK         0.0600 
    132 H132        3.9507  -12.9419  -49.9528 H         1 UNK         0.0800 
    133 H133        3.1310  -14.4670  -49.9872 H         1 UNK         0.0800 
    134 H134        4.7711  -15.8830  -51.7177 H         1 UNK         0.0800 
    135 H135        4.2357  -15.7970  -53.3744 H         1 UNK         0.0800 
    136 H136        1.6582  -15.7851  -53.8257 H         1 UNK         0.1150 
    137 H137       -0.6092  -18.1254  -51.0312 H         1 UNK         0.1150 
    138 H138        3.4046  -16.9686  -50.0948 H         1 UNK         0.1150 
    139 H139        1.7632  -17.7144  -48.3167 H         1 UNK         0.0800 
    140 H140        0.2490  -18.4463  -48.7919 H         1 UNK         0.0800 
    141 H141        1.6512  -19.5849  -46.7983 H         1 UNK         0.0800 
    142 H142        2.8591  -20.8106  -47.0228 H         1 UNK         0.0800 
    143 H143        1.1734  -22.4869  -47.6344 H         1 UNK         0.0600 
    144 H144        1.1168  -21.1907  -45.0694 H         1 UNK         0.3000 
    145 H145       -1.0138  -23.4976  -43.4055 H         1 UNK         0.0600 
    146 H146        0.9710  -23.8932  -41.9641 H         1 UNK         0.0600 
    147 H147        2.0413  -23.3068  -43.2366 H         1 UNK         0.0600 
    148 H148        1.1212  -24.7891  -43.4684 H         1 UNK         0.0600 
    149 H149        0.6395  -21.4260  -42.4012 H         1 UNK         0.3000 
    150 H150       -1.0703  -18.5904  -43.4274 H         1 UNK         0.0600 
    151 H151       -2.7410  -19.2661  -41.6815 H         1 UNK         0.0600 
    152 H152       -1.6124  -18.0621  -41.0808 H         1 UNK         0.0600 
    153 H153       -1.4263  -19.7535  -40.6164 H         1 UNK         0.0600 
    154 H154        0.7415  -18.7002  -41.3462 H         1 UNK         0.3000 
    155 H155        3.7974  -19.2894  -43.0824 H         1 UNK         0.0600 
    156 H156        3.3369  -16.9198  -43.5254 H         1 UNK         0.0600 
    157 H157        4.2836  -17.0593  -42.0546 H         1 UNK         0.0600 
    158 H158        2.5544  -16.7242  -41.9590 H         1 UNK         0.0600 
    159 H159        2.9621  -18.6266  -40.3669 H         1 UNK         0.3000 
    160 H160        3.1041  -21.9550  -39.1559 H         1 UNK         0.0600 
    161 H161        5.1812  -19.7234  -38.8191 H         1 UNK         0.0600 
    162 H162        5.5270  -21.3804  -39.2997 H         1 UNK         0.0600 
    163 H163        4.8955  -21.0517  -37.6942 H         1 UNK         0.0600 
    164 H164        2.9120  -19.3284  -37.9459 H         1 UNK         0.3000 
    165 H165       -0.6242  -19.1064  -38.0902 H         1 UNK         0.0600 
    166 H166       -0.4153  -18.9352  -35.6308 H         1 UNK         0.0600 
    167 H167       -0.2252  -20.6081  -36.1291 H         1 UNK         0.0600 
    168 H168        1.1907  -19.6634  -35.6830 H         1 UNK         0.0600 
    169 H169        1.2054  -17.4135  -36.7985 H         1 UNK         0.3000 
    170 H170        1.3716  -15.2806  -37.6863 H         1 UNK         0.0600 
    171 H171        3.5665  -16.0803  -39.6993 H         1 UNK         0.0600 
    172 H172        3.6378  -14.7047  -38.6021 H         1 UNK         0.0600 
    173 H173        3.6488  -16.3380  -37.9603 H         1 UNK         0.0600 
    174 H174        0.6863  -15.3862  -40.4731 H         1 UNK         0.3000 
    175 H175       -0.7430  -13.1662  -40.8360 H         1 UNK         0.0600 
    176 H176        1.4073  -10.9937  -41.0025 H         1 UNK         0.0600 
    177 H177       -0.1919  -10.9220  -41.7426 H         1 UNK         0.0600 
    178 H178       -0.0358  -10.9441  -39.9955 H         1 UNK         0.0600 
    179 H179        1.4311  -12.7452  -42.7149 H         1 UNK         0.3000 
    180 H180        2.0963  -15.0137  -44.0834 H         1 UNK         0.0600 
    181 H181       -0.6986  -15.6939  -45.1574 H         1 UNK         0.0600 
    182 H182        0.4184  -16.8369  -44.4259 H         1 UNK         0.0600 
    183 H183        0.8277  -16.0773  -45.9522 H         1 UNK         0.0600 
    184 H184        0.1340  -12.9584  -44.8441 H         1 UNK         0.3000 
    185 H185        0.4342  -11.6497  -46.6156 H         1 UNK         0.0600 
    186 H186        3.3310  -10.7606  -46.1313 H         1 UNK         0.0600 
    187 H187        1.9817   -9.7073  -46.5585 H         1 UNK         0.0600 
    188 H188        1.9951  -10.5336  -45.0091 H         1 UNK         0.0600 
    189 H189        2.5989  -11.3222  -48.4265 H         1 UNK         0.3000 
    190 H190       -0.8785  -19.9130  -46.2017 H         1 UNK         0.3000 
    191 H191       -2.5565  -19.5364  -48.4798 H         1 UNK         0.0600 
    192 H192       -2.3007  -17.8260  -46.6991 H         1 UNK         0.0600 
    193 H193       -3.0572  -18.8992  -45.5223 H         1 UNK         0.0600 
    194 H194       -3.9892  -18.2776  -46.8779 H         1 UNK         0.0600 
    195 H195       -2.8176  -21.6322  -45.6013 H         1 UNK         0.3000 
    196 H196       -5.3763  -22.7340  -46.1575 H         1 UNK         0.0600 
    197 H197       -4.2460  -22.8894  -43.9414 H         1 UNK         0.0600 
    198 H198       -3.0235  -23.9590  -44.6247 H         1 UNK         0.0600 
    199 H199       -4.6993  -24.4815  -44.5334 H         1 UNK         0.0600 
    200 H200       -2.0704  -23.9257  -47.0213 H         1 UNK         0.3000 
    201 H201       -2.9116  -26.2514  -48.4056 H         1 UNK         0.0600 
    202 H202       -0.6051  -25.9516  -47.5854 H         1 UNK         0.0600 
    203 H203       -0.3512  -24.5900  -48.6759 H         1 UNK         0.0600 
    204 H204       -0.5772  -26.2117  -49.3222 H         1 UNK         0.0600 
    205 H205       -2.3093  -22.9223  -49.5686 H         1 UNK         0.3000 
    206 H206       -2.9007  -23.4732  -52.3423 H         1 UNK         0.0600 
    207 H207       -1.4728  -21.5646  -51.5502 H         1 UNK         0.0600 
    208 H208       -2.8778  -20.8298  -50.7829 H         1 UNK         0.0600 
    209 H209       -2.8148  -21.0100  -52.5342 H         1 UNK         0.0600 
    210 H210       -4.9180  -23.2430  -49.6115 H         1 UNK         0.3000 
    211 H211       -7.0594  -23.0073  -49.1517 H         1 UNK         0.0600 
    212 H212       -7.5957  -23.7189  -52.0857 H         1 UNK         0.0600 
    213 H213       -8.7287  -23.8637  -50.7519 H         1 UNK         0.0600 
    214 H214       -7.3013  -24.8880  -50.8001 H         1 UNK         0.0600 
    215 H215       -5.8313  -20.6696  -49.3711 H         1 UNK         0.3000 
    216 H216       -5.9236  -18.4773  -49.7126 H         1 UNK         0.0600 
    217 H217       -8.1061  -17.3336  -49.6595 H         1 UNK         0.0600 
    218 H218       -8.1220  -18.6788  -48.5310 H         1 UNK         0.0600 
    219 H219       -8.9477  -18.8175  -50.0826 H         1 UNK         0.0600 
    220 H220       -5.1987  -20.0217  -51.8491 H         1 UNK         0.3000 
    221 H221       -4.4177  -19.8604  -53.8846 H         1 UNK         0.0600 
    222 H222       -5.9354  -17.2546  -54.3834 H         1 UNK         0.0600 
    223 H223       -4.3400  -17.3517  -53.6366 H         1 UNK         0.0600 
    224 H224       -4.5734  -17.8894  -55.2906 H         1 UNK         0.0600 
    225 H225       -7.5558  -20.5646  -53.1641 H         1 UNK         0.3000 
    226 H226       -8.7251  -20.7264  -55.7822 H         1 UNK         0.0600 
    227 H227      -10.0352  -20.6441  -53.6251 H         1 UNK         0.0600 
    228 H228      -10.4993  -21.9788  -54.6704 H         1 UNK         0.0600 
    229 H229       -9.4932  -22.2849  -53.2652 H         1 UNK         0.0600 
    230 H230       -6.5321  -22.8437  -54.0082 H         1 UNK         0.3000 
    231 H231       -6.8508  -25.0395  -56.0080 H         1 UNK         0.0600 
    232 H232       -5.6063  -26.3937  -54.3856 H         1 UNK         0.0600 
    233 H233       -6.9748  -25.6527  -53.5762 H         1 UNK         0.0600 
    234 H234       -5.3506  -25.0076  -53.3393 H         1 UNK         0.0600 
    235 H235       -5.3378  -22.2322  -55.9191 H         1 UNK         0.3000 
    236 H236       -3.6884  -21.2256  -56.9136 H         1 UNK         0.0600 
    237 H237       -2.5969  -23.8823  -57.9769 H         1 UNK         0.0600 
    238 H238       -3.8006  -22.8831  -58.7938 H         1 UNK         0.0600 
    239 H239       -2.1747  -22.2721  -58.5272 H         1 UNK         0.0600 
    240 H240       -1.7087  -20.4167  -56.3459 H         1 UNK         0.3000 
    241 H241       -0.5518  -21.3980  -53.8615 H         1 UNK         0.0600 
    242 H242        2.6437  -22.5968  -54.8775 H         1 UNK         0.3800 
    243 H243        1.6807  -22.0586  -53.5323 H         1 UNK         0.3800 
    244 H244        0.1629  -18.9508  -55.5595 H         1 UNK         0.0800 
    245 H245        0.8259  -19.3207  -53.9828 H         1 UNK         0.0800 
    246 H246       -0.5155  -16.5046  -54.4525 H         1 UNK         0.0800 
    247 H247       -1.5793  -16.3427  -53.0741 H         1 UNK         0.0800 
@<TRIPOS>BOND
     1    1    2 1    
     2    1  127 1    
     3    1  128 1    
     4    1  129 1    
     5    2    3 2    
     6    2    4 am   BACKBONE|DICT|INTERRES
     7    4    5 1    
     8    4  130 1    
     9    5    6 1    
    10    5   65 1    
    11    5  131 1    
    12    6    7 1    
    13    6  132 1    
    14    6  133 1    
    15    7    8 1    
    16    8    9 1    
    17    8  134 1    
    18    8  135 1    
    19    9   10 ar   
    20    9   14 ar   
    21   10   11 ar   
    22   10  136 1    
    23   11   12 ar   
    24   11  126 1    
    25   12   13 ar   
    26   12  137 1    
    27   13   14 ar   
    28   13   15 1    
    29   14  138 1    
    30   15   16 1    
    31   15  139 1    
    32   15  140 1    
    33   16   17 1    
    34   17   18 1    
    35   17  141 1    
    36   17  142 1    
    37   18   19 1    
    38   18   67 1    
    39   18  143 1    
    40   19   20 am   BACKBONE|DICT|INTERRES
    41   19  144 1    
    42   20   21 2    
    43   20   22 1    
    44   22   23 1    
    45   22   24 1    
    46   22  145 1    
    47   23  146 1    
    48   23  147 1    
    49   23  148 1    
    50   24   25 am   BACKBONE|DICT|INTERRES
    51   24  149 1    
    52   25   26 2    
    53   25   27 1    
    54   27   28 1    
    55   27   29 1    
    56   27  150 1    
    57   28  151 1    
    58   28  152 1    
    59   28  153 1    
    60   29   30 am   BACKBONE|DICT|INTERRES
    61   29  154 1    
    62   30   31 2    
    63   30   32 1    
    64   32   33 1    
    65   32   34 1    
    66   32  155 1    
    67   33  156 1    
    68   33  157 1    
    69   33  158 1    
    70   34   35 am   BACKBONE|DICT|INTERRES
    71   34  159 1    
    72   35   36 2    
    73   35   37 1    
    74   37   38 1    
    75   37   39 1    
    76   37  160 1    
    77   38  161 1    
    78   38  162 1    
    79   38  163 1    
    80   39   40 am   BACKBONE|DICT|INTERRES
    81   39  164 1    
    82   40   41 2    
    83   40   42 1    
    84   42   43 1    
    85   42   44 1    
    86   42  165 1    
    87   43  166 1    
    88   43  167 1    
    89   43  168 1    
    90   44   45 am   BACKBONE|DICT|INTERRES
    91   44  169 1    
    92   45   46 2    
    93   45   47 1    
    94   47   48 1    
    95   47   49 1    
    96   47  170 1    
    97   48  171 1    
    98   48  172 1    
    99   48  173 1    
   100   49   50 am   BACKBONE|DICT|INTERRES
   101   49  174 1    
   102   50   51 2    
   103   50   52 1    
   104   52   53 1    
   105   52   54 1    
   106   52  175 1    
   107   53  176 1    
   108   53  177 1    
   109   53  178 1    
   110   54   55 am   BACKBONE|DICT|INTERRES
   111   54  179 1    
   112   55   56 2    
   113   55   57 1    
   114   57   58 1    
   115   57   59 1    
   116   57  180 1    
   117   58  181 1    
   118   58  182 1    
   119   58  183 1    
   120   59   60 am   BACKBONE|DICT|INTERRES
   121   59  184 1    
   122   60   61 2    
   123   60   62 1    
   124   62   63 1    
   125   62   64 1    
   126   62  185 1    
   127   63  186 1    
   128   63  187 1    
   129   63  188 1    
   130   64   65 am   BACKBONE|DICT|INTERRES
   131   64  189 1    
   132   65   66 2    
   133   67   68 2    
   134   67   69 am   BACKBONE|DICT|INTERRES
   135   69   70 1    
   136   69  190 1    
   137   70   71 1    
   138   70   72 1    
   139   70  191 1    
   140   71  192 1    
   141   71  193 1    
   142   71  194 1    
   143   72   73 2    
   144   72   74 am   BACKBONE|DICT|INTERRES
   145   74   75 1    
   146   74  195 1    
   147   75   76 1    
   148   75   77 1    
   149   75  196 1    
   150   76  197 1    
   151   76  198 1    
   152   76  199 1    
   153   77   78 2    
   154   77   79 am   BACKBONE|DICT|INTERRES
   155   79   80 1    
   156   79  200 1    
   157   80   81 1    
   158   80   82 1    
   159   80  201 1    
   160   81  202 1    
   161   81  203 1    
   162   81  204 1    
   163   82   83 2    
   164   82   84 am   BACKBONE|DICT|INTERRES
   165   84   85 1    
   166   84  205 1    
   167   85   86 1    
   168   85   87 1    
   169   85  206 1    
   170   86  207 1    
   171   86  208 1    
   172   86  209 1    
   173   87   88 2    
   174   87   89 am   BACKBONE|DICT|INTERRES
   175   89   90 1    
   176   89  210 1    
   177   90   91 1    
   178   90   92 1    
   179   90  211 1    
   180   91  212 1    
   181   91  213 1    
   182   91  214 1    
   183   92   93 2    
   184   92   94 am   BACKBONE|DICT|INTERRES
   185   94   95 1    
   186   94  215 1    
   187   95   96 1    
   188   95   97 1    
   189   95  216 1    
   190   96  217 1    
   191   96  218 1    
   192   96  219 1    
   193   97   98 2    
   194   97   99 am   BACKBONE|DICT|INTERRES
   195   99  100 1    
   196   99  220 1    
   197  100  101 1    
   198  100  102 1    
   199  100  221 1    
   200  101  222 1    
   201  101  223 1    
   202  101  224 1    
   203  102  103 2    
   204  102  104 am   BACKBONE|DICT|INTERRES
   205  104  105 1    
   206  104  225 1    
   207  105  106 1    
   208  105  107 1    
   209  105  226 1    
   210  106  227 1    
   211  106  228 1    
   212  106  229 1    
   213  107  108 2    
   214  107  109 am   BACKBONE|DICT|INTERRES
   215  109  110 1    
   216  109  230 1    
   217  110  111 1    
   218  110  112 1    
   219  110  231 1    
   220  111  232 1    
   221  111  233 1    
   222  111  234 1    
   223  112  113 2    
   224  112  114 am   BACKBONE|DICT|INTERRES
   225  114  115 1    
   226  114  235 1    
   227  115  116 1    
   228  115  117 1    
   229  115  236 1    
   230  116  237 1    
   231  116  238 1    
   232  116  239 1    
   233  117  118 2    
   234  117  119 am   BACKBONE|DICT|INTERRES
   235  119  120 1    
   236  119  240 1    
   237  120  121 1    
   238  120  124 1    
   239  120  241 1    
   240  121  122 am   BACKBONE|DICT|INTERRES
   241  121  123 2    
   242  122  242 1    
   243  122  243 1    
   244  124  125 1    
   245  124  244 1    
   246  124  245 1    
   247  125  126 1    
   248  126  246 1    
   249  126  247 1    
@<TRIPOS>SUBSTRUCTURE
     1 UNK         1 GROUP             0       ****    0 ROOT    
