@<TRIPOS>MOLECULE
3R540
247   249    1
SMALL
USER_CHARGES


@<TRIPOS>ATOM
      1 CA         -0.9916   -8.1978  -46.5735 C.3       0 UNK        -0.1800 
      2 C          -0.1721   -9.4229  -46.9516 C.2       0 UNK         0.5000 
      3 O           1.0320   -9.4554  -46.7002 O.2       0 UNK        -0.5000 
      4 N          -0.8191  -10.4315  -47.5507 N.am      1 UNK        -0.5000 
      5 CA         -0.2029  -11.6907  -47.9926 C.3       1 UNK         0.1400 
      6 C6         -1.1971  -12.5859  -48.7700 C.3       23 UNK        -0.0398 
      7 S7         -1.9749  -11.7818  -50.2141 S.3       23 UNK        -0.2404 
      8 C8         -3.7135  -12.3139  -50.0421 C.3       23 UNK        -0.0205 
      9 C9         -3.9108  -13.7791  -50.4144 C.ar      23 UNK        -0.0193 
     10 C10        -4.3711  -14.1336  -51.6871 C.ar      23 UNK        -0.1150 
     11 C11        -4.5538  -15.4787  -52.0263 C.ar      23 UNK        -0.0193 
     12 C12        -4.2585  -16.4744  -51.0895 C.ar      23 UNK        -0.1150 
     13 C13        -3.7886  -16.1330  -49.8193 C.ar      23 UNK        -0.0193 
     14 C14        -3.6387  -14.7863  -49.4841 C.ar      23 UNK        -0.1150 
     15 C15        -3.3789  -17.2070  -48.8241 C.3       23 UNK        -0.0205 
     16 S16        -4.3644  -17.1482  -47.2915 S.3       23 UNK        -0.2404 
     17 C17        -3.2003  -17.9446  -46.1356 C.3       23 UNK        -0.0398 
     18 CA         -3.1972  -19.4870  -46.2750 C.3       11 UNK         0.1400 
     19 N          -1.8569  -20.0627  -46.1133 N.am      11 UNK        -0.5000 
     20 C          -1.5316  -21.3300  -46.4047 C.2       10 UNK         0.5000 
     21 O          -2.3417  -22.1571  -46.8211 O.2       10 UNK        -0.5000 
     22 CA         -0.0774  -21.7618  -46.1538 C.3       10 UNK         0.1400 
     23 CB          0.8491  -21.2546  -47.2688 C.3       10 UNK        -0.1800 
     24 N           0.4077  -21.3136  -44.8497 N.am      10 UNK        -0.5000 
     25 C          -0.0651  -21.7686  -43.6803 C.2       9 UNK         0.5000 
     26 O          -0.8925  -22.6753  -43.5868 O.2       9 UNK        -0.5000 
     27 CA          0.4368  -21.0715  -42.4027 C.3       9 UNK         0.1400 
     28 CB          1.7699  -21.6783  -41.9409 C.3       9 UNK        -0.1800 
     29 N           0.5839  -19.6234  -42.5596 N.am      9 UNK        -0.5000 
     30 C          -0.4218  -18.7753  -42.8212 C.2       8 UNK         0.5000 
     31 O          -1.5986  -19.1203  -42.9338 O.2       8 UNK        -0.5000 
     32 CA         -0.0381  -17.3018  -43.0543 C.3       8 UNK         0.1400 
     33 CB          0.2522  -16.5942  -41.7225 C.3       8 UNK        -0.1800 
     34 N           1.1119  -17.1591  -43.9488 N.am      8 UNK        -0.5000 
     35 C           1.1409  -17.5818  -45.2209 C.2       7 UNK         0.5000 
     36 O           0.1778  -18.0858  -45.7951 O.2       7 UNK        -0.5000 
     37 CA          2.4851  -17.4840  -45.9581 C.3       7 UNK         0.1400 
     38 CB          2.7090  -16.0719  -46.5142 C.3       7 UNK        -0.1800 
     39 N           3.6022  -17.8681  -45.0972 N.am      7 UNK        -0.5000 
     40 C           3.8339  -19.1227  -44.6848 C.2       6 UNK         0.5000 
     41 O           3.1515  -20.0901  -45.0216 O.2       6 UNK        -0.5000 
     42 CA          4.9985  -19.3198  -43.6976 C.3       6 UNK         0.1400 
     43 CB          6.3324  -19.4392  -44.4495 C.3       6 UNK        -0.1800 
     44 N           5.0888  -18.2373  -42.7165 N.am      6 UNK        -0.5000 
     45 C           4.1703  -17.9973  -41.7701 C.2       5 UNK         0.5000 
     46 O           3.1679  -18.6902  -41.6000 O.2       5 UNK        -0.5000 
     47 CA          4.3836  -16.7441  -40.9014 C.3       5 UNK         0.1400 
     48 CB          5.2754  -17.0691  -39.6941 C.3       5 UNK        -0.1800 
     49 N           4.9558  -15.6146  -41.6411 N.am      5 UNK        -0.5000 
     50 C           4.3538  -14.9991  -42.6666 C.2       4 UNK         0.5000 
     51 O           3.2676  -15.3512  -43.1339 O.2       4 UNK        -0.5000 
     52 CA          5.1119  -13.8296  -43.3119 C.3       4 UNK         0.1400 
     53 CB          5.8104  -14.2905  -44.6004 C.3       4 UNK        -0.1800 
     54 N           4.1676  -12.7645  -43.6339 N.am      4 UNK        -0.5000 
     55 C           3.8512  -11.7555  -42.8117 C.2       3 UNK         0.5000 
     56 O           4.4341  -11.5265  -41.7509 O.2       3 UNK        -0.5000 
     57 CA          2.6666  -10.8631  -43.2339 C.3       3 UNK         0.1400 
     58 CB          3.1592   -9.6596  -44.0507 C.3       3 UNK        -0.1800 
     59 N           1.6512  -11.5880  -44.0026 N.am      3 UNK        -0.5000 
     60 C           0.8757  -12.5640  -43.5073 C.2       2 UNK         0.5000 
     61 O           0.8846  -12.8862  -42.3188 O.2       2 UNK        -0.5000 
     62 CA         -0.0676  -13.2963  -44.4865 C.3       2 UNK         0.1400 
     63 CB         -1.4036  -13.6821  -43.8260 C.3       2 UNK        -0.1800 
     64 N          -0.3622  -12.5269  -45.6966 N.am      2 UNK        -0.5000 
     65 C           0.3777  -12.5009  -46.8131 C.2       1 UNK         0.5000 
     66 O           1.4642  -13.0656  -46.9272 O.2       1 UNK        -0.5000 
     67 C          -4.2539  -20.1479  -45.3657 C.2       11 UNK         0.5000 
     68 O          -5.4019  -20.2948  -45.7843 O.2       11 UNK        -0.5000 
     69 N          -3.8418  -20.6134  -44.1778 N.am      12 UNK        -0.5000 
     70 CA         -4.6633  -21.4188  -43.2678 C.3       12 UNK         0.1400 
     71 CB         -3.9170  -21.6000  -41.9377 C.3       12 UNK        -0.1800 
     72 C          -5.0815  -22.7865  -43.8546 C.2       12 UNK         0.5000 
     73 O          -6.1036  -23.3326  -43.4385 O.2       12 UNK        -0.5000 
     74 N          -4.3129  -23.2930  -44.8286 N.am      13 UNK        -0.5000 
     75 CA         -4.6097  -24.4858  -45.6240 C.3       13 UNK         0.1400 
     76 CB         -3.3315  -25.3385  -45.7144 C.3       13 UNK        -0.1800 
     77 C          -5.1333  -24.1225  -47.0313 C.2       13 UNK         0.5000 
     78 O          -5.1884  -24.9969  -47.8981 O.2       13 UNK        -0.5000 
     79 N          -5.4684  -22.8418  -47.2585 N.am      14 UNK        -0.5000 
     80 CA         -5.9117  -22.2435  -48.5232 C.3       14 UNK         0.1400 
     81 CB         -7.3142  -22.7615  -48.9036 C.3       14 UNK        -0.1800 
     82 C          -4.8829  -22.4022  -49.6627 C.2       14 UNK         0.5000 
     83 O          -5.2687  -22.6090  -50.8124 O.2       14 UNK        -0.5000 
     84 N          -3.5888  -22.3381  -49.3155 N.am      15 UNK        -0.5000 
     85 CA         -2.4272  -22.6095  -50.1678 C.3       15 UNK         0.1400 
     86 CB         -2.3096  -21.5721  -51.2995 C.3       15 UNK        -0.1800 
     87 C          -2.4262  -24.0651  -50.6733 C.2       15 UNK         0.5000 
     88 O          -2.2500  -24.3114  -51.8689 O.2       15 UNK        -0.5000 
     89 N          -2.6648  -24.9966  -49.7385 N.am      16 UNK        -0.5000 
     90 CA         -2.8273  -26.4389  -49.9470 C.3       16 UNK         0.1400 
     91 CB         -1.4927  -27.0788  -50.3840 C.3       16 UNK        -0.1800 
     92 C          -4.0034  -26.7528  -50.8955 C.2       16 UNK         0.5000 
     93 O          -3.8539  -27.5400  -51.8302 O.2       16 UNK        -0.5000 
     94 N          -5.1441  -26.0947  -50.6382 N.am      17 UNK        -0.5000 
     95 CA         -6.3669  -26.0898  -51.4489 C.3       17 UNK         0.1400 
     96 CB         -7.0543  -27.4708  -51.4130 C.3       17 UNK        -0.1800 
     97 C          -6.1184  -25.5648  -52.8805 C.2       17 UNK         0.5000 
     98 O          -6.4859  -26.2194  -53.8582 O.2       17 UNK        -0.5000 
     99 N          -5.4898  -24.3832  -52.9578 N.am      18 UNK        -0.5000 
    100 CA        -5.1113  -23.6376  -54.1604 C.3       18 UNK         0.1400 
    101 CB        -6.3638  -23.0833  -54.8690 C.3       18 UNK        -0.1800 
    102 C         -4.1774  -24.4293  -55.1000 C.2       18 UNK         0.5000 
    103 O         -4.3998  -24.4617  -56.3128 O.2       18 UNK        -0.5000 
    104 N         -3.1540  -25.0643  -54.5156 N.am      19 UNK        -0.5000 
    105 CA        -2.1331  -25.8295  -55.2309 C.3       19 UNK         0.1400 
    106 CB        -2.0380  -27.2392  -54.6299 C.3       19 UNK        -0.1800 
    107 C         -0.7670  -25.1288  -55.1734 C.2       19 UNK         0.5000 
    108 O         -0.0450  -25.1346  -56.1713 O.2       19 UNK        -0.5000 
    109 N         -0.4308  -24.5353  -54.0196 N.am      20 UNK        -0.5000 
    110 CA         0.8290  -23.8230  -53.7951 C.3       20 UNK         0.1400 
    111 CB         1.1696  -23.8762  -52.2970 C.3       20 UNK        -0.1800 
    112 C          0.7801  -22.3633  -54.2846 C.2       20 UNK         0.5000 
    113 O          1.8319  -21.7742  -54.5365 O.2       20 UNK        -0.5000 
    114 N         -0.4308  -21.8094  -54.4055 N.am      21 UNK        -0.5000 
    115 CA        -0.7373  -20.4502  -54.8384 C.3       21 UNK         0.1400 
    116 CB        -0.3205  -19.4216  -53.7614 C.3       21 UNK        -0.1800 
    117 C         -2.2385  -20.3872  -55.1739 C.2       21 UNK         0.5000 
    118 O         -2.8590  -21.4292  -55.3927 O.2       21 UNK        -0.5000 
    119 N         -2.8005  -19.1746  -55.1936 N.am      22 UNK        -0.5000 
    120 CA        -4.2261  -18.8832  -55.4268 C.3       22 UNK         0.1400 
    121 C         -5.2167  -19.4057  -54.3415 C.2       22 UNK         0.5000 
    122 N         -4.7617  -19.8311  -53.1699 N.am      22 UNK        -0.7600 
    123 O         -6.4218  -19.4284  -54.5742 O.2       22 UNK        -0.5000 
    124 C124       -4.4492  -17.3742  -55.7249 C.3       23 UNK        -0.0398 
    125 S125       -3.6601  -16.2598  -54.5066 S.3       23 UNK        -0.2404 
    126 C126       -5.0542  -15.8682  -53.4071 C.3       23 UNK        -0.0205 
    127 H127       -0.5993   -7.3144  -47.0773 H         1 UNK         0.0600 
    128 H128       -0.9390   -8.0298  -45.4979 H         1 UNK         0.0600 
    129 H129       -2.0402   -8.3098  -46.8500 H         1 UNK         0.0600 
    130 H130       -1.8026  -10.3321  -47.7578 H         1 UNK         0.3000 
    131 H131        0.6245  -11.4377  -48.6588 H         1 UNK         0.0600 
    132 H132       -0.7055  -13.4953  -49.1215 H         1 UNK         0.0800 
    133 H133       -1.9816  -12.9028  -48.0843 H         1 UNK         0.0800 
    134 H134       -4.0603  -12.1346  -49.0233 H         1 UNK         0.0800 
    135 H135       -4.3324  -11.6839  -50.6829 H         1 UNK         0.0800 
    136 H136       -4.5845  -13.3636  -52.4152 H         1 UNK         0.1150 
    137 H137       -4.3766  -17.5142  -51.3605 H         1 UNK         0.1150 
    138 H138       -3.2977  -14.5363  -48.4919 H         1 UNK         0.1150 
    139 H139       -3.4679  -18.2006  -49.2662 H         1 UNK         0.0800 
    140 H140       -2.3214  -17.0665  -48.5960 H         1 UNK         0.0800 
    141 H141       -3.4311  -17.6307  -45.1157 H         1 UNK         0.0800 
    142 H142       -2.2140  -17.5312  -46.3395 H         1 UNK         0.0800 
    143 H143       -3.4856  -19.7362  -47.2984 H         1 UNK         0.0600 
    144 H144       -1.1229  -19.4272  -45.8085 H         1 UNK         0.3000 
    145 H145       -0.0497  -22.8535  -46.1666 H         1 UNK         0.0600 
    146 H146        1.8698  -21.6079  -47.1220 H         1 UNK         0.0600 
    147 H147        0.5186  -21.6125  -48.2445 H         1 UNK         0.0600 
    148 H148        0.8771  -20.1662  -47.3119 H         1 UNK         0.0600 
    149 H149        1.1358  -20.6079  -44.8467 H         1 UNK         0.3000 
    150 H150       -0.3049  -21.2453  -41.6203 H         1 UNK         0.0600 
    151 H151        1.6815  -22.7563  -41.8006 H         1 UNK         0.0600 
    152 H152        2.0881  -21.2516  -40.9896 H         1 UNK         0.0600 
    153 H153        2.5641  -21.5046  -42.6675 H         1 UNK         0.0600 
    154 H154        1.5202  -19.2482  -42.4342 H         1 UNK         0.3000 
    155 H155       -0.8874  -16.8054  -43.5282 H         1 UNK         0.0600 
    156 H156       -0.6332  -16.5863  -41.0860 H         1 UNK         0.0600 
    157 H157        0.5517  -15.5586  -41.8797 H         1 UNK         0.0600 
    158 H158        1.0499  -17.0861  -41.1667 H         1 UNK         0.0600 
    159 H159        1.9392  -16.7105  -43.5658 H         1 UNK         0.3000 
    160 H160        2.4540  -18.1754  -46.8029 H         1 UNK         0.0600 
    161 H161        2.7190  -15.3189  -45.7264 H         1 UNK         0.0600 
    162 H162        1.9137  -15.8018  -47.2101 H         1 UNK         0.0600 
    163 H163        3.6512  -16.0042  -47.0577 H         1 UNK         0.0600 
    164 H164        4.1721  -17.1215  -44.7295 H         1 UNK         0.3000 
    165 H165        4.8244  -20.2538  -43.1592 H         1 UNK         0.0600 
    166 H166        7.1529  -19.6538  -43.7647 H         1 UNK         0.0600 
    167 H167        6.2978  -20.2505  -45.1779 H         1 UNK         0.0600 
    168 H168        6.5759  -18.5232  -44.9894 H         1 UNK         0.0600 
    169 H169        5.8841  -17.6199  -42.7848 H         1 UNK         0.3000 
    170 H170        3.4055  -16.4342  -40.5276 H         1 UNK         0.0600 
    171 H171        4.8612  -17.8951  -39.1143 H         1 UNK         0.0600 
    172 H172        6.2821  -17.3557  -40.0010 H         1 UNK         0.0600 
    173 H173        5.3589  -16.2136  -39.0236 H         1 UNK         0.0600 
    174 H174        5.8516  -15.2753  -41.3210 H         1 UNK         0.3000 
    175 H175        5.8720  -13.4626  -42.6190 H         1 UNK         0.0600 
    176 H176        5.0991  -14.6608  -45.3387 H         1 UNK         0.0600 
    177 H177        6.3677  -13.4725  -45.0574 H         1 UNK         0.0600 
    178 H178        6.5209  -15.0924  -44.3961 H         1 UNK         0.0600 
    179 H179        3.5942  -12.9090  -44.4523 H         1 UNK         0.3000 
    180 H180        2.1971  -10.4864  -42.3227 H         1 UNK         0.0600 
    181 H181        3.5928   -9.9690  -45.0025 H         1 UNK         0.0600 
    182 H182        3.9222   -9.1019  -43.5061 H         1 UNK         0.0600 
    183 H183        2.3434   -8.9685  -44.2631 H         1 UNK         0.0600 
    184 H184        1.5745  -11.3603  -44.9846 H         1 UNK         0.3000 
    185 H185        0.4395  -14.2212  -44.7702 H         1 UNK         0.0600 
    186 H186       -1.2497  -14.3024  -42.9432 H         1 UNK         0.0600 
    187 H187       -1.9639  -12.8010  -43.5117 H         1 UNK         0.0600 
    188 H188       -2.0305  -14.2530  -44.5115 H         1 UNK         0.0600 
    189 H189       -1.2114  -11.9808  -45.6780 H         1 UNK         0.3000 
    190 H190       -2.8984  -20.3970  -43.8715 H         1 UNK         0.3000 
    191 H191       -5.5787  -20.8583  -43.0678 H         1 UNK         0.0600 
    192 H192       -2.9943  -22.1648  -42.0669 H         1 UNK         0.0600 
    193 H193       -3.6615  -20.6378  -41.4933 H         1 UNK         0.0600 
    194 H194       -4.5319  -22.1389  -41.2158 H         1 UNK         0.0600 
    195 H195       -3.4944  -22.7715  -45.1200 H         1 UNK         0.3000 
    196 H196       -5.3834  -25.0833  -45.1385 H         1 UNK         0.0600 
    197 H197       -2.9632  -25.5988  -44.7219 H         1 UNK         0.0600 
    198 H198       -2.5318  -24.8144  -46.2384 H         1 UNK         0.0600 
    199 H199       -3.5162  -26.2735  -46.2448 H         1 UNK         0.0600 
    200 H200       -5.3900  -22.1857  -46.4893 H         1 UNK         0.3000 
    201 H201       -5.9950  -21.1708  -48.3450 H         1 UNK         0.0600 
    202 H202       -7.6977  -22.2482  -49.7862 H         1 UNK         0.0600 
    203 H203       -8.0267  -22.5908  -48.0967 H         1 UNK         0.0600 
    204 H204       -7.3076  -23.8291  -49.1222 H         1 UNK         0.0600 
    205 H205       -3.3635  -22.2063  -48.3318 H         1 UNK         0.3000 
    206 H206       -1.5475  -22.5024  -49.5322 H         1 UNK         0.0600 
    207 H207       -2.4041  -20.5556  -50.9180 H         1 UNK         0.0600 
    208 H208       -3.0688  -21.7224  -52.0661 H         1 UNK         0.0600 
    209 H209       -1.3373  -21.6494  -51.7834 H         1 UNK         0.0600 
    210 H210       -2.8567  -24.6755  -48.8005 H         1 UNK         0.3000 
    211 H211       -3.0957  -26.8648  -48.9790 H         1 UNK         0.0600 
    212 H212       -0.7077  -26.8839  -49.6535 H         1 UNK         0.0600 
    213 H213       -1.5886  -28.1612  -50.4753 H         1 UNK         0.0600 
    214 H214       -1.1517  -26.6978  -51.3462 H         1 UNK         0.0600 
    215 H215       -5.1645  -25.5090  -49.8080 H         1 UNK         0.3000 
    216 H216       -7.0441  -25.3768  -50.9776 H         1 UNK         0.0600 
    217 H217       -8.0185  -27.4384  -51.9215 H         1 UNK         0.0600 
    218 H218       -6.4537  -28.2384  -51.9018 H         1 UNK         0.0600 
    219 H219       -7.2389  -27.7916  -50.3878 H         1 UNK         0.0600 
    220 H220       -5.2732  -23.9020  -52.0867 H         1 UNK         0.3000 
    221 H221       -4.5336  -22.7830  -53.8077 H         1 UNK         0.0600 
    222 H222       -6.0840  -22.4287  -55.6953 H         1 UNK         0.0600 
    223 H223       -6.9876  -23.8801  -55.2747 H         1 UNK         0.0600 
    224 H224       -6.9723  -22.4926  -54.1841 H         1 UNK         0.0600 
    225 H225       -3.0335  -24.9673  -53.5117 H         1 UNK         0.3000 
    226 H226       -2.4003  -25.9370  -56.2840 H         1 UNK         0.0600 
    227 H227       -2.9971  -27.7548  -54.6839 H         1 UNK         0.0600 
    228 H228       -1.3092  -27.8460  -55.1684 H         1 UNK         0.0600 
    229 H229       -1.7341  -27.2120  -53.5838 H         1 UNK         0.0600 
    230 H230       -1.0834  -24.5527  -53.2390 H         1 UNK         0.3000 
    231 H231        1.6290  -24.3292  -54.3396 H         1 UNK         0.0600 
    232 H232        2.1373  -23.4128  -52.1008 H         1 UNK         0.0600 
    233 H233        1.2232  -24.9051  -51.9405 H         1 UNK         0.0600 
    234 H234        0.4286  -23.3517  -51.6943 H         1 UNK         0.0600 
    235 H235       -1.2479  -22.3898  -54.2643 H         1 UNK         0.3000 
    236 H236       -0.1872  -20.2493  -55.7595 H         1 UNK         0.0600 
    237 H237        0.7231  -19.5408  -53.4715 H         1 UNK         0.0600 
    238 H238       -0.4245  -18.3997  -54.1271 H         1 UNK         0.0600 
    239 H239       -0.9255  -19.5107  -52.8594 H         1 UNK         0.0600 
    240 H240       -2.2314  -18.3681  -54.9800 H         1 UNK         0.3000 
    241 H241       -4.5012  -19.4260  -56.3331 H         1 UNK         0.0600 
    242 H242       -5.4106  -20.1927  -52.4894 H         1 UNK         0.3800 
    243 H243       -3.7772  -19.8097  -52.9703 H         1 UNK         0.3800 
    244 H244       -5.5101  -17.1357  -55.8208 H         1 UNK         0.0800 
    245 H245       -4.0154  -17.1406  -56.6980 H         1 UNK         0.0800 
    246 H246       -5.7207  -16.7268  -53.3180 H         1 UNK         0.0800 
    247 H247       -5.6465  -15.0633  -53.8449 H         1 UNK         0.0800 
@<TRIPOS>BOND
     1    1    2 1    
     2    1  127 1    
     3    1  128 1    
     4    1  129 1    
     5    2    3 2    
     6    2    4 am   BACKBONE|DICT|INTERRES
     7    4    5 1    
     8    4  130 1    
     9    5    6 1    
    10    5   65 1    
    11    5  131 1    
    12    6    7 1    
    13    6  132 1    
    14    6  133 1    
    15    7    8 1    
    16    8    9 1    
    17    8  134 1    
    18    8  135 1    
    19    9   10 ar   
    20    9   14 ar   
    21   10   11 ar   
    22   10  136 1    
    23   11   12 ar   
    24   11  126 1    
    25   12   13 ar   
    26   12  137 1    
    27   13   14 ar   
    28   13   15 1    
    29   14  138 1    
    30   15   16 1    
    31   15  139 1    
    32   15  140 1    
    33   16   17 1    
    34   17   18 1    
    35   17  141 1    
    36   17  142 1    
    37   18   19 1    
    38   18   67 1    
    39   18  143 1    
    40   19   20 am   BACKBONE|DICT|INTERRES
    41   19  144 1    
    42   20   21 2    
    43   20   22 1    
    44   22   23 1    
    45   22   24 1    
    46   22  145 1    
    47   23  146 1    
    48   23  147 1    
    49   23  148 1    
    50   24   25 am   BACKBONE|DICT|INTERRES
    51   24  149 1    
    52   25   26 2    
    53   25   27 1    
    54   27   28 1    
    55   27   29 1    
    56   27  150 1    
    57   28  151 1    
    58   28  152 1    
    59   28  153 1    
    60   29   30 am   BACKBONE|DICT|INTERRES
    61   29  154 1    
    62   30   31 2    
    63   30   32 1    
    64   32   33 1    
    65   32   34 1    
    66   32  155 1    
    67   33  156 1    
    68   33  157 1    
    69   33  158 1    
    70   34   35 am   BACKBONE|DICT|INTERRES
    71   34  159 1    
    72   35   36 2    
    73   35   37 1    
    74   37   38 1    
    75   37   39 1    
    76   37  160 1    
    77   38  161 1    
    78   38  162 1    
    79   38  163 1    
    80   39   40 am   BACKBONE|DICT|INTERRES
    81   39  164 1    
    82   40   41 2    
    83   40   42 1    
    84   42   43 1    
    85   42   44 1    
    86   42  165 1    
    87   43  166 1    
    88   43  167 1    
    89   43  168 1    
    90   44   45 am   BACKBONE|DICT|INTERRES
    91   44  169 1    
    92   45   46 2    
    93   45   47 1    
    94   47   48 1    
    95   47   49 1    
    96   47  170 1    
    97   48  171 1    
    98   48  172 1    
    99   48  173 1    
   100   49   50 am   BACKBONE|DICT|INTERRES
   101   49  174 1    
   102   50   51 2    
   103   50   52 1    
   104   52   53 1    
   105   52   54 1    
   106   52  175 1    
   107   53  176 1    
   108   53  177 1    
   109   53  178 1    
   110   54   55 am   BACKBONE|DICT|INTERRES
   111   54  179 1    
   112   55   56 2    
   113   55   57 1    
   114   57   58 1    
   115   57   59 1    
   116   57  180 1    
   117   58  181 1    
   118   58  182 1    
   119   58  183 1    
   120   59   60 am   BACKBONE|DICT|INTERRES
   121   59  184 1    
   122   60   61 2    
   123   60   62 1    
   124   62   63 1    
   125   62   64 1    
   126   62  185 1    
   127   63  186 1    
   128   63  187 1    
   129   63  188 1    
   130   64   65 am   BACKBONE|DICT|INTERRES
   131   64  189 1    
   132   65   66 2    
   133   67   68 2    
   134   67   69 am   BACKBONE|DICT|INTERRES
   135   69   70 1    
   136   69  190 1    
   137   70   71 1    
   138   70   72 1    
   139   70  191 1    
   140   71  192 1    
   141   71  193 1    
   142   71  194 1    
   143   72   73 2    
   144   72   74 am   BACKBONE|DICT|INTERRES
   145   74   75 1    
   146   74  195 1    
   147   75   76 1    
   148   75   77 1    
   149   75  196 1    
   150   76  197 1    
   151   76  198 1    
   152   76  199 1    
   153   77   78 2    
   154   77   79 am   BACKBONE|DICT|INTERRES
   155   79   80 1    
   156   79  200 1    
   157   80   81 1    
   158   80   82 1    
   159   80  201 1    
   160   81  202 1    
   161   81  203 1    
   162   81  204 1    
   163   82   83 2    
   164   82   84 am   BACKBONE|DICT|INTERRES
   165   84   85 1    
   166   84  205 1    
   167   85   86 1    
   168   85   87 1    
   169   85  206 1    
   170   86  207 1    
   171   86  208 1    
   172   86  209 1    
   173   87   88 2    
   174   87   89 am   BACKBONE|DICT|INTERRES
   175   89   90 1    
   176   89  210 1    
   177   90   91 1    
   178   90   92 1    
   179   90  211 1    
   180   91  212 1    
   181   91  213 1    
   182   91  214 1    
   183   92   93 2    
   184   92   94 am   BACKBONE|DICT|INTERRES
   185   94   95 1    
   186   94  215 1    
   187   95   96 1    
   188   95   97 1    
   189   95  216 1    
   190   96  217 1    
   191   96  218 1    
   192   96  219 1    
   193   97   98 2    
   194   97   99 am   BACKBONE|DICT|INTERRES
   195   99  100 1    
   196   99  220 1    
   197  100  101 1    
   198  100  102 1    
   199  100  221 1    
   200  101  222 1    
   201  101  223 1    
   202  101  224 1    
   203  102  103 2    
   204  102  104 am   BACKBONE|DICT|INTERRES
   205  104  105 1    
   206  104  225 1    
   207  105  106 1    
   208  105  107 1    
   209  105  226 1    
   210  106  227 1    
   211  106  228 1    
   212  106  229 1    
   213  107  108 2    
   214  107  109 am   BACKBONE|DICT|INTERRES
   215  109  110 1    
   216  109  230 1    
   217  110  111 1    
   218  110  112 1    
   219  110  231 1    
   220  111  232 1    
   221  111  233 1    
   222  111  234 1    
   223  112  113 2    
   224  112  114 am   BACKBONE|DICT|INTERRES
   225  114  115 1    
   226  114  235 1    
   227  115  116 1    
   228  115  117 1    
   229  115  236 1    
   230  116  237 1    
   231  116  238 1    
   232  116  239 1    
   233  117  118 2    
   234  117  119 am   BACKBONE|DICT|INTERRES
   235  119  120 1    
   236  119  240 1    
   237  120  121 1    
   238  120  124 1    
   239  120  241 1    
   240  121  122 am   BACKBONE|DICT|INTERRES
   241  121  123 2    
   242  122  242 1    
   243  122  243 1    
   244  124  125 1    
   245  124  244 1    
   246  124  245 1    
   247  125  126 1    
   248  126  246 1    
   249  126  247 1    
@<TRIPOS>SUBSTRUCTURE
     1 UNK         1 GROUP             0       ****    0 ROOT    
