@<TRIPOS>MOLECULE
3R540
247   249    1
SMALL
USER_CHARGES


@<TRIPOS>ATOM
      1 CA          6.0831  -14.4065  -44.8164 C.3       0 UNK        -0.1800 
      2 C           5.0566  -13.5304  -45.5212 C.2       0 UNK         0.5000 
      3 O           4.6259  -12.5181  -44.9663 O.2       0 UNK        -0.5000 
      4 N           4.6610  -13.9152  -46.7408 N.am      1 UNK        -0.5000 
      5 CA          3.7306  -13.1687  -47.5933 C.3       1 UNK         0.1400 
      6 C6          3.3643  -13.9588  -48.8725 C.3       23 UNK        -0.0398 
      7 S7          2.3915  -15.4587  -48.5289 S.3       23 UNK        -0.2404 
      8 C8          1.6805  -15.7352  -50.1811 C.3       23 UNK        -0.0205 
      9 C9          0.7383  -16.9250  -50.1827 C.ar      23 UNK        -0.0193 
     10 C10        -0.6173  -16.7444  -49.9003 C.ar      23 UNK        -0.1150 
     11 C11        -1.4886  -17.8363  -49.8749 C.ar      23 UNK        -0.0193 
     12 C12        -0.9915  -19.1173  -50.1316 C.ar      23 UNK        -0.1150 
     13 C13         0.3615  -19.3095  -50.4283 C.ar      23 UNK        -0.0193 
     14 C14         1.2198  -18.2063  -50.4610 C.ar      23 UNK        -0.1150 
     15 C15         0.8949  -20.7122  -50.6917 C.3       23 UNK        -0.0205 
     16 S16         2.2603  -21.1846  -49.5731 S.3       23 UNK        -0.2404 
     17 C17         1.5506  -20.8596  -47.9207 C.3       23 UNK        -0.0398 
     18 CA          0.9896  -22.1113  -47.2101 C.3       11 UNK         0.1400 
     19 N           0.6920  -21.8310  -45.8055 N.am      11 UNK        -0.5000 
     20 C           0.3364  -22.7434  -44.8921 C.2       10 UNK         0.5000 
     21 O           0.2778  -23.9513  -45.1174 O.2       10 UNK        -0.5000 
     22 CA         -0.0693  -22.2114  -43.5065 C.3       10 UNK         0.1400 
     23 CB          1.1714  -21.9355  -42.6447 C.3       10 UNK        -0.1800 
     24 N          -0.8984  -21.0068  -43.5866 N.am      10 UNK        -0.5000 
     25 C          -2.1157  -20.9631  -44.1480 C.2       9 UNK         0.5000 
     26 O          -2.6842  -21.9475  -44.6197 O.2       9 UNK        -0.5000 
     27 CA         -2.7977  -19.5860  -44.2381 C.3       9 UNK         0.1400 
     28 CB         -3.4161  -19.1929  -42.8885 C.3       9 UNK        -0.1800 
     29 N          -1.8920  -18.5309  -44.6939 N.am      9 UNK        -0.5000 
     30 C          -1.2975  -18.5050  -45.8955 C.2       8 UNK         0.5000 
     31 O          -1.4773  -19.3608  -46.7616 O.2       8 UNK        -0.5000 
     32 CA         -0.2892  -17.3663  -46.1458 C.3       8 UNK         0.1400 
     33 CB         -1.0052  -16.0411  -46.4466 C.3       8 UNK        -0.1800 
     34 N           0.6243  -17.1762  -45.0190 N.am      8 UNK        -0.5000 
     35 C           1.4809  -18.1044  -44.5700 C.2       7 UNK         0.5000 
     36 O           1.6399  -19.2056  -45.0944 O.2       7 UNK        -0.5000 
     37 CA          2.2427  -17.7672  -43.2793 C.3       7 UNK         0.1400 
     38 CB          3.4601  -16.8794  -43.5788 C.3       7 UNK        -0.1800 
     39 N           1.3718  -17.1209  -42.2953 N.am      7 UNK        -0.5000 
     40 C           0.3804  -17.7508  -41.6459 C.2       6 UNK         0.5000 
     41 O           0.1258  -18.9461  -41.7861 O.2       6 UNK        -0.5000 
     42 CA         -0.5006  -16.8995  -40.7129 C.3       6 UNK         0.1400 
     43 CB          0.1439  -16.7783  -39.3243 C.3       6 UNK        -0.1800 
     44 N          -0.7609  -15.5619  -41.2438 N.am      6 UNK        -0.5000 
     45 C          -1.4609  -15.3047  -42.3584 C.2       5 UNK         0.5000 
     46 O          -2.0180  -16.1727  -43.0283 O.2       5 UNK        -0.5000 
     47 CA         -1.4975  -13.8376  -42.8306 C.3       5 UNK         0.1400 
     48 CB         -2.7209  -13.1135  -42.2505 C.3       5 UNK        -0.1800 
     49 N          -0.2824  -13.0966  -42.4796 N.am      5 UNK        -0.5000 
     50 C           0.9421  -13.3954  -42.9310 C.2       4 UNK         0.5000 
     51 O           1.1684  -14.2891  -43.7501 O.2       4 UNK        -0.5000 
     52 CA          2.1009  -12.5852  -42.3337 C.3       4 UNK         0.1400 
     53 CB          3.3003  -13.4802  -41.9847 C.3       4 UNK        -0.1800 
     54 N           2.5180  -11.5460  -43.2679 N.am      4 UNK        -0.5000 
     55 C           1.9787  -10.3218  -43.3076 C.2       3 UNK         0.5000 
     56 O           1.0696   -9.9517  -42.5625 O.2       3 UNK        -0.5000 
     57 CA          2.5561   -9.3377  -44.3394 C.3       3 UNK         0.1400 
     58 CB          3.9134   -8.7925  -43.8679 C.3       3 UNK        -0.1800 
     59 N           2.7046   -9.8983  -45.6823 N.am      3 UNK        -0.5000 
     60 C           1.6969  -10.2848  -46.4776 C.2       2 UNK         0.5000 
     61 O           0.5180  -10.3046  -46.1242 O.2       2 UNK        -0.5000 
     62 CA          2.0520  -10.6743  -47.9288 C.3       2 UNK         0.1400 
     63 CB          1.4583   -9.6513  -48.9107 C.3       2 UNK        -0.1800 
     64 N           3.5000  -10.7395  -48.1626 N.am      2 UNK        -0.5000 
     65 C           4.3154  -11.7905  -47.9955 C.2       1 UNK         0.5000 
     66 O           5.5257  -11.6905  -48.2025 O.2       1 UNK        -0.5000 
     67 C          -0.2351  -22.7002  -47.9398 C.2       11 UNK         0.5000 
     68 O          -0.1025  -23.7301  -48.5995 O.2       11 UNK        -0.5000 
     69 N          -1.4108  -22.0748  -47.7767 N.am      12 UNK        -0.5000 
     70 CA         -2.6775  -22.5557  -48.3321 C.3       12 UNK         0.1400 
     71 CB         -3.7843  -21.5215  -48.0899 C.3       12 UNK        -0.1800 
     72 C          -3.0893  -23.9356  -47.7881 C.2       12 UNK         0.5000 
     73 O          -3.5509  -24.7733  -48.5632 O.2       12 UNK        -0.5000 
     74 N          -2.8813  -24.1634  -46.4838 N.am      13 UNK        -0.5000 
     75 CA         -3.1036  -25.4490  -45.8223 C.3       13 UNK         0.1400 
     76 CB         -2.9795  -25.2830  -44.3004 C.3       13 UNK        -0.1800 
     77 C          -2.1577  -26.5479  -46.3396 C.2       13 UNK         0.5000 
     78 O          -2.6230  -27.6439  -46.6524 O.2       13 UNK        -0.5000 
     79 N          -0.8624  -26.2260  -46.4718 N.am      14 UNK        -0.5000 
     80 CA          0.1667  -27.1079  -47.0321 C.3       14 UNK         0.1400 
     81 CB          1.5503  -26.4672  -46.8458 C.3       14 UNK        -0.1800 
     82 C          -0.0782  -27.4541  -48.5135 C.2       14 UNK         0.5000 
     83 O           0.1691  -28.5883  -48.9239 O.2       14 UNK        -0.5000 
     84 N          -0.6021  -26.4846  -49.2746 N.am      15 UNK        -0.5000 
     85 CA         -1.0418  -26.6383  -50.6615 C.3       15 UNK         0.1400 
     86 CB         -1.1440  -25.2441  -51.3051 C.3       15 UNK        -0.1800 
     87 C          -2.3791  -27.3943  -50.8081 C.2       15 UNK         0.5000 
     88 O          -2.7879  -27.6546  -51.9384 O.2       15 UNK        -0.5000 
     89 N          -3.0586  -27.7032  -49.6924 N.am      16 UNK        -0.5000 
     90 CA         -4.3775  -28.3411  -49.6084 C.3       16 UNK         0.1400 
     91 CB         -4.3089  -29.8067  -50.0855 C.3       16 UNK        -0.1800 
     92 C          -5.4741  -27.5183  -50.3186 C.2       16 UNK         0.5000 
     93 O          -6.3144  -28.0756  -51.0264 O.2       16 UNK        -0.5000 
     94 N          -5.4136  -26.1927  -50.1263 N.am      17 UNK        -0.5000 
     95 CA         -6.2773  -25.1490  -50.6855 C.3       17 UNK         0.1400 
     96 CB         -7.7541  -25.3664  -50.2965 C.3       17 UNK        -0.1800 
     97 C          -6.0987  -24.9037  -52.1987 C.2       17 UNK         0.5000 
     98 O          -6.8475  -24.1035  -52.7616 O.2       17 UNK        -0.5000 
     99 N          -5.0897  -25.5231  -52.8343 N.am      18 UNK        -0.5000 
    100 CA        -4.7781  -25.3602  -54.2621 C.3       18 UNK         0.1400 
    101 CB        -3.7453  -26.4119  -54.6912 C.3       18 UNK        -0.1800 
    102 C         -4.2962  -23.9453  -54.6452 C.2       18 UNK         0.5000 
    103 O         -4.3281  -23.5961  -55.8257 O.2       18 UNK        -0.5000 
    104 N         -3.8905  -23.1475  -53.6459 N.am      19 UNK        -0.5000 
    105 CA        -3.5935  -21.7194  -53.7753 C.3       19 UNK         0.1400 
    106 CB        -2.9415  -21.2271  -52.4735 C.3       19 UNK        -0.1800 
    107 C         -4.8367  -20.8687  -54.1181 C.2       19 UNK         0.5000 
    108 O         -4.6832  -19.7883  -54.6896 O.2       19 UNK        -0.5000 
    109 N         -6.0361  -21.3787  -53.7896 N.am      20 UNK        -0.5000 
    110 CA        -7.3561  -20.8108  -54.0690 C.3       20 UNK         0.1400 
    111 CB        -7.6754  -20.9334  -55.5762 C.3       20 UNK        -0.1800 
    112 C         -7.5068  -19.3836  -53.5028 C.2       20 UNK         0.5000 
    113 O         -7.5286  -19.2197  -52.2823 O.2       20 UNK        -0.5000 
    114 N         -7.6032  -18.3846  -54.3893 N.am      21 UNK        -0.5000 
    115 CA        -7.6984  -16.9637  -54.0520 C.3       21 UNK         0.1400 
    116 CB        -8.2817  -16.2142  -55.2610 C.3       21 UNK        -0.1800 
    117 C         -6.3559  -16.3354  -53.6224 C.2       21 UNK         0.5000 
    118 O         -6.3641  -15.2146  -53.1116 O.2       21 UNK        -0.5000 
    119 N         -5.2384  -17.0430  -53.8459 N.am      22 UNK        -0.5000 
    120 CA        -3.8600  -16.6322  -53.5189 C.3       22 UNK         0.1400 
    121 C         -3.3098  -15.4568  -54.3859 C.2       22 UNK         0.5000 
    122 N         -3.9188  -15.1284  -55.5191 N.am      22 UNK        -0.7600 
    123 O         -2.2971  -14.8487  -54.0497 O.2       22 UNK        -0.5000 
    124 C124       -3.6295  -16.4108  -51.9968 C.3       23 UNK        -0.0398 
    125 S125       -4.0326  -17.8853  -50.9962 S.3       23 UNK        -0.2404 
    126 C126       -2.9609  -17.6340  -49.5471 C.3       23 UNK        -0.0205 
    127 H127        5.7014  -14.7426  -43.8533 H         1 UNK         0.0600 
    128 H128        6.9979  -13.8408  -44.6411 H         1 UNK         0.0600 
    129 H129        6.3355  -15.2882  -45.4059 H         1 UNK         0.0600 
    130 H130        5.0520  -14.7510  -47.1499 H         1 UNK         0.3000 
    131 H131        2.8316  -13.0268  -46.9927 H         1 UNK         0.0600 
    132 H132        2.7797  -13.3327  -49.5493 H         1 UNK         0.0800 
    133 H133        4.2630  -14.2426  -49.4234 H         1 UNK         0.0800 
    134 H134        2.4849  -15.8930  -50.9014 H         1 UNK         0.0800 
    135 H135        1.1449  -14.8417  -50.5058 H         1 UNK         0.0800 
    136 H136       -0.9903  -15.7522  -49.6891 H         1 UNK         0.1150 
    137 H137       -1.6623  -19.9634  -50.0945 H         1 UNK         0.1150 
    138 H138        2.2688  -18.3500  -50.6789 H         1 UNK         0.1150 
    139 H139        0.0974  -21.4518  -50.6083 H         1 UNK         0.0800 
    140 H140        1.2505  -20.7648  -51.7213 H         1 UNK         0.0800 
    141 H141        0.8011  -20.0703  -47.9632 H         1 UNK         0.0800 
    142 H142        2.3642  -20.4469  -47.3233 H         1 UNK         0.0800 
    143 H143        1.7694  -22.8758  -47.2183 H         1 UNK         0.0600 
    144 H144        0.7644  -20.8586  -45.5182 H         1 UNK         0.3000 
    145 H145       -0.6577  -22.9876  -43.0132 H         1 UNK         0.0600 
    146 H146        0.8905  -21.6461  -41.6320 H         1 UNK         0.0600 
    147 H147        1.7987  -22.8243  -42.5665 H         1 UNK         0.0600 
    148 H148        1.7834  -21.1363  -43.0633 H         1 UNK         0.0600 
    149 H149       -0.5140  -20.1627  -43.1722 H         1 UNK         0.3000 
    150 H150       -3.6049  -19.6652  -44.9690 H         1 UNK         0.0600 
    151 H151       -4.1116  -19.9574  -42.5400 H         1 UNK         0.0600 
    152 H152       -3.9722  -18.2587  -42.9675 H         1 UNK         0.0600 
    153 H153       -2.6553  -19.0646  -42.1184 H         1 UNK         0.0600 
    154 H154       -1.7340  -17.7593  -44.0515 H         1 UNK         0.3000 
    155 H155        0.3070  -17.6372  -47.0201 H         1 UNK         0.0600 
    156 H156       -1.5712  -15.6808  -45.5890 H         1 UNK         0.0600 
    157 H157       -1.7080  -16.1540  -47.2703 H         1 UNK         0.0600 
    158 H158       -0.2932  -15.2651  -46.7284 H         1 UNK         0.0600 
    159 H159        0.5825  -16.2858  -44.5381 H         1 UNK         0.3000 
    160 H160        2.6064  -18.7020  -42.8474 H         1 UNK         0.0600 
    161 H161        3.1768  -15.9612  -44.0929 H         1 UNK         0.0600 
    162 H162        4.1688  -17.4017  -44.2225 H         1 UNK         0.0600 
    163 H163        3.9894  -16.6084  -42.6654 H         1 UNK         0.0600 
    164 H164        1.4797  -16.1245  -42.1783 H         1 UNK         0.3000 
    165 H165       -1.4590  -17.4107  -40.6016 H         1 UNK         0.0600 
    166 H166       -0.5072  -16.2436  -38.6325 H         1 UNK         0.0600 
    167 H167        0.3327  -17.7634  -38.8951 H         1 UNK         0.0600 
    168 H168        1.0973  -16.2500  -39.3656 H         1 UNK         0.0600 
    169 H169       -0.3474  -14.7864  -40.7482 H         1 UNK         0.3000 
    170 H170       -1.5853  -13.8415  -43.9188 H         1 UNK         0.0600 
    171 H171       -3.6431  -13.6320  -42.5165 H         1 UNK         0.0600 
    172 H172       -2.6781  -13.0570  -41.1621 H         1 UNK         0.0600 
    173 H173       -2.7978  -12.0972  -42.6375 H         1 UNK         0.0600 
    174 H174       -0.3919  -12.3217  -41.8403 H         1 UNK         0.3000 
    175 H175        1.7657  -12.1280  -41.4000 H         1 UNK         0.0600 
    176 H176        3.6975  -13.9813  -42.8646 H         1 UNK         0.0600 
    177 H177        4.1085  -12.8998  -41.5398 H         1 UNK         0.0600 
    178 H178        3.0181  -14.2515  -41.2672 H         1 UNK         0.0600 
    179 H179        3.2464  -11.7982  -43.9332 H         1 UNK         0.3000 
    180 H180        1.8638   -8.4960  -44.4099 H         1 UNK         0.0600 
    181 H181        4.6698   -9.5776  -43.8259 H         1 UNK         0.0600 
    182 H182        3.8353   -8.3574  -42.8706 H         1 UNK         0.0600 
    183 H183        4.2778   -8.0107  -44.5345 H         1 UNK         0.0600 
    184 H184        3.6448   -9.9468  -46.0468 H         1 UNK         0.3000 
    185 H185        1.5801  -11.6332  -48.1458 H         1 UNK         0.0600 
    186 H186        1.6669   -9.9294  -49.9440 H         1 UNK         0.0600 
    187 H187        0.3741   -9.5897  -48.8069 H         1 UNK         0.0600 
    188 H188        1.8607   -8.6512  -48.7444 H         1 UNK         0.0600 
    189 H189        3.9188   -9.8689  -48.4564 H         1 UNK         0.3000 
    190 H190       -1.4426  -21.2068  -47.2470 H         1 UNK         0.3000 
    191 H191       -2.5452  -22.6565  -49.4111 H         1 UNK         0.0600 
    192 H192       -3.9148  -21.3099  -47.0284 H         1 UNK         0.0600 
    193 H193       -4.7414  -21.8722  -48.4779 H         1 UNK         0.0600 
    194 H194       -3.5570  -20.5839  -48.5933 H         1 UNK         0.0600 
    195 H195       -2.5572  -23.3980  -45.8989 H         1 UNK         0.3000 
    196 H196       -4.1262  -25.7621  -46.0432 H         1 UNK         0.0600 
    197 H197       -3.1698  -26.2268  -43.7881 H         1 UNK         0.0600 
    198 H198       -3.7004  -24.5570  -43.9240 H         1 UNK         0.0600 
    199 H199       -1.9849  -24.9462  -44.0092 H         1 UNK         0.0600 
    200 H200       -0.5490  -25.3120  -46.1539 H         1 UNK         0.3000 
    201 H201        0.1462  -28.0421  -46.4674 H         1 UNK         0.0600 
    202 H202        1.7660  -26.2958  -45.7911 H         1 UNK         0.0600 
    203 H203        1.6229  -25.5092  -47.3614 H         1 UNK         0.0600 
    204 H204        2.3369  -27.1129  -47.2383 H         1 UNK         0.0600 
    205 H205       -0.6923  -25.5539  -48.8757 H         1 UNK         0.3000 
    206 H206       -0.2849  -27.2092  -51.2028 H         1 UNK         0.0600 
    207 H207       -0.1950  -24.7109  -51.2446 H         1 UNK         0.0600 
    208 H208       -1.4071  -25.3135  -52.3609 H         1 UNK         0.0600 
    209 H209       -1.9025  -24.6317  -50.8176 H         1 UNK         0.0600 
    210 H210       -2.6552  -27.4356  -48.8028 H         1 UNK         0.3000 
    211 H211       -4.6442  -28.3520  -48.5508 H         1 UNK         0.0600 
    212 H212       -4.0984  -29.8781  -51.1530 H         1 UNK         0.0600 
    213 H213       -5.2534  -30.3207  -49.9040 H         1 UNK         0.0600 
    214 H214       -3.5332  -30.3571  -49.5531 H         1 UNK         0.0600 
    215 H215       -4.6623  -25.8358  -49.5362 H         1 UNK         0.3000 
    216 H216       -5.9535  -24.2252  -50.2040 H         1 UNK         0.0600 
    217 H217       -8.3586  -24.4969  -50.5572 H         1 UNK         0.0600 
    218 H218       -7.8607  -25.5227  -49.2231 H         1 UNK         0.0600 
    219 H219       -8.1884  -26.2259  -50.8074 H         1 UNK         0.0600 
    220 H220       -4.5156  -26.1796  -52.3201 H         1 UNK         0.3000 
    221 H221       -5.6977  -25.5468  -54.8205 H         1 UNK         0.0600 
    222 H222       -2.7816  -26.2492  -54.2086 H         1 UNK         0.0600 
    223 H223       -4.0805  -27.4201  -54.4466 H         1 UNK         0.0600 
    224 H224       -3.5789  -26.3783  -55.7686 H         1 UNK         0.0600 
    225 H225       -3.8815  -23.5301  -52.7131 H         1 UNK         0.3000 
    226 H226       -2.8747  -21.5954  -54.5878 H         1 UNK         0.0600 
    227 H227       -2.0432  -21.7981  -52.2377 H         1 UNK         0.0600 
    228 H228       -2.6451  -20.1811  -52.5617 H         1 UNK         0.0600 
    229 H229       -3.6229  -21.3036  -51.6251 H         1 UNK         0.0600 
    230 H230       -6.0602  -22.2801  -53.3265 H         1 UNK         0.3000 
    231 H231       -8.0763  -21.4289  -53.5307 H         1 UNK         0.0600 
    232 H232       -7.6457  -21.9766  -55.8917 H         1 UNK         0.0600 
    233 H233       -6.9657  -20.3856  -56.1971 H         1 UNK         0.0600 
    234 H234       -8.6760  -20.5612  -55.7999 H         1 UNK         0.0600 
    235 H235       -7.5573  -18.6121  -55.3719 H         1 UNK         0.3000 
    236 H236       -8.3913  -16.8510  -53.2154 H         1 UNK         0.0600 
    237 H237       -8.4056  -15.1528  -55.0422 H         1 UNK         0.0600 
    238 H238       -7.6352  -16.2957  -56.1355 H         1 UNK         0.0600 
    239 H239       -9.2633  -16.6042  -55.5308 H         1 UNK         0.0600 
    240 H240       -5.3172  -17.9691  -54.2547 H         1 UNK         0.3000 
    241 H241       -3.2401  -17.4819  -53.8066 H         1 UNK         0.0600 
    242 H242       -3.5526  -14.3753  -56.0802 H         1 UNK         0.3800 
    243 H243       -4.7417  -15.6254  -55.8197 H         1 UNK         0.3800 
    244 H244       -4.2136  -15.5663  -51.6301 H         1 UNK         0.0800 
    245 H245       -2.5859  -16.1523  -51.8182 H         1 UNK         0.0800 
    246 H246       -3.2509  -18.3276  -48.7584 H         1 UNK         0.0800 
    247 H247       -3.1387  -16.6348  -49.1477 H         1 UNK         0.0800 
@<TRIPOS>BOND
     1    1    2 1    
     2    1  127 1    
     3    1  128 1    
     4    1  129 1    
     5    2    3 2    
     6    2    4 am   BACKBONE|DICT|INTERRES
     7    4    5 1    
     8    4  130 1    
     9    5    6 1    
    10    5   65 1    
    11    5  131 1    
    12    6    7 1    
    13    6  132 1    
    14    6  133 1    
    15    7    8 1    
    16    8    9 1    
    17    8  134 1    
    18    8  135 1    
    19    9   10 ar   
    20    9   14 ar   
    21   10   11 ar   
    22   10  136 1    
    23   11   12 ar   
    24   11  126 1    
    25   12   13 ar   
    26   12  137 1    
    27   13   14 ar   
    28   13   15 1    
    29   14  138 1    
    30   15   16 1    
    31   15  139 1    
    32   15  140 1    
    33   16   17 1    
    34   17   18 1    
    35   17  141 1    
    36   17  142 1    
    37   18   19 1    
    38   18   67 1    
    39   18  143 1    
    40   19   20 am   BACKBONE|DICT|INTERRES
    41   19  144 1    
    42   20   21 2    
    43   20   22 1    
    44   22   23 1    
    45   22   24 1    
    46   22  145 1    
    47   23  146 1    
    48   23  147 1    
    49   23  148 1    
    50   24   25 am   BACKBONE|DICT|INTERRES
    51   24  149 1    
    52   25   26 2    
    53   25   27 1    
    54   27   28 1    
    55   27   29 1    
    56   27  150 1    
    57   28  151 1    
    58   28  152 1    
    59   28  153 1    
    60   29   30 am   BACKBONE|DICT|INTERRES
    61   29  154 1    
    62   30   31 2    
    63   30   32 1    
    64   32   33 1    
    65   32   34 1    
    66   32  155 1    
    67   33  156 1    
    68   33  157 1    
    69   33  158 1    
    70   34   35 am   BACKBONE|DICT|INTERRES
    71   34  159 1    
    72   35   36 2    
    73   35   37 1    
    74   37   38 1    
    75   37   39 1    
    76   37  160 1    
    77   38  161 1    
    78   38  162 1    
    79   38  163 1    
    80   39   40 am   BACKBONE|DICT|INTERRES
    81   39  164 1    
    82   40   41 2    
    83   40   42 1    
    84   42   43 1    
    85   42   44 1    
    86   42  165 1    
    87   43  166 1    
    88   43  167 1    
    89   43  168 1    
    90   44   45 am   BACKBONE|DICT|INTERRES
    91   44  169 1    
    92   45   46 2    
    93   45   47 1    
    94   47   48 1    
    95   47   49 1    
    96   47  170 1    
    97   48  171 1    
    98   48  172 1    
    99   48  173 1    
   100   49   50 am   BACKBONE|DICT|INTERRES
   101   49  174 1    
   102   50   51 2    
   103   50   52 1    
   104   52   53 1    
   105   52   54 1    
   106   52  175 1    
   107   53  176 1    
   108   53  177 1    
   109   53  178 1    
   110   54   55 am   BACKBONE|DICT|INTERRES
   111   54  179 1    
   112   55   56 2    
   113   55   57 1    
   114   57   58 1    
   115   57   59 1    
   116   57  180 1    
   117   58  181 1    
   118   58  182 1    
   119   58  183 1    
   120   59   60 am   BACKBONE|DICT|INTERRES
   121   59  184 1    
   122   60   61 2    
   123   60   62 1    
   124   62   63 1    
   125   62   64 1    
   126   62  185 1    
   127   63  186 1    
   128   63  187 1    
   129   63  188 1    
   130   64   65 am   BACKBONE|DICT|INTERRES
   131   64  189 1    
   132   65   66 2    
   133   67   68 2    
   134   67   69 am   BACKBONE|DICT|INTERRES
   135   69   70 1    
   136   69  190 1    
   137   70   71 1    
   138   70   72 1    
   139   70  191 1    
   140   71  192 1    
   141   71  193 1    
   142   71  194 1    
   143   72   73 2    
   144   72   74 am   BACKBONE|DICT|INTERRES
   145   74   75 1    
   146   74  195 1    
   147   75   76 1    
   148   75   77 1    
   149   75  196 1    
   150   76  197 1    
   151   76  198 1    
   152   76  199 1    
   153   77   78 2    
   154   77   79 am   BACKBONE|DICT|INTERRES
   155   79   80 1    
   156   79  200 1    
   157   80   81 1    
   158   80   82 1    
   159   80  201 1    
   160   81  202 1    
   161   81  203 1    
   162   81  204 1    
   163   82   83 2    
   164   82   84 am   BACKBONE|DICT|INTERRES
   165   84   85 1    
   166   84  205 1    
   167   85   86 1    
   168   85   87 1    
   169   85  206 1    
   170   86  207 1    
   171   86  208 1    
   172   86  209 1    
   173   87   88 2    
   174   87   89 am   BACKBONE|DICT|INTERRES
   175   89   90 1    
   176   89  210 1    
   177   90   91 1    
   178   90   92 1    
   179   90  211 1    
   180   91  212 1    
   181   91  213 1    
   182   91  214 1    
   183   92   93 2    
   184   92   94 am   BACKBONE|DICT|INTERRES
   185   94   95 1    
   186   94  215 1    
   187   95   96 1    
   188   95   97 1    
   189   95  216 1    
   190   96  217 1    
   191   96  218 1    
   192   96  219 1    
   193   97   98 2    
   194   97   99 am   BACKBONE|DICT|INTERRES
   195   99  100 1    
   196   99  220 1    
   197  100  101 1    
   198  100  102 1    
   199  100  221 1    
   200  101  222 1    
   201  101  223 1    
   202  101  224 1    
   203  102  103 2    
   204  102  104 am   BACKBONE|DICT|INTERRES
   205  104  105 1    
   206  104  225 1    
   207  105  106 1    
   208  105  107 1    
   209  105  226 1    
   210  106  227 1    
   211  106  228 1    
   212  106  229 1    
   213  107  108 2    
   214  107  109 am   BACKBONE|DICT|INTERRES
   215  109  110 1    
   216  109  230 1    
   217  110  111 1    
   218  110  112 1    
   219  110  231 1    
   220  111  232 1    
   221  111  233 1    
   222  111  234 1    
   223  112  113 2    
   224  112  114 am   BACKBONE|DICT|INTERRES
   225  114  115 1    
   226  114  235 1    
   227  115  116 1    
   228  115  117 1    
   229  115  236 1    
   230  116  237 1    
   231  116  238 1    
   232  116  239 1    
   233  117  118 2    
   234  117  119 am   BACKBONE|DICT|INTERRES
   235  119  120 1    
   236  119  240 1    
   237  120  121 1    
   238  120  124 1    
   239  120  241 1    
   240  121  122 am   BACKBONE|DICT|INTERRES
   241  121  123 2    
   242  122  242 1    
   243  122  243 1    
   244  124  125 1    
   245  124  244 1    
   246  124  245 1    
   247  125  126 1    
   248  126  246 1    
   249  126  247 1    
@<TRIPOS>SUBSTRUCTURE
     1 UNK         1 GROUP             0       ****    0 ROOT    
