@<TRIPOS>MOLECULE
3R540
247   249    1
SMALL
USER_CHARGES


@<TRIPOS>ATOM
      1 CA         -0.6368  -12.1171  -43.0565 C.3       0 UNK        -0.1800 
      2 C          -0.4513  -13.5843  -43.4378 C.2       0 UNK         0.5000 
      3 O          -0.4260  -14.4328  -42.5503 O.2       0 UNK        -0.5000 
      4 N          -0.3201  -13.9439  -44.7243 N.am      1 UNK        -0.5000 
      5 CA         -0.1558  -13.0574  -45.8838 C.3       1 UNK         0.1400 
      6 C6         -0.3924  -13.8159  -47.2211 C.3       23 UNK        -0.0398 
      7 S7          0.9522  -14.9396  -47.7490 S.3       23 UNK        -0.2404 
      8 C8          0.2861  -16.5829  -47.3450 C.3       23 UNK        -0.0205 
      9 C9         -0.7383  -17.0664  -48.3592 C.ar      23 UNK        -0.0193 
     10 C10        -0.3220  -17.5546  -49.6004 C.ar      23 UNK        -0.1150 
     11 C11        -1.2554  -18.0124  -50.5352 C.ar      23 UNK        -0.0193 
     12 C12        -2.6177  -17.9877  -50.2153 C.ar      23 UNK        -0.1150 
     13 C13        -3.0464  -17.5049  -48.9744 C.ar      23 UNK        -0.0193 
     14 C14        -2.1010  -17.0437  -48.0530 C.ar      23 UNK        -0.1150 
     15 C15        -4.5307  -17.4513  -48.6316 C.3       23 UNK        -0.0205 
     16 S16        -5.2422  -19.0863  -48.2504 S.3       23 UNK        -0.2404 
     17 C17        -4.1361  -19.7047  -46.9342 C.3       23 UNK        -0.0398 
     18 CA         -3.2395  -20.8488  -47.4668 C.3       11 UNK         0.1400 
     19 N          -1.8961  -20.8574  -46.8876 N.am      11 UNK        -0.5000 
     20 C          -0.8854  -21.5886  -47.3831 C.2       10 UNK         0.5000 
     21 O          -0.9933  -22.2936  -48.3862 O.2       10 UNK        -0.5000 
     22 CA          0.4480  -21.5894  -46.6155 C.3       10 UNK         0.1400 
     23 CB          1.4275  -20.6012  -47.2616 C.3       10 UNK        -0.1800 
     24 N           0.2938  -21.2780  -45.1940 N.am      10 UNK        -0.5000 
     25 C          -0.3639  -22.0455  -44.3103 C.2       9 UNK         0.5000 
     26 O          -0.8611  -23.1357  -44.5977 O.2       9 UNK        -0.5000 
     27 CA         -0.5684  -21.4693  -42.8925 C.3       9 UNK         0.1400 
     28 CB          0.5737  -21.9095  -41.9658 C.3       9 UNK        -0.1800 
     29 N          -0.6737  -20.0068  -42.8653 N.am      9 UNK        -0.5000 
     30 C          -1.5784  -19.2891  -43.5461 C.2       8 UNK         0.5000 
     31 O          -2.4998  -19.7970  -44.1851 O.2       8 UNK        -0.5000 
     32 CA         -1.4084  -17.7569  -43.5819 C.3       8 UNK         0.1400 
     33 CB         -2.3930  -17.1025  -42.6007 C.3       8 UNK        -0.1800 
     34 N          -0.0544  -17.2368  -43.3335 N.am      8 UNK        -0.5000 
     35 C           1.0902  -17.6272  -43.9192 C.2       7 UNK         0.5000 
     36 O           1.1527  -18.5505  -44.7296 O.2       7 UNK        -0.5000 
     37 CA          2.3855  -16.8621  -43.5748 C.3       7 UNK         0.1400 
     38 CB          2.8955  -16.1065  -44.8106 C.3       7 UNK        -0.1800 
     39 N           2.2581  -15.9226  -42.4568 N.am      7 UNK        -0.5000 
     40 C           2.1476  -16.2778  -41.1698 C.2       6 UNK         0.5000 
     41 O           2.1731  -17.4485  -40.7867 O.2       6 UNK        -0.5000 
     42 CA          2.0144  -15.1270  -40.1577 C.3       6 UNK         0.1400 
     43 CB          1.9919  -15.6073  -38.6922 C.3       6 UNK        -0.1800 
     44 N           3.1031  -14.1721  -40.3565 N.am      6 UNK        -0.5000 
     45 C           3.0672  -12.8749  -40.0236 C.2       5 UNK         0.5000 
     46 O           2.0782  -12.3186  -39.5451 O.2       5 UNK        -0.5000 
     47 CA          4.3580  -12.0604  -40.2458 C.3       5 UNK         0.1400 
     48 CB          5.1828  -12.0034  -38.9503 C.3       5 UNK        -0.1800 
     49 N           5.1938  -12.6066  -41.3181 N.am      5 UNK        -0.5000 
     50 C           4.9532  -12.4224  -42.6222 C.2       4 UNK         0.5000 
     51 O           4.0607  -11.6869  -43.0465 O.2       4 UNK        -0.5000 
     52 CA          5.8596  -13.1830  -43.6058 C.3       4 UNK         0.1400 
     53 CB          6.1294  -14.6368  -43.1564 C.3       4 UNK        -0.1800 
     54 N           5.2638  -13.1571  -44.9418 N.am      4 UNK        -0.5000 
     55 C           5.9393  -13.3149  -46.0886 C.2       3 UNK         0.5000 
     56 O           7.1459  -13.5592  -46.1355 O.2       3 UNK        -0.5000 
     57 CA          5.1588  -13.1721  -47.4139 C.3       3 UNK         0.1400 
     58 CB          4.7841  -14.5556  -47.9673 C.3       3 UNK        -0.1800 
     59 N           3.9441  -12.3645  -47.3054 N.am      3 UNK        -0.5000 
     60 C           3.9045  -11.0554  -47.0234 C.2       2 UNK         0.5000 
     61 O           4.9145  -10.3564  -46.9284 O.2       2 UNK        -0.5000 
     62 CA          2.5183  -10.4052  -46.8015 C.3       2 UNK         0.1400 
     63 CB          2.2340   -9.3597  -47.8926 C.3       2 UNK        -0.1800 
     64 N           1.3676  -11.3176  -46.7257 N.am      2 UNK        -0.5000 
     65 C           1.2003  -12.3109  -45.8423 C.2       1 UNK         0.5000 
     66 O           2.0694  -12.6562  -45.0400 O.2       1 UNK        -0.5000 
     67 C          -3.9278  -22.2217  -47.3301 C.2       11 UNK         0.5000 
     68 O          -4.6434  -22.6375  -48.2391 O.2       11 UNK        -0.5000 
     69 N          -3.6659  -22.9227  -46.2204 N.am      12 UNK        -0.5000 
     70 CA         -4.1036  -24.2981  -46.0134 C.3       12 UNK         0.1400 
     71 CB         -4.1869  -24.5882  -44.5064 C.3       12 UNK        -0.1800 
     72 C          -3.1623  -25.2887  -46.7183 C.2       12 UNK         0.5000 
     73 O          -3.6342  -26.1488  -47.4618 O.2       12 UNK        -0.5000 
     74 N          -1.8536  -25.1555  -46.4597 N.am      13 UNK        -0.5000 
     75 CA         -0.8359  -26.1301  -46.8525 C.3       13 UNK         0.1400 
     76 CB          0.4511  -25.8676  -46.0555 C.3       13 UNK        -0.1800 
     77 C          -0.5347  -26.1787  -48.3611 C.2       13 UNK         0.5000 
     78 O          -0.3293  -27.2729  -48.8886 O.2       13 UNK        -0.5000 
     79 N          -0.4862  -25.0140  -49.0202 N.am      14 UNK        -0.5000 
     80 CA         -0.1042  -24.8816  -50.4271 C.3       14 UNK         0.1400 
     81 CB          1.0662  -23.8912  -50.5529 C.3       14 UNK        -0.1800 
     82 C          -1.2848  -24.4296  -51.2954 C.2       14 UNK         0.5000 
     83 O          -1.4695  -24.9732  -52.3848 O.2       14 UNK        -0.5000 
     84 N          -2.0592  -23.4435  -50.8201 N.am      15 UNK        -0.5000 
     85 CA         -3.1526  -22.8495  -51.5924 C.3       15 UNK         0.1400 
     86 CB         -3.3999  -21.3995  -51.1508 C.3       15 UNK        -0.1800 
     87 C          -4.4575  -23.6566  -51.5545 C.2       15 UNK         0.5000 
     88 O          -5.3335  -23.3702  -52.3693 O.2       15 UNK        -0.5000 
     89 N          -4.5799  -24.6190  -50.6293 N.am      16 UNK        -0.5000 
     90 CA         -5.7362  -25.5013  -50.4318 C.3       16 UNK         0.1400 
     91 CB         -5.8530  -26.4933  -51.6087 C.3       16 UNK        -0.1800 
     92 C          -7.0436  -24.7202  -50.1723 C.2       16 UNK         0.5000 
     93 O          -8.0545  -24.9643  -50.8315 O.2       16 UNK        -0.5000 
     94 N          -6.9743  -23.7552  -49.2442 N.am      17 UNK        -0.5000 
     95 CA         -8.0103  -22.7741  -48.8989 C.3       17 UNK         0.1400 
     96 CB         -9.2759  -23.4564  -48.3385 C.3       17 UNK        -0.1800 
     97 C          -8.2949  -21.8032  -50.0642 C.2       17 UNK         0.5000 
     98 O          -9.4478  -21.4557  -50.3237 O.2       17 UNK        -0.5000 
     99 N          -7.2134  -21.4025  -50.7480 N.am      18 UNK        -0.5000 
    100 CA        -7.1505  -20.5113  -51.9119 C.3       18 UNK         0.1400 
    101 CB        -7.6816  -19.1046  -51.5681 C.3       18 UNK        -0.1800 
    102 C         -7.7796  -21.0882  -53.1999 C.2       18 UNK         0.5000 
    103 O         -7.9915  -20.3385  -54.1537 O.2       18 UNK        -0.5000 
    104 N         -8.0292  -22.4045  -53.2364 N.am      19 UNK        -0.5000 
    105 CA        -8.5218  -23.1229  -54.4124 C.3       19 UNK         0.1400 
    106 CB        -9.1044  -24.4753  -53.9770 C.3       19 UNK        -0.1800 
    107 C         -7.4247  -23.3259  -55.4739 C.2       19 UNK         0.5000 
    108 O         -7.7057  -23.2081  -56.6672 O.2       19 UNK        -0.5000 
    109 N         -6.1976  -23.6149  -55.0204 N.am      20 UNK        -0.5000 
    110 CA        -5.0098  -23.7794  -55.8609 C.3       20 UNK         0.1400 
    111 CB        -4.1354  -24.9004  -55.2765 C.3       20 UNK        -0.1800 
    112 C         -4.2004  -22.4746  -55.9788 C.2       20 UNK         0.5000 
    113 O         -3.3625  -22.3666  -56.8751 O.2       20 UNK        -0.5000 
    114 N         -4.4451  -21.5184  -55.0669 N.am      21 UNK        -0.5000 
    115 CA        -3.8801  -20.1601  -55.0222 C.3       21 UNK         0.1400 
    116 CB        -4.4632  -19.3111  -56.1696 C.3       21 UNK        -0.1800 
    117 C         -2.3342  -20.1138  -54.9757 C.2       21 UNK         0.5000 
    118 O         -1.7302  -19.1570  -55.4620 O.2       21 UNK        -0.5000 
    119 N         -1.7317  -21.1595  -54.3946 N.am      22 UNK        -0.5000 
    120 CA        -0.2844  -21.4305  -54.3323 C.3       22 UNK         0.1400 
    121 C          0.3577  -21.7858  -55.7107 C.2       22 UNK         0.5000 
    122 N         -0.4105  -22.1068  -56.7463 N.am      22 UNK        -0.7600 
    123 O          1.5786  -21.8061  -55.8422 O.2       22 UNK        -0.5000 
    124 C124        0.5265  -20.3522  -53.5554 C.3       23 UNK        -0.0398 
    125 S125       -0.0169  -20.1391  -51.8247 S.3       23 UNK        -0.2404 
    126 C126       -0.7866  -18.4913  -51.9016 C.3       23 UNK        -0.0205 
    127 H127        0.3113  -11.5826  -43.1135 H         1 UNK         0.0600 
    128 H128       -0.9984  -12.0392  -42.0310 H         1 UNK         0.0600 
    129 H129       -1.3649  -11.6217  -43.6973 H         1 UNK         0.0600 
    130 H130       -0.1926  -14.9216  -44.9273 H         1 UNK         0.3000 
    131 H131       -0.9341  -12.2955  -45.8205 H         1 UNK         0.0600 
    132 H132       -1.3320  -14.3668  -47.1720 H         1 UNK         0.0800 
    133 H133       -0.5360  -13.0949  -48.0271 H         1 UNK         0.0800 
    134 H134       -0.1433  -16.5680  -46.3446 H         1 UNK         0.0800 
    135 H135        1.1169  -17.2875  -47.3105 H         1 UNK         0.0800 
    136 H136        0.7313  -17.5713  -49.8430 H         1 UNK         0.1150 
    137 H137       -3.3476  -18.3354  -50.9325 H         1 UNK         0.1150 
    138 H138       -2.4276  -16.6660  -47.0945 H         1 UNK         0.1150 
    139 H139       -4.7043  -16.7859  -47.7846 H         1 UNK         0.0800 
    140 H140       -5.0772  -17.0194  -49.4711 H         1 UNK         0.0800 
    141 H141       -4.7347  -20.0201  -46.0775 H         1 UNK         0.0800 
    142 H142       -3.5298  -18.8788  -46.5650 H         1 UNK         0.0800 
    143 H143       -3.0767  -20.6720  -48.5281 H         1 UNK         0.0600 
    144 H144       -1.7734  -20.3526  -46.0182 H         1 UNK         0.3000 
    145 H145        0.8757  -22.5895  -46.6962 H         1 UNK         0.0600 
    146 H146        2.3858  -20.5926  -46.7423 H         1 UNK         0.0600 
    147 H147        1.6196  -20.8662  -48.3023 H         1 UNK         0.0600 
    148 H148        1.0298  -19.5874  -47.2526 H         1 UNK         0.0600 
    149 H149        0.6422  -20.3694  -44.8964 H         1 UNK         0.3000 
    150 H150       -1.5043  -21.8769  -42.5052 H         1 UNK         0.0600 
    151 H151        0.6659  -22.9964  -41.9485 H         1 UNK         0.0600 
    152 H152        0.3984  -21.5828  -40.9406 H         1 UNK         0.0600 
    153 H153        1.5328  -21.5028  -42.2892 H         1 UNK         0.0600 
    154 H154        0.0572  -19.5078  -42.3791 H         1 UNK         0.3000 
    155 H155       -1.6851  -17.4441  -44.5900 H         1 UNK         0.0600 
    156 H156       -2.0855  -17.2513  -41.5650 H         1 UNK         0.0600 
    157 H157       -3.3962  -17.5175  -42.7089 H         1 UNK         0.0600 
    158 H158       -2.4765  -16.0311  -42.7780 H         1 UNK         0.0600 
    159 H159       -0.0110  -16.4255  -42.7256 H         1 UNK         0.3000 
    160 H160        3.1334  -17.6118  -43.3084 H         1 UNK         0.0600 
    161 H161        2.2208  -15.3001  -45.0907 H         1 UNK         0.0600 
    162 H162        2.9896  -16.7707  -45.6705 H         1 UNK         0.0600 
    163 H163        3.8780  -15.6729  -44.6411 H         1 UNK         0.0600 
    164 H164        2.1895  -14.9425  -42.6940 H         1 UNK         0.3000 
    165 H165        1.0637  -14.6335  -40.3674 H         1 UNK         0.0600 
    166 H166        1.8367  -14.7764  -38.0040 H         1 UNK         0.0600 
    167 H167        1.1815  -16.3180  -38.5251 H         1 UNK         0.0600 
    168 H168        2.9258  -16.0992  -38.4175 H         1 UNK         0.0600 
    169 H169        3.9499  -14.5473  -40.7588 H         1 UNK         0.3000 
    170 H170        4.0666  -11.0402  -40.5058 H         1 UNK         0.0600 
    171 H171        4.5983  -11.5763  -38.1342 H         1 UNK         0.0600 
    172 H172        5.5094  -12.9954  -38.6354 H         1 UNK         0.0600 
    173 H173        6.0690  -11.3806  -39.0739 H         1 UNK         0.0600 
    174 H174        5.9651  -13.1947  -41.0372 H         1 UNK         0.3000 
    175 H175        6.8079  -12.6432  -43.6425 H         1 UNK         0.0600 
    176 H176        5.2103  -15.1561  -42.8863 H         1 UNK         0.0600 
    177 H177        6.6232  -15.2171  -43.9357 H         1 UNK         0.0600 
    178 H178        6.7847  -14.6627  -42.2855 H         1 UNK         0.0600 
    179 H179        4.2815  -12.8965  -44.9671 H         1 UNK         0.3000 
    180 H180        5.8211  -12.6848  -48.1323 H         1 UNK         0.0600 
    181 H181        4.1051  -15.0846  -47.2984 H         1 UNK         0.0600 
    182 H182        5.6696  -15.1792  -48.0964 H         1 UNK         0.0600 
    183 H183        4.2992  -14.4746  -48.9404 H         1 UNK         0.0600 
    184 H184        3.0678  -12.8645  -47.3411 H         1 UNK         0.3000 
    185 H185        2.5756   -9.8858  -45.8427 H         1 UNK         0.0600 
    186 H186        3.0380   -8.6251  -47.9554 H         1 UNK         0.0600 
    187 H187        2.1363   -9.8234  -48.8750 H         1 UNK         0.0600 
    188 H188        1.3150   -8.8110  -47.6857 H         1 UNK         0.0600 
    189 H189        0.6183  -11.1162  -47.3718 H         1 UNK         0.3000 
    190 H190       -3.0353  -22.5337  -45.5332 H         1 UNK         0.3000 
    191 H191       -5.1047  -24.4264  -46.4315 H         1 UNK         0.0600 
    192 H192       -3.2241  -24.4586  -44.0108 H         1 UNK         0.0600 
    193 H193       -4.5143  -25.6126  -44.3246 H         1 UNK         0.0600 
    194 H194       -4.9037  -23.9271  -44.0192 H         1 UNK         0.0600 
    195 H195       -1.5500  -24.4185  -45.8286 H         1 UNK         0.3000 
    196 H196       -1.2024  -27.1183  -46.5657 H         1 UNK         0.0600 
    197 H197        1.2130  -26.6133  -46.2862 H         1 UNK         0.0600 
    198 H198        0.2669  -25.9129  -44.9819 H         1 UNK         0.0600 
    199 H199        0.8726  -24.8886  -46.2807 H         1 UNK         0.0600 
    200 H200       -0.6985  -24.1485  -48.5332 H         1 UNK         0.3000 
    201 H201        0.2384  -25.8392  -50.8244 H         1 UNK         0.0600 
    202 H202        1.9264  -24.2237  -49.9719 H         1 UNK         0.0600 
    203 H203        0.7981  -22.8918  -50.2098 H         1 UNK         0.0600 
    204 H204        1.3894  -23.8008  -51.5907 H         1 UNK         0.0600 
    205 H205       -1.8169  -23.0064  -49.9347 H         1 UNK         0.3000 
    206 H206       -2.8408  -22.8211  -52.6356 H         1 UNK         0.0600 
    207 H207       -2.5013  -20.9388  -50.7465 H         1 UNK         0.0600 
    208 H208       -3.7189  -20.7910  -51.9950 H         1 UNK         0.0600 
    209 H209       -4.1808  -21.3223  -50.3968 H         1 UNK         0.0600 
    210 H210       -3.8168  -24.7412  -49.9788 H         1 UNK         0.3000 
    211 H211       -5.5383  -26.0794  -49.5283 H         1 UNK         0.0600 
    212 H212       -6.0792  -25.9870  -52.5477 H         1 UNK         0.0600 
    213 H213       -6.6459  -27.2203  -51.4300 H         1 UNK         0.0600 
    214 H214       -4.9265  -27.0509  -51.7457 H         1 UNK         0.0600 
    215 H215       -6.0664  -23.5731  -48.8180 H         1 UNK         0.3000 
    216 H216       -7.5890  -22.1642  -48.0982 H         1 UNK         0.0600 
    217 H217       -9.9724  -22.7163  -47.9430 H         1 UNK         0.0600 
    218 H218       -9.0287  -24.1367  -47.5238 H         1 UNK         0.0600 
    219 H219       -9.8069  -24.0248  -49.1024 H         1 UNK         0.0600 
    220 H220       -6.3273  -21.7872  -50.4540 H         1 UNK         0.3000 
    221 H221       -6.0898  -20.4024  -52.1363 H         1 UNK         0.0600 
    222 H222       -8.7593  -19.1061  -51.4048 H         1 UNK         0.0600 
    223 H223       -7.2058  -18.7118  -50.6697 H         1 UNK         0.0600 
    224 H224       -7.4761  -18.3998  -52.3746 H         1 UNK         0.0600 
    225 H225       -7.7934  -22.9630  -52.4266 H         1 UNK         0.3000 
    226 H226       -9.3257  -22.5379  -54.8643 H         1 UNK         0.0600 
    227 H227       -9.8922  -24.3457  -53.2346 H         1 UNK         0.0600 
    228 H228       -9.5390  -25.0041  -54.8260 H         1 UNK         0.0600 
    229 H229       -8.3406  -25.1223  -53.5442 H         1 UNK         0.0600 
    230 H230       -6.0463  -23.6670  -54.0147 H         1 UNK         0.3000 
    231 H231       -5.3065  -24.0750  -56.8693 H         1 UNK         0.0600 
    232 H232       -4.6929  -25.8339  -55.1973 H         1 UNK         0.0600 
    233 H233       -3.7599  -24.6515  -54.2845 H         1 UNK         0.0600 
    234 H234       -3.2703  -25.0920  -55.9126 H         1 UNK         0.0600 
    235 H235       -5.1443  -21.7289  -54.3698 H         1 UNK         0.3000 
    236 H236       -4.2211  -19.7158  -54.0866 H         1 UNK         0.0600 
    237 H237       -4.1241  -19.6636  -57.1442 H         1 UNK         0.0600 
    238 H238       -5.5531  -19.3385  -56.1635 H         1 UNK         0.0600 
    239 H239       -4.1669  -18.2656  -56.0771 H         1 UNK         0.0600 
    240 H240       -2.3211  -21.9065  -54.0657 H         1 UNK         0.3000 
    241 H241       -0.1994  -22.3548  -53.7594 H         1 UNK         0.0600 
    242 H242        0.0247  -22.3438  -57.6236 H         1 UNK         0.3800 
    243 H243       -1.4235  -22.1121  -56.6781 H         1 UNK         0.3800 
    244 H244        0.5007  -19.3962  -54.0792 H         1 UNK         0.0800 
    245 H245        1.5797  -20.6334  -53.5111 H         1 UNK         0.0800 
    246 H246       -1.6224  -18.5157  -52.6009 H         1 UNK         0.0800 
    247 H247       -0.0688  -17.7751  -52.3039 H         1 UNK         0.0800 
@<TRIPOS>BOND
     1    1    2 1    
     2    1  127 1    
     3    1  128 1    
     4    1  129 1    
     5    2    3 2    
     6    2    4 am   BACKBONE|DICT|INTERRES
     7    4    5 1    
     8    4  130 1    
     9    5    6 1    
    10    5   65 1    
    11    5  131 1    
    12    6    7 1    
    13    6  132 1    
    14    6  133 1    
    15    7    8 1    
    16    8    9 1    
    17    8  134 1    
    18    8  135 1    
    19    9   10 ar   
    20    9   14 ar   
    21   10   11 ar   
    22   10  136 1    
    23   11   12 ar   
    24   11  126 1    
    25   12   13 ar   
    26   12  137 1    
    27   13   14 ar   
    28   13   15 1    
    29   14  138 1    
    30   15   16 1    
    31   15  139 1    
    32   15  140 1    
    33   16   17 1    
    34   17   18 1    
    35   17  141 1    
    36   17  142 1    
    37   18   19 1    
    38   18   67 1    
    39   18  143 1    
    40   19   20 am   BACKBONE|DICT|INTERRES
    41   19  144 1    
    42   20   21 2    
    43   20   22 1    
    44   22   23 1    
    45   22   24 1    
    46   22  145 1    
    47   23  146 1    
    48   23  147 1    
    49   23  148 1    
    50   24   25 am   BACKBONE|DICT|INTERRES
    51   24  149 1    
    52   25   26 2    
    53   25   27 1    
    54   27   28 1    
    55   27   29 1    
    56   27  150 1    
    57   28  151 1    
    58   28  152 1    
    59   28  153 1    
    60   29   30 am   BACKBONE|DICT|INTERRES
    61   29  154 1    
    62   30   31 2    
    63   30   32 1    
    64   32   33 1    
    65   32   34 1    
    66   32  155 1    
    67   33  156 1    
    68   33  157 1    
    69   33  158 1    
    70   34   35 am   BACKBONE|DICT|INTERRES
    71   34  159 1    
    72   35   36 2    
    73   35   37 1    
    74   37   38 1    
    75   37   39 1    
    76   37  160 1    
    77   38  161 1    
    78   38  162 1    
    79   38  163 1    
    80   39   40 am   BACKBONE|DICT|INTERRES
    81   39  164 1    
    82   40   41 2    
    83   40   42 1    
    84   42   43 1    
    85   42   44 1    
    86   42  165 1    
    87   43  166 1    
    88   43  167 1    
    89   43  168 1    
    90   44   45 am   BACKBONE|DICT|INTERRES
    91   44  169 1    
    92   45   46 2    
    93   45   47 1    
    94   47   48 1    
    95   47   49 1    
    96   47  170 1    
    97   48  171 1    
    98   48  172 1    
    99   48  173 1    
   100   49   50 am   BACKBONE|DICT|INTERRES
   101   49  174 1    
   102   50   51 2    
   103   50   52 1    
   104   52   53 1    
   105   52   54 1    
   106   52  175 1    
   107   53  176 1    
   108   53  177 1    
   109   53  178 1    
   110   54   55 am   BACKBONE|DICT|INTERRES
   111   54  179 1    
   112   55   56 2    
   113   55   57 1    
   114   57   58 1    
   115   57   59 1    
   116   57  180 1    
   117   58  181 1    
   118   58  182 1    
   119   58  183 1    
   120   59   60 am   BACKBONE|DICT|INTERRES
   121   59  184 1    
   122   60   61 2    
   123   60   62 1    
   124   62   63 1    
   125   62   64 1    
   126   62  185 1    
   127   63  186 1    
   128   63  187 1    
   129   63  188 1    
   130   64   65 am   BACKBONE|DICT|INTERRES
   131   64  189 1    
   132   65   66 2    
   133   67   68 2    
   134   67   69 am   BACKBONE|DICT|INTERRES
   135   69   70 1    
   136   69  190 1    
   137   70   71 1    
   138   70   72 1    
   139   70  191 1    
   140   71  192 1    
   141   71  193 1    
   142   71  194 1    
   143   72   73 2    
   144   72   74 am   BACKBONE|DICT|INTERRES
   145   74   75 1    
   146   74  195 1    
   147   75   76 1    
   148   75   77 1    
   149   75  196 1    
   150   76  197 1    
   151   76  198 1    
   152   76  199 1    
   153   77   78 2    
   154   77   79 am   BACKBONE|DICT|INTERRES
   155   79   80 1    
   156   79  200 1    
   157   80   81 1    
   158   80   82 1    
   159   80  201 1    
   160   81  202 1    
   161   81  203 1    
   162   81  204 1    
   163   82   83 2    
   164   82   84 am   BACKBONE|DICT|INTERRES
   165   84   85 1    
   166   84  205 1    
   167   85   86 1    
   168   85   87 1    
   169   85  206 1    
   170   86  207 1    
   171   86  208 1    
   172   86  209 1    
   173   87   88 2    
   174   87   89 am   BACKBONE|DICT|INTERRES
   175   89   90 1    
   176   89  210 1    
   177   90   91 1    
   178   90   92 1    
   179   90  211 1    
   180   91  212 1    
   181   91  213 1    
   182   91  214 1    
   183   92   93 2    
   184   92   94 am   BACKBONE|DICT|INTERRES
   185   94   95 1    
   186   94  215 1    
   187   95   96 1    
   188   95   97 1    
   189   95  216 1    
   190   96  217 1    
   191   96  218 1    
   192   96  219 1    
   193   97   98 2    
   194   97   99 am   BACKBONE|DICT|INTERRES
   195   99  100 1    
   196   99  220 1    
   197  100  101 1    
   198  100  102 1    
   199  100  221 1    
   200  101  222 1    
   201  101  223 1    
   202  101  224 1    
   203  102  103 2    
   204  102  104 am   BACKBONE|DICT|INTERRES
   205  104  105 1    
   206  104  225 1    
   207  105  106 1    
   208  105  107 1    
   209  105  226 1    
   210  106  227 1    
   211  106  228 1    
   212  106  229 1    
   213  107  108 2    
   214  107  109 am   BACKBONE|DICT|INTERRES
   215  109  110 1    
   216  109  230 1    
   217  110  111 1    
   218  110  112 1    
   219  110  231 1    
   220  111  232 1    
   221  111  233 1    
   222  111  234 1    
   223  112  113 2    
   224  112  114 am   BACKBONE|DICT|INTERRES
   225  114  115 1    
   226  114  235 1    
   227  115  116 1    
   228  115  117 1    
   229  115  236 1    
   230  116  237 1    
   231  116  238 1    
   232  116  239 1    
   233  117  118 2    
   234  117  119 am   BACKBONE|DICT|INTERRES
   235  119  120 1    
   236  119  240 1    
   237  120  121 1    
   238  120  124 1    
   239  120  241 1    
   240  121  122 am   BACKBONE|DICT|INTERRES
   241  121  123 2    
   242  122  242 1    
   243  122  243 1    
   244  124  125 1    
   245  124  244 1    
   246  124  245 1    
   247  125  126 1    
   248  126  246 1    
   249  126  247 1    
@<TRIPOS>SUBSTRUCTURE
     1 UNK         1 GROUP             0       ****    0 ROOT    
