@<TRIPOS>MOLECULE
3R540
247   249    1
SMALL
USER_CHARGES


@<TRIPOS>ATOM
      1 CA          3.0560  -10.1456  -53.3379 C.3       0 UNK        -0.1800 
      2 C           3.0936  -10.6726  -51.9101 C.2       0 UNK         0.5000 
      3 O           3.0978   -9.8825  -50.9656 O.2       0 UNK        -0.5000 
      4 N           3.1288  -12.0013  -51.7500 N.am      1 UNK        -0.5000 
      5 CA          3.0982  -12.6938  -50.4590 C.3       1 UNK         0.1400 
      6 C6          3.5496  -14.1679  -50.6098 C.3       23 UNK        -0.0398 
      7 S7          4.2639  -14.8527  -49.0774 S.3       23 UNK        -0.2404 
      8 C8          2.8853  -15.8425  -48.4271 C.3       23 UNK        -0.0205 
      9 C9          2.6829  -17.1465  -49.1818 C.ar      23 UNK        -0.0193 
     10 C10         1.7188  -17.2369  -50.1907 C.ar      23 UNK        -0.1150 
     11 C11         1.4925  -18.4454  -50.8632 C.ar      23 UNK        -0.0193 
     12 C12         2.2543  -19.5630  -50.5081 C.ar      23 UNK        -0.1150 
     13 C13         3.2155  -19.4897  -49.4944 C.ar      23 UNK        -0.0193 
     14 C14         3.4284  -18.2760  -48.8378 C.ar      23 UNK        -0.1150 
     15 C15         4.0117  -20.7268  -49.0984 C.3       23 UNK        -0.0205 
     16 S16         3.4282  -21.4506  -47.5292 S.3       23 UNK        -0.2404 
     17 C17         1.6517  -21.6466  -47.8789 C.3       23 UNK        -0.0398 
     18 CA          0.9598  -22.7518  -47.0497 C.3       11 UNK         0.1400 
     19 N           1.1006  -22.5532  -45.6050 N.am      11 UNK        -0.5000 
     20 C           0.6802  -23.4002  -44.6560 C.2       10 UNK         0.5000 
     21 O           0.1399  -24.4772  -44.9070 O.2       10 UNK        -0.5000 
     22 CA          0.8209  -22.9494  -43.1884 C.3       10 UNK         0.1400 
     23 CB          1.1765  -24.1142  -42.2422 C.3       10 UNK        -0.1800 
     24 N           1.7212  -21.8079  -42.9989 N.am      10 UNK        -0.5000 
     25 C           3.0514  -21.7599  -43.1691 C.2       9 UNK         0.5000 
     26 O           3.7373  -22.7280  -43.4974 O.2       9 UNK        -0.5000 
     27 CA          3.7352  -20.3927  -42.9586 C.3       9 UNK         0.1400 
     28 CB          4.2478  -19.8402  -44.2980 C.3       9 UNK        -0.1800 
     29 N           2.8582  -19.3922  -42.3458 N.am      9 UNK        -0.5000 
     30 C           2.5116  -19.3592  -41.0525 C.2       8 UNK         0.5000 
     31 O           2.9493  -20.1405  -40.2072 O.2       8 UNK        -0.5000 
     32 CA          1.4707  -18.2995  -40.6441 C.3       8 UNK         0.1400 
     33 CB          2.1499  -16.9464  -40.3857 C.3       8 UNK        -0.1800 
     34 N           0.3947  -18.1312  -41.6269 N.am      8 UNK        -0.5000 
     35 C          -0.4940  -19.0809  -41.9569 C.2       7 UNK         0.5000 
     36 O          -0.4923  -20.2135  -41.4762 O.2       7 UNK        -0.5000 
     37 CA         -1.5378  -18.7243  -43.0295 C.3       7 UNK         0.1400 
     38 CB         -2.6526  -17.8428  -42.4477 C.3       7 UNK        -0.1800 
     39 N          -0.9328  -18.0580  -44.1786 N.am      7 UNK        -0.5000 
     40 C          -0.1354  -18.6579  -45.0721 C.2       6 UNK         0.5000 
     41 O           0.0886  -19.8688  -45.0876 O.2       6 UNK        -0.5000 
     42 CA          0.5363  -17.7505  -46.1169 C.3       6 UNK         0.1400 
     43 CB         -0.4000  -17.5476  -47.3138 C.3       6 UNK        -0.1800 
     44 N           0.9257  -16.4473  -45.5726 N.am      6 UNK        -0.5000 
     45 C           1.8320  -16.2672  -44.6010 C.2       5 UNK         0.5000 
     46 O           2.4623  -17.1828  -44.0773 O.2       5 UNK        -0.5000 
     47 CA          2.0289  -14.8315  -44.0874 C.3       5 UNK         0.1400 
     48 CB          3.0049  -14.0466  -44.9780 C.3       5 UNK        -0.1800 
     49 N           0.7584  -14.1159  -43.9797 N.am      5 UNK        -0.5000 
     50 C          -0.1872  -14.3951  -43.0706 C.2       4 UNK         0.5000 
     51 O          -0.0646  -15.2565  -42.2000 O.2       4 UNK        -0.5000 
     52 CA         -1.5094  -13.6144  -43.1869 C.3       4 UNK         0.1400 
     53 CB         -1.3908  -12.2416  -42.5085 C.3       4 UNK        -0.1800 
     54 N          -1.9283  -13.4348  -44.5778 N.am      4 UNK        -0.5000 
     55 C          -2.2893  -14.4363  -45.3932 C.2       3 UNK         0.5000 
     56 O          -2.3757  -15.6087  -45.0303 O.2       3 UNK        -0.5000 
     57 CA         -2.5359  -14.0725  -46.8707 C.3       3 UNK         0.1400 
     58 CB         -4.0115  -13.7204  -47.1083 C.3       3 UNK        -0.1800 
     59 N          -1.6873  -12.9758  -47.3496 N.am      3 UNK        -0.5000 
     60 C          -0.3521  -13.0427  -47.4241 C.2       2 UNK         0.5000 
     61 O           0.2957  -14.0287  -47.0711 O.2       2 UNK        -0.5000 
     62 CA          0.3796  -11.7693  -47.8801 C.3       2 UNK         0.1400 
     63 CB          0.7080  -10.8923  -46.6613 C.3       2 UNK        -0.1800 
     64 N           1.6229  -12.0557  -48.5975 N.am      2 UNK        -0.5000 
     65 C           1.6909  -12.5687  -49.8324 C.2       1 UNK         0.5000 
     66 O           0.7031  -12.9032  -50.4910 O.2       1 UNK        -0.5000 
     67 C          -0.5226  -22.8153  -47.4540 C.2       11 UNK         0.5000 
     68 O          -0.9114  -23.6945  -48.2225 O.2       11 UNK        -0.5000 
     69 N          -1.3228  -21.8935  -46.8974 N.am      12 UNK        -0.5000 
     70 CA         -2.7633  -21.8023  -47.1289 C.3       12 UNK         0.1400 
     71 CB         -3.2987  -20.5086  -46.4969 C.3       12 UNK        -0.1800 
     72 C          -3.5258  -23.0332  -46.6066 C.2       12 UNK         0.5000 
     73 O          -4.4684  -23.4840  -47.2560 O.2       12 UNK        -0.5000 
     74 N          -3.0739  -23.5739  -45.4668 N.am      13 UNK        -0.5000 
     75 CA         -3.6020  -24.7942  -44.8611 C.3       13 UNK         0.1400 
     76 CB         -3.1328  -24.8856  -43.4006 C.3       13 UNK        -0.1800 
     77 C          -3.1995  -26.0523  -45.6504 C.2       13 UNK         0.5000 
     78 O          -4.0490  -26.9098  -45.8911 O.2       13 UNK        -0.5000 
     79 N          -1.9227  -26.1301  -46.0533 N.am      14 UNK        -0.5000 
     80 CA         -1.3505  -27.2415  -46.8151 C.3       14 UNK         0.1400 
     81 CB          0.1765  -27.0859  -46.8821 C.3       14 UNK        -0.1800 
     82 C          -1.9448  -27.3738  -48.2279 C.2       14 UNK         0.5000 
     83 O          -2.2656  -28.4859  -48.6494 O.2       14 UNK        -0.5000 
     84 N          -2.0976  -26.2401  -48.9260 N.am      15 UNK        -0.5000 
     85 CA         -2.7114  -26.1719  -50.2533 C.3       15 UNK         0.1400 
     86 CB         -2.3038  -24.8531  -50.9267 C.3       15 UNK        -0.1800 
     87 C          -4.2460  -26.2956  -50.2136 C.2       15 UNK         0.5000 
     88 O          -4.8453  -26.6474  -51.2302 O.2       15 UNK        -0.5000 
     89 N          -4.8522  -25.9668  -49.0628 N.am      16 UNK        -0.5000 
     90 CA         -6.2829  -25.9404  -48.7260 C.3       16 UNK         0.1400 
     91 CB         -6.9284  -27.3297  -48.8833 C.3       16 UNK        -0.1800 
     92 C          -7.0835  -24.8562  -49.4742 C.2       16 UNK         0.5000 
     93 O          -7.8313  -24.1072  -48.8453 O.2       16 UNK        -0.5000 
     94 N          -6.8930  -24.7716  -50.7953 N.am      17 UNK        -0.5000 
     95 CA         -7.4430  -23.7379  -51.6727 C.3       17 UNK         0.1400 
     96 CB         -7.5466  -24.3096  -53.0956 C.3       17 UNK        -0.1800 
     97 C          -6.5948  -22.4507  -51.6773 C.2       17 UNK         0.5000 
     98 O          -7.0334  -21.4479  -52.2418 O.2       17 UNK        -0.5000 
     99 N          -5.3860  -22.5082  -51.0919 N.am      18 UNK        -0.5000 
    100 CA        -4.4004  -21.4248  -50.9757 C.3       18 UNK         0.1400 
    101 CB        -4.8932  -20.3703  -49.9678 C.3       18 UNK        -0.1800 
    102 C         -4.0121  -20.8196  -52.3415 C.2       18 UNK         0.5000 
    103 O         -3.9231  -19.5989  -52.4847 O.2       18 UNK        -0.5000 
    104 N         -3.8662  -21.6952  -53.3481 N.am      19 UNK        -0.5000 
    105 CA        -3.5969  -21.3892  -54.7611 C.3       19 UNK         0.1400 
    106 CB        -2.1914  -20.7688  -54.9129 C.3       19 UNK        -0.1800 
    107 C         -4.6836  -20.5262  -55.4477 C.2       19 UNK         0.5000 
    108 O         -4.4422  -20.0137  -56.5414 O.2       19 UNK        -0.5000 
    109 N         -5.8457  -20.3652  -54.7920 N.am      20 UNK        -0.5000 
    110 CA        -6.9519  -19.4660  -55.1326 C.3       20 UNK         0.1400 
    111 CB        -7.6583  -19.9330  -56.4223 C.3       20 UNK        -0.1800 
    112 C         -6.5371  -17.9765  -55.1733 C.2       20 UNK         0.5000 
    113 O         -7.1385  -17.1978  -55.9162 O.2       20 UNK        -0.5000 
    114 N         -5.5165  -17.6032  -54.3863 N.am      21 UNK        -0.5000 
    115 CA        -4.9243  -16.2634  -54.3921 C.3       21 UNK         0.1400 
    116 CB        -3.8406  -16.1850  -55.4821 C.3       21 UNK        -0.1800 
    117 C         -4.3467  -15.8513  -53.0292 C.2       21 UNK         0.5000 
    118 O         -4.3902  -14.6659  -52.6975 O.2       21 UNK        -0.5000 
    119 N         -3.8177  -16.8132  -52.2651 N.am      22 UNK        -0.5000 
    120 CA        -3.1447  -16.5954  -50.9738 C.3       22 UNK         0.1400 
    121 C         -4.0900  -16.7693  -49.7481 C.2       22 UNK         0.5000 
    122 N         -5.4029  -16.8537  -49.9238 N.am      22 UNK        -0.7600 
    123 O         -3.6303  -16.8314  -48.6136 O.2       22 UNK        -0.5000 
    124 C124       -1.8652  -17.4669  -50.8487 C.3       23 UNK        -0.0398 
    125 S125       -0.6944  -17.2062  -52.2261 S.3       23 UNK        -0.2404 
    126 C126        0.4656  -18.5983  -51.9902 C.3       23 UNK        -0.0205 
    127 H127        2.1518   -9.5580  -53.4969 H         1 UNK         0.0600 
    128 H128        3.9178   -9.5046  -53.5243 H         1 UNK         0.0600 
    129 H129        3.0692  -10.9540  -54.0695 H         1 UNK         0.0600 
    130 H130        3.0889  -12.5946  -52.5663 H         1 UNK         0.3000 
    131 H131        3.8159  -12.1842  -49.8118 H         1 UNK         0.0600 
    132 H132        4.3425  -14.2331  -51.3563 H         1 UNK         0.0800 
    133 H133        2.7465  -14.7974  -50.9914 H         1 UNK         0.0800 
    134 H134        1.9723  -15.2513  -48.4510 H         1 UNK         0.0800 
    135 H135        3.0828  -16.0606  -47.3777 H         1 UNK         0.0800 
    136 H136        1.1427  -16.3579  -50.4376 H         1 UNK         0.1150 
    137 H137        2.0925  -20.5004  -51.0218 H         1 UNK         0.1150 
    138 H138        4.1642  -18.2154  -48.0479 H         1 UNK         0.1150 
    139 H139        3.9601  -21.4838  -49.8824 H         1 UNK         0.0800 
    140 H140        5.0657  -20.4642  -48.9976 H         1 UNK         0.0800 
    141 H141        1.5369  -21.8682  -48.9415 H         1 UNK         0.0800 
    142 H142        1.1757  -20.6780  -47.7124 H         1 UNK         0.0800 
    143 H143        1.4175  -23.7112  -47.2990 H         1 UNK         0.0600 
    144 H144        1.4576  -21.6542  -45.3111 H         1 UNK         0.3000 
    145 H145       -0.1679  -22.5910  -42.8998 H         1 UNK         0.0600 
    146 H146        1.2635  -23.7714  -41.2112 H         1 UNK         0.0600 
    147 H147        0.4043  -24.8841  -42.2625 H         1 UNK         0.0600 
    148 H148        2.1164  -24.5917  -42.5196 H         1 UNK         0.0600 
    149 H149        1.2602  -20.9514  -42.7198 H         1 UNK         0.3000 
    150 H150        4.5935  -20.5527  -42.3031 H         1 UNK         0.0600 
    151 H151        4.9297  -20.5418  -44.7800 H         1 UNK         0.0600 
    152 H152        4.7902  -18.9051  -44.1578 H         1 UNK         0.0600 
    153 H153        3.4279  -19.6492  -44.9918 H         1 UNK         0.0600 
    154 H154        2.5106  -18.6617  -42.9644 H         1 UNK         0.3000 
    155 H155        1.0136  -18.6310  -39.7095 H         1 UNK         0.0600 
    156 H156        2.6056  -16.5466  -41.2916 H         1 UNK         0.0600 
    157 H157        2.9364  -17.0404  -39.6360 H         1 UNK         0.0600 
    158 H158        1.4356  -16.2104  -40.0165 H         1 UNK         0.0600 
    159 H159        0.3030  -17.2085  -42.0408 H         1 UNK         0.3000 
    160 H160       -1.9914  -19.6556  -43.3747 H         1 UNK         0.0600 
    161 H161       -3.4264  -17.6487  -43.1908 H         1 UNK         0.0600 
    162 H162       -2.2718  -16.8804  -42.1054 H         1 UNK         0.0600 
    163 H163       -3.1316  -18.3291  -41.5972 H         1 UNK         0.0600 
    164 H164       -1.1399  -17.0722  -44.2979 H         1 UNK         0.3000 
    165 H165        1.4433  -18.2482  -46.4663 H         1 UNK         0.0600 
    166 H166       -0.0072  -16.8021  -48.0029 H         1 UNK         0.0600 
    167 H167       -0.5277  -18.4780  -47.8682 H         1 UNK         0.0600 
    168 H168       -1.3898  -17.2144  -47.0018 H         1 UNK         0.0600 
    169 H169        0.4910  -15.6270  -45.9853 H         1 UNK         0.3000 
    170 H170        2.4676  -14.8933  -43.0896 H         1 UNK         0.0600 
    171 H171        3.9677  -14.5556  -45.0396 H         1 UNK         0.0600 
    172 H172        2.6343  -13.9321  -45.9958 H         1 UNK         0.0600 
    173 H173        3.1899  -13.0505  -44.5761 H         1 UNK         0.0600 
    174 H174        0.5544  -13.4447  -44.7045 H         1 UNK         0.3000 
    175 H175       -2.2820  -14.1874  -42.6696 H         1 UNK         0.0600 
    176 H176       -2.3438  -11.7123  -42.5209 H         1 UNK         0.0600 
    177 H177       -1.0928  -12.3476  -41.4645 H         1 UNK         0.0600 
    178 H178       -0.6491  -11.6102  -42.9994 H         1 UNK         0.0600 
    179 H179       -1.8906  -12.4985  -44.9517 H         1 UNK         0.3000 
    180 H180       -2.2918  -14.9537  -47.4648 H         1 UNK         0.0600 
    181 H181       -4.3076  -12.8250  -46.5607 H         1 UNK         0.0600 
    182 H182       -4.6607  -14.5356  -46.7854 H         1 UNK         0.0600 
    183 H183       -4.2104  -13.5523  -48.1669 H         1 UNK         0.0600 
    184 H184       -2.1590  -12.1305  -47.6373 H         1 UNK         0.3000 
    185 H185       -0.2778  -11.2083  -48.5477 H         1 UNK         0.0600 
    186 H186        1.3812  -11.3994  -45.9688 H         1 UNK         0.0600 
    187 H187        1.1817   -9.9584  -46.9646 H         1 UNK         0.0600 
    188 H188       -0.1952  -10.6301  -46.1088 H         1 UNK         0.0600 
    189 H189        2.4789  -11.8250  -48.1155 H         1 UNK         0.3000 
    190 H190       -0.9127  -21.2206  -46.2573 H         1 UNK         0.3000 
    191 H191       -2.9237  -21.7489  -48.2064 H         1 UNK         0.0600 
    192 H192       -3.1212  -20.4815  -45.4216 H         1 UNK         0.0600 
    193 H193       -4.3734  -20.4111  -46.6548 H         1 UNK         0.0600 
    194 H194       -2.8273  -19.6292  -46.9368 H         1 UNK         0.0600 
    195 H195       -2.2691  -23.1576  -45.0247 H         1 UNK         0.3000 
    196 H196       -4.6926  -24.7330  -44.8620 H         1 UNK         0.0600 
    197 H197       -3.5397  -25.7745  -42.9168 H         1 UNK         0.0600 
    198 H198       -3.4657  -24.0220  -42.8247 H         1 UNK         0.0600 
    199 H199       -2.0466  -24.9407  -43.3242 H         1 UNK         0.0600 
    200 H200       -1.2713  -25.4036  -45.7671 H         1 UNK         0.3000 
    201 H201       -1.5726  -28.1641  -46.2748 H         1 UNK         0.0600 
    202 H202        0.6164  -27.0899  -45.8846 H         1 UNK         0.0600 
    203 H203        0.4649  -26.1541  -47.3700 H         1 UNK         0.0600 
    204 H204        0.6303  -27.9053  -47.4408 H         1 UNK         0.0600 
    205 H205       -1.7582  -25.3647  -48.5335 H         1 UNK         0.3000 
    206 H206       -2.3297  -26.9956  -50.8603 H         1 UNK         0.0600 
    207 H207       -1.2214  -24.7879  -51.0394 H         1 UNK         0.0600 
    208 H208       -2.7409  -24.7641  -51.9221 H         1 UNK         0.0600 
    209 H209       -2.6282  -23.9938  -50.3413 H         1 UNK         0.0600 
    210 H210       -4.2532  -25.6452  -48.3142 H         1 UNK         0.3000 
    211 H211       -6.3241  -25.6822  -47.6664 H         1 UNK         0.0600 
    212 H212       -6.9454  -27.6604  -49.9219 H         1 UNK         0.0600 
    213 H213       -7.9598  -27.3198  -48.5289 H         1 UNK         0.0600 
    214 H214       -6.3915  -28.0788  -48.3011 H         1 UNK         0.0600 
    215 H215       -6.2609  -25.4490  -51.2163 H         1 UNK         0.3000 
    216 H216       -8.4462  -23.4719  -51.3335 H         1 UNK         0.0600 
    217 H217       -7.9778  -23.5800  -53.7826 H         1 UNK         0.0600 
    218 H218       -8.1856  -25.1925  -53.1190 H         1 UNK         0.0600 
    219 H219       -6.5690  -24.5931  -53.4879 H         1 UNK         0.0600 
    220 H220       -5.1362  -23.3808  -50.6513 H         1 UNK         0.3000 
    221 H221       -3.4904  -21.8658  -50.5708 H         1 UNK         0.0600 
    222 H222       -5.7276  -19.7904  -50.3636 H         1 UNK         0.0600 
    223 H223       -5.2227  -20.8353  -49.0388 H         1 UNK         0.0600 
    224 H224       -4.0943  -19.6745  -49.7145 H         1 UNK         0.0600 
    225 H225       -4.0004  -22.6737  -53.1379 H         1 UNK         0.3000 
    226 H226       -3.5965  -22.3458  -55.2853 H         1 UNK         0.0600 
    227 H227       -1.4337  -21.3841  -54.4280 H         1 UNK         0.0600 
    228 H228       -1.9116  -20.6817  -55.9633 H         1 UNK         0.0600 
    229 H229       -2.1387  -19.7694  -54.4792 H         1 UNK         0.0600 
    230 H230       -5.9517  -20.8292  -53.8963 H         1 UNK         0.3000 
    231 H231       -7.6702  -19.5526  -54.3163 H         1 UNK         0.0600 
    232 H232       -7.9406  -20.9839  -56.3579 H         1 UNK         0.0600 
    233 H233       -7.0240  -19.8085  -57.3003 H         1 UNK         0.0600 
    234 H234       -8.5721  -19.3638  -56.5966 H         1 UNK         0.0600 
    235 H235       -5.0820  -18.2997  -53.7934 H         1 UNK         0.3000 
    236 H236       -5.6998  -15.5309  -54.6266 H         1 UNK         0.0600 
    237 H237       -3.3728  -15.1999  -55.5014 H         1 UNK         0.0600 
    238 H238       -3.0532  -16.9213  -55.3145 H         1 UNK         0.0600 
    239 H239       -4.2606  -16.3646  -56.4718 H         1 UNK         0.0600 
    240 H240       -3.8270  -17.7835  -52.5667 H         1 UNK         0.3000 
    241 H241       -2.8145  -15.5563  -50.9236 H         1 UNK         0.0600 
    242 H242       -6.0013  -16.9662  -49.1218 H         1 UNK         0.3800 
    243 H243       -5.7990  -16.8056  -50.8478 H         1 UNK         0.3800 
    244 H244       -1.3399  -17.2347  -49.9236 H         1 UNK         0.0800 
    245 H245       -2.1262  -18.5244  -50.7986 H         1 UNK         0.0800 
    246 H246       -0.1110  -19.5122  -51.8392 H         1 UNK         0.0800 
    247 H247        1.0126  -18.7351  -52.9238 H         1 UNK         0.0800 
@<TRIPOS>BOND
     1    1    2 1    
     2    1  127 1    
     3    1  128 1    
     4    1  129 1    
     5    2    3 2    
     6    2    4 am   BACKBONE|DICT|INTERRES
     7    4    5 1    
     8    4  130 1    
     9    5    6 1    
    10    5   65 1    
    11    5  131 1    
    12    6    7 1    
    13    6  132 1    
    14    6  133 1    
    15    7    8 1    
    16    8    9 1    
    17    8  134 1    
    18    8  135 1    
    19    9   10 ar   
    20    9   14 ar   
    21   10   11 ar   
    22   10  136 1    
    23   11   12 ar   
    24   11  126 1    
    25   12   13 ar   
    26   12  137 1    
    27   13   14 ar   
    28   13   15 1    
    29   14  138 1    
    30   15   16 1    
    31   15  139 1    
    32   15  140 1    
    33   16   17 1    
    34   17   18 1    
    35   17  141 1    
    36   17  142 1    
    37   18   19 1    
    38   18   67 1    
    39   18  143 1    
    40   19   20 am   BACKBONE|DICT|INTERRES
    41   19  144 1    
    42   20   21 2    
    43   20   22 1    
    44   22   23 1    
    45   22   24 1    
    46   22  145 1    
    47   23  146 1    
    48   23  147 1    
    49   23  148 1    
    50   24   25 am   BACKBONE|DICT|INTERRES
    51   24  149 1    
    52   25   26 2    
    53   25   27 1    
    54   27   28 1    
    55   27   29 1    
    56   27  150 1    
    57   28  151 1    
    58   28  152 1    
    59   28  153 1    
    60   29   30 am   BACKBONE|DICT|INTERRES
    61   29  154 1    
    62   30   31 2    
    63   30   32 1    
    64   32   33 1    
    65   32   34 1    
    66   32  155 1    
    67   33  156 1    
    68   33  157 1    
    69   33  158 1    
    70   34   35 am   BACKBONE|DICT|INTERRES
    71   34  159 1    
    72   35   36 2    
    73   35   37 1    
    74   37   38 1    
    75   37   39 1    
    76   37  160 1    
    77   38  161 1    
    78   38  162 1    
    79   38  163 1    
    80   39   40 am   BACKBONE|DICT|INTERRES
    81   39  164 1    
    82   40   41 2    
    83   40   42 1    
    84   42   43 1    
    85   42   44 1    
    86   42  165 1    
    87   43  166 1    
    88   43  167 1    
    89   43  168 1    
    90   44   45 am   BACKBONE|DICT|INTERRES
    91   44  169 1    
    92   45   46 2    
    93   45   47 1    
    94   47   48 1    
    95   47   49 1    
    96   47  170 1    
    97   48  171 1    
    98   48  172 1    
    99   48  173 1    
   100   49   50 am   BACKBONE|DICT|INTERRES
   101   49  174 1    
   102   50   51 2    
   103   50   52 1    
   104   52   53 1    
   105   52   54 1    
   106   52  175 1    
   107   53  176 1    
   108   53  177 1    
   109   53  178 1    
   110   54   55 am   BACKBONE|DICT|INTERRES
   111   54  179 1    
   112   55   56 2    
   113   55   57 1    
   114   57   58 1    
   115   57   59 1    
   116   57  180 1    
   117   58  181 1    
   118   58  182 1    
   119   58  183 1    
   120   59   60 am   BACKBONE|DICT|INTERRES
   121   59  184 1    
   122   60   61 2    
   123   60   62 1    
   124   62   63 1    
   125   62   64 1    
   126   62  185 1    
   127   63  186 1    
   128   63  187 1    
   129   63  188 1    
   130   64   65 am   BACKBONE|DICT|INTERRES
   131   64  189 1    
   132   65   66 2    
   133   67   68 2    
   134   67   69 am   BACKBONE|DICT|INTERRES
   135   69   70 1    
   136   69  190 1    
   137   70   71 1    
   138   70   72 1    
   139   70  191 1    
   140   71  192 1    
   141   71  193 1    
   142   71  194 1    
   143   72   73 2    
   144   72   74 am   BACKBONE|DICT|INTERRES
   145   74   75 1    
   146   74  195 1    
   147   75   76 1    
   148   75   77 1    
   149   75  196 1    
   150   76  197 1    
   151   76  198 1    
   152   76  199 1    
   153   77   78 2    
   154   77   79 am   BACKBONE|DICT|INTERRES
   155   79   80 1    
   156   79  200 1    
   157   80   81 1    
   158   80   82 1    
   159   80  201 1    
   160   81  202 1    
   161   81  203 1    
   162   81  204 1    
   163   82   83 2    
   164   82   84 am   BACKBONE|DICT|INTERRES
   165   84   85 1    
   166   84  205 1    
   167   85   86 1    
   168   85   87 1    
   169   85  206 1    
   170   86  207 1    
   171   86  208 1    
   172   86  209 1    
   173   87   88 2    
   174   87   89 am   BACKBONE|DICT|INTERRES
   175   89   90 1    
   176   89  210 1    
   177   90   91 1    
   178   90   92 1    
   179   90  211 1    
   180   91  212 1    
   181   91  213 1    
   182   91  214 1    
   183   92   93 2    
   184   92   94 am   BACKBONE|DICT|INTERRES
   185   94   95 1    
   186   94  215 1    
   187   95   96 1    
   188   95   97 1    
   189   95  216 1    
   190   96  217 1    
   191   96  218 1    
   192   96  219 1    
   193   97   98 2    
   194   97   99 am   BACKBONE|DICT|INTERRES
   195   99  100 1    
   196   99  220 1    
   197  100  101 1    
   198  100  102 1    
   199  100  221 1    
   200  101  222 1    
   201  101  223 1    
   202  101  224 1    
   203  102  103 2    
   204  102  104 am   BACKBONE|DICT|INTERRES
   205  104  105 1    
   206  104  225 1    
   207  105  106 1    
   208  105  107 1    
   209  105  226 1    
   210  106  227 1    
   211  106  228 1    
   212  106  229 1    
   213  107  108 2    
   214  107  109 am   BACKBONE|DICT|INTERRES
   215  109  110 1    
   216  109  230 1    
   217  110  111 1    
   218  110  112 1    
   219  110  231 1    
   220  111  232 1    
   221  111  233 1    
   222  111  234 1    
   223  112  113 2    
   224  112  114 am   BACKBONE|DICT|INTERRES
   225  114  115 1    
   226  114  235 1    
   227  115  116 1    
   228  115  117 1    
   229  115  236 1    
   230  116  237 1    
   231  116  238 1    
   232  116  239 1    
   233  117  118 2    
   234  117  119 am   BACKBONE|DICT|INTERRES
   235  119  120 1    
   236  119  240 1    
   237  120  121 1    
   238  120  124 1    
   239  120  241 1    
   240  121  122 am   BACKBONE|DICT|INTERRES
   241  121  123 2    
   242  122  242 1    
   243  122  243 1    
   244  124  125 1    
   245  124  244 1    
   246  124  245 1    
   247  125  126 1    
   248  126  246 1    
   249  126  247 1    
@<TRIPOS>SUBSTRUCTURE
     1 UNK         1 GROUP             0       ****    0 ROOT    
