@<TRIPOS>MOLECULE
3R540
247   249    1
SMALL
USER_CHARGES


@<TRIPOS>ATOM
      1 CA          3.0562  -13.9328  -49.9663 C.3       0 UNK        -0.1800 
      2 C           2.6876  -15.3462  -49.5201 C.2       0 UNK         0.5000 
      3 O           3.5615  -16.2094  -49.5041 O.2       0 UNK        -0.5000 
      4 N           1.4366  -15.6496  -49.1391 N.am      1 UNK        -0.5000 
      5 CA          0.2287  -14.8049  -49.0684 C.3       1 UNK         0.1400 
      6 C6         -0.1636  -14.0837  -50.3908 C.3       23 UNK        -0.0398 
      7 S7         -0.1588  -15.1567  -51.8680 S.3       23 UNK        -0.2404 
      8 C8         -1.9381  -15.3772  -52.1787 C.3       23 UNK        -0.0205 
      9 C9         -2.5490  -16.4015  -51.2374 C.ar      23 UNK        -0.0193 
     10 C10        -3.3353  -16.0040  -50.1520 C.ar      23 UNK        -0.1150 
     11 C11        -3.9110  -16.9591  -49.3072 C.ar      23 UNK        -0.0193 
     12 C12        -3.6847  -18.3178  -49.5495 C.ar      23 UNK        -0.1150 
     13 C13        -2.9193  -18.7242  -50.6447 C.ar      23 UNK        -0.0193 
     14 C14        -2.3489  -17.7617  -51.4779 C.ar      23 UNK        -0.1150 
     15 C15        -2.7284  -20.2000  -50.9520 C.3       23 UNK        -0.0205 
     16 S16        -1.0085  -20.7375  -50.7001 S.3       23 UNK        -0.2404 
     17 C17        -0.8090  -20.5682  -48.8956 C.3       23 UNK        -0.0398 
     18 CA         -0.9450  -21.9052  -48.1295 C.3       11 UNK         0.1400 
     19 N          -0.4927  -21.7837  -46.7425 N.am      11 UNK        -0.5000 
     20 C          -0.4105  -22.7845  -45.8529 C.2       10 UNK         0.5000 
     21 O          -0.6657  -23.9628  -46.1117 O.2       10 UNK        -0.5000 
     22 CA         -0.0134  -22.3950  -44.4189 C.3       10 UNK         0.1400 
     23 CB          1.5020  -22.1686  -44.3191 C.3       10 UNK        -0.1800 
     24 N          -0.7241  -21.2078  -43.9410 N.am      10 UNK        -0.5000 
     25 C          -2.0561  -21.1220  -43.8096 C.2       9 UNK         0.5000 
     26 O          -2.8288  -22.0465  -44.0512 O.2       9 UNK        -0.5000 
     27 CA         -2.6301  -19.7607  -43.3894 C.3       9 UNK         0.1400 
     28 CB         -2.4559  -19.5244  -41.8814 C.3       9 UNK        -0.1800 
     29 N          -2.0302  -18.6577  -44.1352 N.am      9 UNK        -0.5000 
     30 C          -2.1761  -18.4572  -45.4526 C.2       8 UNK         0.5000 
     31 O          -2.8383  -19.1820  -46.1965 O.2       8 UNK        -0.5000 
     32 CA         -1.4139  -17.2515  -46.0304 C.3       8 UNK         0.1400 
     33 CB         -2.1165  -15.9469  -45.6244 C.3       8 UNK        -0.1800 
     34 N          -0.0223  -17.2009  -45.5765 N.am      8 UNK        -0.5000 
     35 C           0.8879  -18.1677  -45.7660 C.2       7 UNK         0.5000 
     36 O           0.6862  -19.1828  -46.4288 O.2       7 UNK        -0.5000 
     37 CA          2.2267  -17.9991  -45.0326 C.3       7 UNK         0.1400 
     38 CB          3.1847  -17.1088  -45.8367 C.3       7 UNK        -0.1800 
     39 N           2.0411  -17.4350  -43.6975 N.am      7 UNK        -0.5000 
     40 C           1.4555  -18.0635  -42.6688 C.2       6 UNK         0.5000 
     41 O           1.0151  -19.2109  -42.7453 O.2       6 UNK        -0.5000 
     42 CA          1.2896  -17.2641  -41.3575 C.3       6 UNK         0.1400 
     43 CB          1.4212  -18.1501  -40.1022 C.3       6 UNK        -0.1800 
     44 N           2.1590  -16.0838  -41.2748 N.am      6 UNK        -0.5000 
     45 C           3.5011  -16.0499  -41.2282 C.2       5 UNK         0.5000 
     46 O           4.2105  -17.0531  -41.1506 O.2       5 UNK        -0.5000 
     47 CA          4.1740  -14.6669  -41.3427 C.3       5 UNK         0.1400 
     48 CB          4.9613  -14.5715  -42.6597 C.3       5 UNK        -0.1800 
     49 N           3.2109  -13.5647  -41.3006 N.am      5 UNK        -0.5000 
     50 C           2.7664  -12.9809  -40.1804 C.2       4 UNK         0.5000 
     51 O           3.1613  -13.2715  -39.0510 O.2       4 UNK        -0.5000 
     52 CA          1.6764  -11.9062  -40.3548 C.3       4 UNK         0.1400 
     53 CB          2.3121  -10.5167  -40.5130 C.3       4 UNK        -0.1800 
     54 N           0.7837  -12.1575  -41.4914 N.am      4 UNK        -0.5000 
     55 C          -0.0745  -13.1845  -41.5791 C.2       3 UNK         0.5000 
     56 O          -0.1694  -14.0712  -40.7314 O.2       3 UNK        -0.5000 
     57 CA         -0.9426  -13.2545  -42.8464 C.3       3 UNK         0.1400 
     58 CB         -2.1971  -12.3814  -42.6985 C.3       3 UNK        -0.1800 
     59 N          -0.2086  -12.8549  -44.0481 N.am      3 UNK        -0.5000 
     60 C           0.7193  -13.6116  -44.6438 C.2       2 UNK         0.5000 
     61 O           1.0310  -14.7426  -44.2624 O.2       2 UNK        -0.5000 
     62 CA          1.4280  -13.0048  -45.8619 C.3       2 UNK         0.1400 
     63 CB          2.9274  -12.8201  -45.5846 C.3       2 UNK        -0.1800 
     64 N           1.2627  -13.8727  -47.0237 N.am      2 UNK        -0.5000 
     65 C           0.2295  -13.8205  -47.8742 C.2       1 UNK         0.5000 
     66 O          -0.7058  -13.0305  -47.7440 O.2       1 UNK        -0.5000 
     67 C          -2.3722  -22.4752  -48.2147 C.2       11 UNK         0.5000 
     68 O          -2.5888  -23.4450  -48.9430 O.2       11 UNK        -0.5000 
     69 N          -3.2969  -21.8798  -47.4477 N.am      12 UNK        -0.5000 
     70 CA         -4.6917  -22.3064  -47.3530 C.3       12 UNK         0.1400 
     71 CB         -5.4812  -21.2681  -46.5414 C.3       12 UNK        -0.1800 
     72 C          -4.8528  -23.7117  -46.7421 C.2       12 UNK         0.5000 
     73 O          -5.7212  -24.4650  -47.1839 O.2       12 UNK        -0.5000 
     74 N          -4.0204  -24.0352  -45.7427 N.am      13 UNK        -0.5000 
     75 CA         -4.0163  -25.3164  -45.0439 C.3       13 UNK         0.1400 
     76 CB         -3.1755  -25.2178  -43.7607 C.3       13 UNK        -0.1800 
     77 C          -3.5385  -26.4829  -45.9230 C.2       13 UNK         0.5000 
     78 O          -4.2684  -27.4686  -46.0453 O.2       13 UNK        -0.5000 
     79 N          -2.3298  -26.3753  -46.4971 N.am      14 UNK        -0.5000 
     80 CA         -1.7041  -27.4869  -47.2223 C.3       14 UNK         0.1400 
     81 CB         -1.2338  -28.5678  -46.2248 C.3       14 UNK        -0.1800 
     82 C          -0.5320  -27.1026  -48.1401 C.2       14 UNK         0.5000 
     83 O          -0.2346  -27.8798  -49.0487 O.2       14 UNK        -0.5000 
     84 N           0.1546  -25.9763  -47.8898 N.am      15 UNK        -0.5000 
     85 CA          1.4243  -25.6546  -48.5551 C.3       15 UNK         0.1400 
     86 CB          2.1470  -24.5213  -47.8099 C.3       15 UNK        -0.1800 
     87 C           1.2886  -25.3335  -50.0554 C.2       15 UNK         0.5000 
     88 O           2.2136  -25.6370  -50.8095 O.2       15 UNK        -0.5000 
     89 N           0.1417  -24.7567  -50.4533 N.am      16 UNK        -0.5000 
     90 CA         -0.2737  -24.4668  -51.8328 C.3       16 UNK         0.1400 
     91 CB         -0.7298  -25.7693  -52.5205 C.3       16 UNK        -0.1800 
     92 C           0.7824  -23.6942  -52.6567 C.2       16 UNK         0.5000 
     93 O           1.1153  -24.0900  -53.7757 O.2       16 UNK        -0.5000 
     94 N           1.3022  -22.6064  -52.0707 N.am      17 UNK        -0.5000 
     95 CA          2.3051  -21.7140  -52.6614 C.3       17 UNK         0.1400 
     96 CB          2.7594  -20.7008  -51.5988 C.3       17 UNK        -0.1800 
     97 C           1.8191  -20.9870  -53.9326 C.2       17 UNK         0.5000 
     98 O           2.6385  -20.6436  -54.7858 O.2       17 UNK        -0.5000 
     99 N           0.5013  -20.7977  -54.0487 N.am      18 UNK        -0.5000 
    100 CA        -0.1963  -20.3617  -55.2500 C.3       18 UNK         0.1400 
    101 CB        -0.4142  -18.8405  -55.2065 C.3       18 UNK        -0.1800 
    102 C         -1.5301  -21.1187  -55.3199 C.2       18 UNK         0.5000 
    103 O         -2.0251  -21.5886  -54.2910 O.2       18 UNK        -0.5000 
    104 N         -2.0859  -21.2269  -56.5307 N.am      19 UNK        -0.5000 
    105 CA        -3.3946  -21.8281  -56.7818 C.3       19 UNK         0.1400 
    106 CB        -3.4866  -22.2111  -58.2675 C.3       19 UNK        -0.1800 
    107 C         -4.5339  -20.8643  -56.4032 C.2       19 UNK         0.5000 
    108 O         -4.3621  -19.6463  -56.5018 O.2       19 UNK        -0.5000 
    109 N         -5.6852  -21.4380  -56.0260 N.am      20 UNK        -0.5000 
    110 CA        -6.9220  -20.7569  -55.6305 C.3       20 UNK         0.1400 
    111 CB        -7.5716  -20.0577  -56.8472 C.3       20 UNK        -0.1800 
    112 C         -6.7069  -19.8430  -54.4047 C.2       20 UNK         0.5000 
    113 O         -6.3526  -20.3537  -53.3391 O.2       20 UNK        -0.5000 
    114 N         -6.9344  -18.5306  -54.5674 N.am      21 UNK        -0.5000 
    115 CA        -6.8244  -17.4812  -53.5504 C.3       21 UNK         0.1400 
    116 CB        -5.3444  -17.2433  -53.1838 C.3       21 UNK        -0.1800 
    117 C         -7.7411  -17.7760  -52.3453 C.2       21 UNK         0.5000 
    118 O         -8.9596  -17.8251  -52.5264 O.2       21 UNK        -0.5000 
    119 N         -7.1589  -17.9871  -51.1588 N.am      22 UNK        -0.5000 
    120 CA        -7.8824  -18.3849  -49.9401 C.3       22 UNK         0.1400 
    121 C         -8.3309  -19.8780  -49.9176 C.2       22 UNK         0.5000 
    122 N         -7.9099  -20.7256  -50.8501 N.am      22 UNK        -0.7600 
    123 O         -9.0835  -20.2761  -49.0329 O.2       22 UNK        -0.5000 
    124 C124       -7.1044  -18.0358  -48.6454 C.3       23 UNK        -0.0398 
    125 S125       -6.5190  -16.3062  -48.5778 S.3       23 UNK        -0.2404 
    126 C126       -4.7664  -16.5181  -48.1293 C.3       23 UNK        -0.0205 
    127 H127        2.5552  -13.1628  -49.3833 H         1 UNK         0.0600 
    128 H128        2.8083  -13.7955  -51.0186 H         1 UNK         0.0600 
    129 H129        4.1287  -13.7726  -49.8550 H         1 UNK         0.0600 
    130 H130        1.2675  -16.6106  -48.8792 H         1 UNK         0.3000 
    131 H131       -0.5784  -15.5057  -48.8488 H         1 UNK         0.0600 
    132 H132       -1.1559  -13.6416  -50.2887 H         1 UNK         0.0800 
    133 H133        0.4978  -13.2415  -50.5915 H         1 UNK         0.0800 
    134 H134       -2.4564  -14.4198  -52.1082 H         1 UNK         0.0800 
    135 H135       -2.0723  -15.7157  -53.2072 H         1 UNK         0.0800 
    136 H136       -3.5061  -14.9527  -49.9677 H         1 UNK         0.1150 
    137 H137       -4.1047  -19.0629  -48.8897 H         1 UNK         0.1150 
    138 H138       -1.7489  -18.0747  -52.3184 H         1 UNK         0.1150 
    139 H139       -3.4030  -20.8143  -50.3551 H         1 UNK         0.0800 
    140 H140       -3.0021  -20.3799  -51.9927 H         1 UNK         0.0800 
    141 H141       -1.4882  -19.8129  -48.4998 H         1 UNK         0.0800 
    142 H142        0.1940  -20.1684  -48.7460 H         1 UNK         0.0800 
    143 H143       -0.2856  -22.6259  -48.6113 H         1 UNK         0.0600 
    144 H144       -0.2204  -20.8493  -46.4474 H         1 UNK         0.3000 
    145 H145       -0.2772  -23.2267  -43.7628 H         1 UNK         0.0600 
    146 H146        1.8017  -21.9570  -43.2925 H         1 UNK         0.0600 
    147 H147        2.0518  -23.0530  -44.6435 H         1 UNK         0.0600 
    148 H148        1.8266  -21.3334  -44.9401 H         1 UNK         0.0600 
    149 H149       -0.1513  -20.4112  -43.6752 H         1 UNK         0.3000 
    150 H150       -3.6999  -19.7696  -43.6093 H         1 UNK         0.0600 
    151 H151       -2.9291  -20.3218  -41.3070 H         1 UNK         0.0600 
    152 H152       -2.9166  -18.5857  -41.5732 H         1 UNK         0.0600 
    153 H153       -1.4056  -19.4935  -41.5921 H         1 UNK         0.0600 
    154 H154       -1.4356  -18.0308  -43.6166 H         1 UNK         0.3000 
    155 H155       -1.4231  -17.3368  -47.1190 H         1 UNK         0.0600 
    156 H156       -2.0128  -15.7543  -44.5575 H         1 UNK         0.0600 
    157 H157       -3.1841  -15.9863  -45.8327 H         1 UNK         0.0600 
    158 H158       -1.7123  -15.0899  -46.1588 H         1 UNK         0.0600 
    159 H159        0.2530  -16.3967  -45.0212 H         1 UNK         0.3000 
    160 H160        2.6814  -18.9860  -44.9273 H         1 UNK         0.0600 
    161 H161        2.7908  -16.1012  -45.9606 H         1 UNK         0.0600 
    162 H162        3.3567  -17.5196  -46.8326 H         1 UNK         0.0600 
    163 H163        4.1547  -17.0302  -45.3454 H         1 UNK         0.0600 
    164 H164        2.2746  -16.4579  -43.5839 H         1 UNK         0.3000 
    165 H165        0.2697  -16.8777  -41.3762 H         1 UNK         0.0600 
    166 H166        2.3898  -18.6481  -40.0548 H         1 UNK         0.0600 
    167 H167        1.2990  -17.5636  -39.1916 H         1 UNK         0.0600 
    168 H168        0.6568  -18.9277  -40.0904 H         1 UNK         0.0600 
    169 H169        1.6695  -15.1985  -41.2992 H         1 UNK         0.3000 
    170 H170        4.8789  -14.5693  -40.5143 H         1 UNK         0.0600 
    171 H171        4.3196  -14.7468  -43.5229 H         1 UNK         0.0600 
    172 H172        5.4257  -13.5920  -42.7759 H         1 UNK         0.0600 
    173 H173        5.7596  -15.3140  -42.6921 H         1 UNK         0.0600 
    174 H174        2.8285  -13.2610  -42.1835 H         1 UNK         0.3000 
    175 H175        1.0704  -11.9030  -39.4462 H         1 UNK         0.0600 
    176 H176        1.5515   -9.7367  -40.5524 H         1 UNK         0.0600 
    177 H177        2.9661  -10.2880  -39.6703 H         1 UNK         0.0600 
    178 H178        2.9117  -10.4485  -41.4216 H         1 UNK         0.0600 
    179 H179        0.7995  -11.4785  -42.2379 H         1 UNK         0.3000 
    180 H180       -1.2655  -14.2903  -42.9607 H         1 UNK         0.0600 
    181 H181       -1.9460  -11.3249  -42.5962 H         1 UNK         0.0600 
    182 H182       -2.7715  -12.6695  -41.8169 H         1 UNK         0.0600 
    183 H183       -2.8541  -12.4886  -43.5619 H         1 UNK         0.0600 
    184 H184       -0.4300  -11.9483  -44.4345 H         1 UNK         0.3000 
    185 H185        1.0030  -12.0212  -46.0737 H         1 UNK         0.0600 
    186 H186        3.4334  -13.7743  -45.4410 H         1 UNK         0.0600 
    187 H187        3.4171  -12.3089  -46.4136 H         1 UNK         0.0600 
    188 H188        3.0927  -12.2189  -44.6896 H         1 UNK         0.0600 
    189 H189        1.9675  -14.5802  -47.1655 H         1 UNK         0.3000 
    190 H190       -3.0314  -21.0773  -46.8845 H         1 UNK         0.3000 
    191 H191       -5.1012  -22.3319  -48.3651 H         1 UNK         0.0600 
    192 H192       -5.3932  -20.2744  -46.9783 H         1 UNK         0.0600 
    193 H193       -6.5420  -21.5197  -46.5111 H         1 UNK         0.0600 
    194 H194       -5.1256  -21.2084  -45.5120 H         1 UNK         0.0600 
    195 H195       -3.3853  -23.3264  -45.3874 H         1 UNK         0.3000 
    196 H196       -5.0443  -25.5316  -44.7444 H         1 UNK         0.0600 
    197 H197       -3.1473  -26.1739  -43.2367 H         1 UNK         0.0600 
    198 H198       -3.5949  -24.4845  -43.0719 H         1 UNK         0.0600 
    199 H199       -2.1460  -24.9284  -43.9711 H         1 UNK         0.0600 
    200 H200       -1.7961  -25.5193  -46.3796 H         1 UNK         0.3000 
    201 H201       -2.4576  -27.9292  -47.8778 H         1 UNK         0.0600 
    202 H202       -2.0679  -29.0052  -45.6767 H         1 UNK         0.0600 
    203 H203       -0.5336  -28.1577  -45.4962 H         1 UNK         0.0600 
    204 H204       -0.7300  -29.3882  -46.7379 H         1 UNK         0.0600 
    205 H205       -0.1367  -25.3481  -47.1456 H         1 UNK         0.3000 
    206 H206        2.0587  -26.5406  -48.4782 H         1 UNK         0.0600 
    207 H207        3.1481  -24.3707  -48.2156 H         1 UNK         0.0600 
    208 H208        1.6224  -23.5722  -47.8942 H         1 UNK         0.0600 
    209 H209        2.2588  -24.7519  -46.7504 H         1 UNK         0.0600 
    210 H210       -0.5598  -24.5790  -49.7468 H         1 UNK         0.3000 
    211 H211       -1.1434  -23.8112  -51.7622 H         1 UNK         0.0600 
    212 H212        0.0955  -26.4726  -52.6380 H         1 UNK         0.0600 
    213 H213       -1.1366  -25.5681  -53.5123 H         1 UNK         0.0600 
    214 H214       -1.5112  -26.2651  -51.9444 H         1 UNK         0.0600 
    215 H215        0.9561  -22.3450  -51.1593 H         1 UNK         0.3000 
    216 H216        3.1652  -22.3251  -52.9423 H         1 UNK         0.0600 
    217 H217        3.1594  -21.2030  -50.7178 H         1 UNK         0.0600 
    218 H218        1.9393  -20.0580  -51.2769 H         1 UNK         0.0600 
    219 H219        3.5465  -20.0541  -51.9887 H         1 UNK         0.0600 
    220 H220       -0.1103  -21.1449  -53.3198 H         1 UNK         0.3000 
    221 H221        0.3921  -20.6214  -56.1327 H         1 UNK         0.0600 
    222 H222        0.5306  -18.3070  -55.1017 H         1 UNK         0.0600 
    223 H223       -0.8885  -18.4880  -56.1230 H         1 UNK         0.0600 
    224 H224       -1.0569  -18.5517  -54.3765 H         1 UNK         0.0600 
    225 H225       -1.6425  -20.7777  -57.3185 H         1 UNK         0.3000 
    226 H226       -3.4861  -22.7371  -56.1829 H         1 UNK         0.0600 
    227 H227       -2.6999  -22.9135  -58.5436 H         1 UNK         0.0600 
    228 H228       -4.4410  -22.6901  -58.4900 H         1 UNK         0.0600 
    229 H229       -3.3999  -21.3374  -58.9149 H         1 UNK         0.0600 
    230 H230       -5.7136  -22.4456  -55.9577 H         1 UNK         0.3000 
    231 H231       -7.6093  -21.5377  -55.3017 H         1 UNK         0.0600 
    232 H232       -8.5352  -19.6204  -56.5823 H         1 UNK         0.0600 
    233 H233       -7.7575  -20.7717  -57.6496 H         1 UNK         0.0600 
    234 H234       -6.9445  -19.2642  -57.2551 H         1 UNK         0.0600 
    235 H235       -7.2391  -18.2200  -55.4786 H         1 UNK         0.3000 
    236 H236       -7.2022  -16.5639  -54.0041 H         1 UNK         0.0600 
    237 H237       -5.2432  -16.4278  -52.4670 H         1 UNK         0.0600 
    238 H238       -4.8824  -18.1312  -52.7526 H         1 UNK         0.0600 
    239 H239       -4.7634  -16.9697  -54.0644 H         1 UNK         0.0600 
    240 H240       -6.1535  -17.9325  -51.0868 H         1 UNK         0.3000 
    241 H241       -8.8059  -17.8033  -49.9134 H         1 UNK         0.0600 
    242 H242       -8.2178  -21.6838  -50.8148 H         1 UNK         0.3800 
    243 H243       -7.3023  -20.4267  -51.6068 H         1 UNK         0.3800 
    244 H244       -7.7395  -18.1974  -47.7726 H         1 UNK         0.0800 
    245 H245       -6.2637  -18.7148  -48.5241 H         1 UNK         0.0800 
    246 H246       -4.3970  -15.5631  -47.7544 H         1 UNK         0.0800 
    247 H247       -4.6798  -17.2285  -47.3056 H         1 UNK         0.0800 
@<TRIPOS>BOND
     1    1    2 1    
     2    1  127 1    
     3    1  128 1    
     4    1  129 1    
     5    2    3 2    
     6    2    4 am   BACKBONE|DICT|INTERRES
     7    4    5 1    
     8    4  130 1    
     9    5    6 1    
    10    5   65 1    
    11    5  131 1    
    12    6    7 1    
    13    6  132 1    
    14    6  133 1    
    15    7    8 1    
    16    8    9 1    
    17    8  134 1    
    18    8  135 1    
    19    9   10 ar   
    20    9   14 ar   
    21   10   11 ar   
    22   10  136 1    
    23   11   12 ar   
    24   11  126 1    
    25   12   13 ar   
    26   12  137 1    
    27   13   14 ar   
    28   13   15 1    
    29   14  138 1    
    30   15   16 1    
    31   15  139 1    
    32   15  140 1    
    33   16   17 1    
    34   17   18 1    
    35   17  141 1    
    36   17  142 1    
    37   18   19 1    
    38   18   67 1    
    39   18  143 1    
    40   19   20 am   BACKBONE|DICT|INTERRES
    41   19  144 1    
    42   20   21 2    
    43   20   22 1    
    44   22   23 1    
    45   22   24 1    
    46   22  145 1    
    47   23  146 1    
    48   23  147 1    
    49   23  148 1    
    50   24   25 am   BACKBONE|DICT|INTERRES
    51   24  149 1    
    52   25   26 2    
    53   25   27 1    
    54   27   28 1    
    55   27   29 1    
    56   27  150 1    
    57   28  151 1    
    58   28  152 1    
    59   28  153 1    
    60   29   30 am   BACKBONE|DICT|INTERRES
    61   29  154 1    
    62   30   31 2    
    63   30   32 1    
    64   32   33 1    
    65   32   34 1    
    66   32  155 1    
    67   33  156 1    
    68   33  157 1    
    69   33  158 1    
    70   34   35 am   BACKBONE|DICT|INTERRES
    71   34  159 1    
    72   35   36 2    
    73   35   37 1    
    74   37   38 1    
    75   37   39 1    
    76   37  160 1    
    77   38  161 1    
    78   38  162 1    
    79   38  163 1    
    80   39   40 am   BACKBONE|DICT|INTERRES
    81   39  164 1    
    82   40   41 2    
    83   40   42 1    
    84   42   43 1    
    85   42   44 1    
    86   42  165 1    
    87   43  166 1    
    88   43  167 1    
    89   43  168 1    
    90   44   45 am   BACKBONE|DICT|INTERRES
    91   44  169 1    
    92   45   46 2    
    93   45   47 1    
    94   47   48 1    
    95   47   49 1    
    96   47  170 1    
    97   48  171 1    
    98   48  172 1    
    99   48  173 1    
   100   49   50 am   BACKBONE|DICT|INTERRES
   101   49  174 1    
   102   50   51 2    
   103   50   52 1    
   104   52   53 1    
   105   52   54 1    
   106   52  175 1    
   107   53  176 1    
   108   53  177 1    
   109   53  178 1    
   110   54   55 am   BACKBONE|DICT|INTERRES
   111   54  179 1    
   112   55   56 2    
   113   55   57 1    
   114   57   58 1    
   115   57   59 1    
   116   57  180 1    
   117   58  181 1    
   118   58  182 1    
   119   58  183 1    
   120   59   60 am   BACKBONE|DICT|INTERRES
   121   59  184 1    
   122   60   61 2    
   123   60   62 1    
   124   62   63 1    
   125   62   64 1    
   126   62  185 1    
   127   63  186 1    
   128   63  187 1    
   129   63  188 1    
   130   64   65 am   BACKBONE|DICT|INTERRES
   131   64  189 1    
   132   65   66 2    
   133   67   68 2    
   134   67   69 am   BACKBONE|DICT|INTERRES
   135   69   70 1    
   136   69  190 1    
   137   70   71 1    
   138   70   72 1    
   139   70  191 1    
   140   71  192 1    
   141   71  193 1    
   142   71  194 1    
   143   72   73 2    
   144   72   74 am   BACKBONE|DICT|INTERRES
   145   74   75 1    
   146   74  195 1    
   147   75   76 1    
   148   75   77 1    
   149   75  196 1    
   150   76  197 1    
   151   76  198 1    
   152   76  199 1    
   153   77   78 2    
   154   77   79 am   BACKBONE|DICT|INTERRES
   155   79   80 1    
   156   79  200 1    
   157   80   81 1    
   158   80   82 1    
   159   80  201 1    
   160   81  202 1    
   161   81  203 1    
   162   81  204 1    
   163   82   83 2    
   164   82   84 am   BACKBONE|DICT|INTERRES
   165   84   85 1    
   166   84  205 1    
   167   85   86 1    
   168   85   87 1    
   169   85  206 1    
   170   86  207 1    
   171   86  208 1    
   172   86  209 1    
   173   87   88 2    
   174   87   89 am   BACKBONE|DICT|INTERRES
   175   89   90 1    
   176   89  210 1    
   177   90   91 1    
   178   90   92 1    
   179   90  211 1    
   180   91  212 1    
   181   91  213 1    
   182   91  214 1    
   183   92   93 2    
   184   92   94 am   BACKBONE|DICT|INTERRES
   185   94   95 1    
   186   94  215 1    
   187   95   96 1    
   188   95   97 1    
   189   95  216 1    
   190   96  217 1    
   191   96  218 1    
   192   96  219 1    
   193   97   98 2    
   194   97   99 am   BACKBONE|DICT|INTERRES
   195   99  100 1    
   196   99  220 1    
   197  100  101 1    
   198  100  102 1    
   199  100  221 1    
   200  101  222 1    
   201  101  223 1    
   202  101  224 1    
   203  102  103 2    
   204  102  104 am   BACKBONE|DICT|INTERRES
   205  104  105 1    
   206  104  225 1    
   207  105  106 1    
   208  105  107 1    
   209  105  226 1    
   210  106  227 1    
   211  106  228 1    
   212  106  229 1    
   213  107  108 2    
   214  107  109 am   BACKBONE|DICT|INTERRES
   215  109  110 1    
   216  109  230 1    
   217  110  111 1    
   218  110  112 1    
   219  110  231 1    
   220  111  232 1    
   221  111  233 1    
   222  111  234 1    
   223  112  113 2    
   224  112  114 am   BACKBONE|DICT|INTERRES
   225  114  115 1    
   226  114  235 1    
   227  115  116 1    
   228  115  117 1    
   229  115  236 1    
   230  116  237 1    
   231  116  238 1    
   232  116  239 1    
   233  117  118 2    
   234  117  119 am   BACKBONE|DICT|INTERRES
   235  119  120 1    
   236  119  240 1    
   237  120  121 1    
   238  120  124 1    
   239  120  241 1    
   240  121  122 am   BACKBONE|DICT|INTERRES
   241  121  123 2    
   242  122  242 1    
   243  122  243 1    
   244  124  125 1    
   245  124  244 1    
   246  124  245 1    
   247  125  126 1    
   248  126  246 1    
   249  126  247 1    
@<TRIPOS>SUBSTRUCTURE
     1 UNK         1 GROUP             0       ****    0 ROOT    
