@<TRIPOS>MOLECULE
3R540
247   249    1
SMALL
USER_CHARGES


@<TRIPOS>ATOM
      1 CA          3.8652  -16.9722  -48.0476 C.3       0 UNK        -0.1800 
      2 C           3.6885  -16.2637  -49.3836 C.2       0 UNK         0.5000 
      3 O           4.3310  -15.2426  -49.6265 O.2       0 UNK        -0.5000 
      4 N           2.8071  -16.7996  -50.2380 N.am      1 UNK        -0.5000 
      5 CA          2.4651  -16.3105  -51.5857 C.3       1 UNK         0.1400 
      6 C6          3.6482  -16.3343  -52.5969 C.3       23 UNK        -0.0398 
      7 S7          4.6096  -17.8897  -52.6025 S.3       23 UNK        -0.2404 
      8 C8          3.6975  -18.9138  -53.8041 C.3       23 UNK        -0.0205 
      9 C9          2.3350  -19.3508  -53.2826 C.ar      23 UNK        -0.0193 
     10 C10         1.1735  -19.0409  -53.9955 C.ar      23 UNK        -0.1150 
     11 C11        -0.0786  -19.4393  -53.5191 C.ar      23 UNK        -0.0193 
     12 C12        -0.1643  -20.1413  -52.3146 C.ar      23 UNK        -0.1150 
     13 C13         0.9854  -20.4505  -51.5829 C.ar      23 UNK        -0.0193 
     14 C14         2.2341  -20.0715  -52.0883 C.ar      23 UNK        -0.1150 
     15 C15         0.8539  -21.2189  -50.2718 C.3       23 UNK        -0.0205 
     16 S16         2.0045  -20.6583  -48.9699 S.3       23 UNK        -0.2404 
     17 C17         0.9298  -20.6204  -47.4998 C.3       23 UNK        -0.0398 
     18 CA          0.8303  -21.9844  -46.7700 C.3       11 UNK         0.1400 
     19 N           0.6824  -21.8216  -45.3213 N.am      11 UNK        -0.5000 
     20 C           0.6834  -22.8196  -44.4249 C.2       10 UNK         0.5000 
     21 O           0.8956  -23.9980  -44.7105 O.2       10 UNK        -0.5000 
     22 CA          0.3062  -22.4425  -42.9789 C.3       10 UNK         0.1400 
     23 CB          1.5091  -21.8629  -42.2203 C.3       10 UNK        -0.1800 
     24 N          -0.8113  -21.4959  -42.9399 N.am      10 UNK        -0.5000 
     25 C          -2.0472  -21.7802  -43.3766 C.2       9 UNK         0.5000 
     26 O          -2.3949  -22.9013  -43.7464 O.2       9 UNK        -0.5000 
     27 CA         -3.0384  -20.6082  -43.4793 C.3       9 UNK         0.1400 
     28 CB         -3.7679  -20.3825  -42.1467 C.3       9 UNK        -0.1800 
     29 N          -2.3734  -19.3735  -43.8987 N.am      9 UNK        -0.5000 
     30 C          -1.9676  -19.1195  -45.1514 C.2       8 UNK         0.5000 
     31 O          -2.1615  -19.8765  -46.1026 O.2       8 UNK        -0.5000 
     32 CA         -1.1712  -17.8229  -45.3806 C.3       8 UNK         0.1400 
     33 CB         -2.1044  -16.6661  -45.7635 C.3       8 UNK        -0.1800 
     34 N          -0.3560  -17.4424  -44.2274 N.am      8 UNK        -0.5000 
     35 C           0.7442  -18.1042  -43.8426 C.2       7 UNK         0.5000 
     36 O           1.1822  -19.0901  -44.4329 O.2       7 UNK        -0.5000 
     37 CA          1.4371  -17.6267  -42.5525 C.3       7 UNK         0.1400 
     38 CB          2.5294  -16.5950  -42.8701 C.3       7 UNK        -0.1800 
     39 N           0.5136  -17.0815  -41.5503 N.am      7 UNK        -0.5000 
     40 C          -0.4700  -17.7926  -40.9765 C.2       6 UNK         0.5000 
     41 O          -0.7326  -18.9548  -41.2882 O.2       6 UNK        -0.5000 
     42 CA         -1.3196  -17.0947  -39.9067 C.3       6 UNK         0.1400 
     43 CB         -0.6522  -17.1917  -38.5246 C.3       6 UNK        -0.1800 
     44 N          -1.5855  -15.6937  -40.2423 N.am      6 UNK        -0.5000 
     45 C          -2.7099  -15.0427  -39.9167 C.2       5 UNK         0.5000 
     46 O          -3.6438  -15.5596  -39.3015 O.2       5 UNK        -0.5000 
     47 CA         -2.8177  -13.5603  -40.3276 C.3       5 UNK         0.1400 
     48 CB         -2.4868  -12.6526  -39.1323 C.3       5 UNK        -0.1800 
     49 N          -1.9694  -13.1756  -41.4602 N.am      5 UNK        -0.5000 
     50 C          -2.1772  -13.5490  -42.7285 C.2       4 UNK         0.5000 
     51 O          -3.0574  -14.3396  -43.0786 O.2       4 UNK        -0.5000 
     52 CA         -1.2361  -12.9429  -43.7791 C.3       4 UNK         0.1400 
     53 CB          0.1441  -13.6240  -43.7468 C.3       4 UNK        -0.1800 
     54 N          -1.8439  -13.1093  -45.0939 N.am      4 UNK        -0.5000 
     55 C          -1.5076  -12.4478  -46.2041 C.2       3 UNK         0.5000 
     56 O          -0.6493  -11.5626  -46.2463 O.2       3 UNK        -0.5000 
     57 CA         -2.2865  -12.8255  -47.4790 C.3       3 UNK         0.1400 
     58 CB         -3.4912  -11.8911  -47.6718 C.3       3 UNK        -0.1800 
     59 N          -1.4461  -12.7800  -48.6762 N.am      3 UNK        -0.5000 
     60 C          -0.4098  -13.5972  -48.9007 C.2       2 UNK         0.5000 
     61 O          -0.0785  -14.5104  -48.1376 O.2       2 UNK        -0.5000 
     62 CA          0.3902  -13.3556  -50.1906 C.3       2 UNK         0.1400 
     63 CB          1.2751  -12.1013  -50.0766 C.3       2 UNK        -0.1800 
     64 N           1.2214  -14.5280  -50.4242 N.am      2 UNK        -0.5000 
     65 C           1.7274  -14.9464  -51.5884 C.2       1 UNK         0.5000 
     66 O           1.6091  -14.3156  -52.6400 O.2       1 UNK        -0.5000 
     67 C          -0.2965  -22.8594  -47.3608 C.2       11 UNK         0.5000 
     68 O          -0.0065  -23.7779  -48.1268 O.2       11 UNK        -0.5000 
     69 N          -1.5494  -22.5917  -46.9553 N.am      12 UNK        -0.5000 
     70 CA         -2.7375  -23.3564  -47.3423 C.3       12 UNK         0.1400 
     71 CB         -4.0070  -22.7180  -46.7521 C.3       12 UNK        -0.1800 
     72 C          -2.6516  -24.8369  -46.9444 C.2       12 UNK         0.5000 
     73 O          -2.9414  -25.7006  -47.7704 O.2       12 UNK        -0.5000 
     74 N          -2.2222  -25.1002  -45.7037 N.am      13 UNK        -0.5000 
     75 CA         -2.0070  -26.4455  -45.1726 C.3       13 UNK         0.1400 
     76 CB         -1.7147  -26.3547  -43.6672 C.3       13 UNK        -0.1800 
     77 C          -0.8866  -27.2109  -45.9029 C.2       13 UNK         0.5000 
     78 O          -1.0160  -28.4176  -46.1123 O.2       13 UNK        -0.5000 
     79 N           0.1840  -26.4994  -46.2791 N.am      14 UNK        -0.5000 
     80 CA          1.3362  -27.0515  -46.9862 C.3       14 UNK         0.1400 
     81 CB          2.5293  -26.0929  -46.8409 C.3       14 UNK        -0.1800 
     82 C           1.0481  -27.3458  -48.4698 C.2       14 UNK         0.5000 
     83 O           1.3255  -28.4533  -48.9322 O.2       14 UNK        -0.5000 
     84 N           0.5316  -26.3459  -49.1958 N.am      15 UNK        -0.5000 
     85 CA          0.3998  -26.3787  -50.6548 C.3       15 UNK         0.1400 
     86 CB          0.6168  -24.9582  -51.1967 C.3       15 UNK        -0.1800 
     87 C          -0.9501  -26.9213  -51.1530 C.2       15 UNK         0.5000 
     88 O          -1.0589  -27.2293  -52.3403 O.2       15 UNK        -0.5000 
     89 N          -1.9569  -26.9884  -50.2689 N.am      16 UNK        -0.5000 
     90 CA         -3.3659  -27.2973  -50.5565 C.3       16 UNK         0.1400 
     91 CB         -3.5321  -28.7079  -51.1611 C.3       16 UNK        -0.1800 
     92 C          -4.0758  -26.1972  -51.3810 C.2       16 UNK         0.5000 
     93 O          -5.1162  -26.4585  -51.9874 O.2       16 UNK        -0.5000 
     94 N          -3.5187  -24.9808  -51.3687 N.am      17 UNK        -0.5000 
     95 CA         -4.0498  -23.7748  -51.9905 C.3       17 UNK         0.1400 
     96 CB         -3.5382  -23.6538  -53.4355 C.3       17 UNK        -0.1800 
     97 C          -3.5825  -22.5967  -51.1310 C.2       17 UNK         0.5000 
     98 O          -2.3886  -22.5065  -50.8379 O.2       17 UNK        -0.5000 
     99 N          -4.5220  -21.7508  -50.6952 N.am      18 UNK        -0.5000 
    100 CA        -4.2540  -20.6460  -49.7782 C.3       18 UNK         0.1400 
    101 CB        -5.5660  -20.1994  -49.1163 C.3       18 UNK        -0.1800 
    102 C         -3.5700  -19.4632  -50.4746 C.2       18 UNK         0.5000 
    103 O         -3.9925  -19.0533  -51.5574 O.2       18 UNK        -0.5000 
    104 N         -2.5666  -18.8929  -49.7986 N.am      19 UNK        -0.5000 
    105 CA        -1.8067  -17.7332  -50.2688 C.3       19 UNK         0.1400 
    106 CB        -0.5611  -17.5795  -49.3939 C.3       19 UNK        -0.1800 
    107 C         -2.6232  -16.4278  -50.2891 C.2       19 UNK         0.5000 
    108 O         -2.2817  -15.5086  -51.0307 O.2       19 UNK        -0.5000 
    109 N         -3.6914  -16.3766  -49.4826 N.am      20 UNK        -0.5000 
    110 CA        -4.6517  -15.2767  -49.4544 C.3       20 UNK         0.1400 
    111 CB        -5.3522  -15.2711  -48.0861 C.3       20 UNK        -0.1800 
    112 C         -5.6916  -15.3597  -50.5898 C.2       20 UNK         0.5000 
    113 O         -6.3188  -14.3447  -50.8947 O.2       20 UNK        -0.5000 
    114 N         -5.8853  -16.5530  -51.1732 N.am      21 UNK        -0.5000 
    115 CA        -6.8608  -16.7898  -52.2377 C.3       21 UNK         0.1400 
    116 CB        -7.3185  -18.2565  -52.2098 C.3       21 UNK        -0.1800 
    117 C         -6.3087  -16.4141  -53.6218 C.2       21 UNK         0.5000 
    118 O         -7.0482  -15.8517  -54.4312 O.2       21 UNK        -0.5000 
    119 N         -5.0313  -16.7286  -53.8729 N.am      22 UNK        -0.5000 
    120 CA        -4.3186  -16.3517  -55.1023 C.3       22 UNK         0.1400 
    121 C         -3.8991  -14.8521  -55.1468 C.2       22 UNK         0.5000 
    122 N         -3.5232  -14.3451  -56.3141 N.am      22 UNK        -0.7600 
    123 O         -3.9049  -14.1396  -54.1453 O.2       22 UNK        -0.5000 
    124 C124       -3.1477  -17.3190  -55.4144 C.3       23 UNK        -0.0398 
    125 S125       -1.8456  -17.3984  -54.1372 S.3       23 UNK        -0.2404 
    126 C126       -1.3335  -19.1334  -54.3200 C.3       23 UNK        -0.0205 
    127 H127        4.8960  -17.3077  -47.9344 H         1 UNK         0.0600 
    128 H128        3.2133  -17.8418  -47.9590 H         1 UNK         0.0600 
    129 H129        3.6340  -16.2916  -47.2281 H         1 UNK         0.0600 
    130 H130        2.3458  -17.6586  -49.9745 H         1 UNK         0.3000 
    131 H131        1.7180  -17.0147  -51.9511 H         1 UNK         0.0600 
    132 H132        4.3438  -15.5236  -52.3750 H         1 UNK         0.0800 
    133 H133        3.2871  -16.1487  -53.6098 H         1 UNK         0.0800 
    134 H134        3.6042  -18.3688  -54.7447 H         1 UNK         0.0800 
    135 H135        4.2874  -19.8047  -54.0230 H         1 UNK         0.0800 
    136 H136        1.2394  -18.4921  -54.9246 H         1 UNK         0.1150 
    137 H137       -1.1321  -20.4513  -51.9477 H         1 UNK         0.1150 
    138 H138        3.1344  -20.3209  -51.5449 H         1 UNK         0.1150 
    139 H139       -0.1730  -21.1557  -49.9096 H         1 UNK         0.0800 
    140 H140        1.0442  -22.2722  -50.4660 H         1 UNK         0.0800 
    141 H141       -0.0500  -20.2127  -47.7506 H         1 UNK         0.0800 
    142 H142        1.3866  -19.8817  -46.8424 H         1 UNK         0.0800 
    143 H143        1.7693  -22.5232  -46.9150 H         1 UNK         0.0600 
    144 H144        0.5799  -20.8708  -44.9808 H         1 UNK         0.3000 
    145 H145       -0.0091  -23.3545  -42.4676 H         1 UNK         0.0600 
    146 H146        1.2435  -21.6103  -41.1936 H         1 UNK         0.0600 
    147 H147        2.3248  -22.5855  -42.1782 H         1 UNK         0.0600 
    148 H148        1.8958  -20.9628  -42.6967 H         1 UNK         0.0600 
    149 H149       -0.6201  -20.5628  -42.5922 H         1 UNK         0.3000 
    150 H150       -3.7870  -20.8681  -44.2305 H         1 UNK         0.0600 
    151 H151       -4.3199  -21.2759  -41.8521 H         1 UNK         0.0600 
    152 H152       -4.4873  -19.5672  -42.2241 H         1 UNK         0.0600 
    153 H153       -3.0777  -20.1455  -41.3373 H         1 UNK         0.0600 
    154 H154       -2.1201  -18.7284  -43.1642 H         1 UNK         0.3000 
    155 H155       -0.4949  -18.0050  -46.2169 H         1 UNK         0.0600 
    156 H156       -1.5301  -15.7831  -46.0424 H         1 UNK         0.0600 
    157 H157       -2.7256  -16.9300  -46.6199 H         1 UNK         0.0600 
    158 H158       -2.7710  -16.3956  -44.9441 H         1 UNK         0.0600 
    159 H159       -0.6715  -16.6591  -43.6765 H         1 UNK         0.3000 
    160 H160        1.9219  -18.4983  -42.1079 H         1 UNK         0.0600 
    161 H161        2.1177  -15.6836  -43.3015 H         1 UNK         0.0600 
    162 H162        3.2480  -16.9977  -43.5854 H         1 UNK         0.0600 
    163 H163        3.0862  -16.3210  -41.9739 H         1 UNK         0.0600 
    164 H164        0.7205  -16.1556  -41.2100 H         1 UNK         0.3000 
    165 H165       -2.2652  -17.6404  -39.8678 H         1 UNK         0.0600 
    166 H166       -1.3026  -16.7958  -37.7445 H         1 UNK         0.0600 
    167 H167       -0.4327  -18.2288  -38.2677 H         1 UNK         0.0600 
    168 H168        0.2863  -16.6373  -38.4908 H         1 UNK         0.0600 
    169 H169       -0.8836  -15.1970  -40.7678 H         1 UNK         0.3000 
    170 H170       -3.8572  -13.3802  -40.6103 H         1 UNK         0.0600 
    171 H171       -3.1218  -12.8850  -38.2762 H         1 UNK         0.0600 
    172 H172       -1.4505  -12.7695  -38.8130 H         1 UNK         0.0600 
    173 H173       -2.6477  -11.6025  -39.3769 H         1 UNK         0.0600 
    174 H174       -1.2221  -12.5271  -41.2566 H         1 UNK         0.3000 
    175 H175       -1.1276  -11.8772  -43.5666 H         1 UNK         0.0600 
    176 H176        0.5909  -13.5768  -42.7532 H         1 UNK         0.0600 
    177 H177        0.0741  -14.6722  -44.0336 H         1 UNK         0.0600 
    178 H178        0.8398  -13.1415  -44.4334 H         1 UNK         0.0600 
    179 H179       -2.6053  -13.7771  -45.1020 H         1 UNK         0.3000 
    180 H180       -2.6522  -13.8483  -47.3729 H         1 UNK         0.0600 
    181 H181       -3.1791  -10.8514  -47.7782 H         1 UNK         0.0600 
    182 H182       -4.1668  -11.9447  -46.8172 H         1 UNK         0.0600 
    183 H183       -4.0683  -12.1585  -48.5566 H         1 UNK         0.0600 
    184 H184       -1.6352  -12.0351  -49.3302 H         1 UNK         0.3000 
    185 H185       -0.3143  -13.2438  -51.0175 H         1 UNK         0.0600 
    186 H186        1.9893  -12.1904  -49.2570 H         1 UNK         0.0600 
    187 H187        0.6742  -11.2099  -49.8942 H         1 UNK         0.0600 
    188 H188        1.8387  -11.9290  -50.9936 H         1 UNK         0.0600 
    189 H189        1.3338  -15.1078  -49.6017 H         1 UNK         0.3000 
    190 H190       -1.7079  -21.7848  -46.3615 H         1 UNK         0.3000 
    191 H191       -2.8054  -23.3132  -48.4275 H         1 UNK         0.0600 
    192 H192       -4.1105  -22.9204  -45.6869 H         1 UNK         0.0600 
    193 H193       -4.8968  -23.1166  -47.2406 H         1 UNK         0.0600 
    194 H194       -4.0224  -21.6371  -46.8784 H         1 UNK         0.0600 
    195 H195       -2.0511  -24.3232  -45.0720 H         1 UNK         0.3000 
    196 H196       -2.9333  -27.0081  -45.3059 H         1 UNK         0.0600 
    197 H197       -1.5813  -27.3468  -43.2342 H         1 UNK         0.0600 
    198 H198       -2.5358  -25.8740  -43.1348 H         1 UNK         0.0600 
    199 H199       -0.8079  -25.7833  -43.4668 H         1 UNK         0.0600 
    200 H200        0.2290  -25.5179  -46.0284 H         1 UNK         0.3000 
    201 H201        1.6103  -27.9945  -46.5084 H         1 UNK         0.0600 
    202 H202        2.7971  -25.9557  -45.7931 H         1 UNK         0.0600 
    203 H203        2.3129  -25.1093  -47.2593 H         1 UNK         0.0600 
    204 H204        3.4095  -26.4825  -47.3537 H         1 UNK         0.0600 
    205 H205        0.3264  -25.4563  -48.7420 H         1 UNK         0.3000 
    206 H206        1.1811  -27.0158  -51.0748 H         1 UNK         0.0600 
    207 H207        1.5855  -24.5649  -50.8887 H         1 UNK         0.0600 
    208 H208        0.5924  -24.9432  -52.2871 H         1 UNK         0.0600 
    209 H209       -0.1565  -24.2748  -50.8440 H         1 UNK         0.0600 
    210 H210       -1.7776  -26.6876  -49.3177 H         1 UNK         0.3000 
    211 H211       -3.8712  -27.3108  -49.5907 H         1 UNK         0.0600 
    212 H212       -3.1644  -28.7609  -52.1858 H         1 UNK         0.0600 
    213 H213       -4.5825  -29.0004  -51.1807 H         1 UNK         0.0600 
    214 H214       -2.9999  -29.4550  -50.5723 H         1 UNK         0.0600 
    215 H215       -2.6790  -24.8354  -50.8240 H         1 UNK         0.3000 
    216 H216       -5.1413  -23.8099  -51.9931 H         1 UNK         0.0600 
    217 H217       -2.4482  -23.6266  -53.4745 H         1 UNK         0.0600 
    218 H218       -3.9080  -22.7413  -53.9046 H         1 UNK         0.0600 
    219 H219       -3.8733  -24.4939  -54.0439 H         1 UNK         0.0600 
    220 H220       -5.4769  -21.8620  -51.0030 H         1 UNK         0.3000 
    221 H221       -3.5830  -21.0076  -48.9989 H         1 UNK         0.0600 
    222 H222       -6.0296  -21.0196  -48.5680 H         1 UNK         0.0600 
    223 H223       -6.2865  -19.8406  -49.8511 H         1 UNK         0.0600 
    224 H224       -5.3922  -19.3925  -48.4033 H         1 UNK         0.0600 
    225 H225       -2.2984  -19.2750  -48.9029 H         1 UNK         0.3000 
    226 H226       -1.4820  -17.9262  -51.2907 H         1 UNK         0.0600 
    227 H227        0.0558  -18.4744  -49.4200 H         1 UNK         0.0600 
    228 H228        0.0520  -16.7590  -49.7505 H         1 UNK         0.0600 
    229 H229       -0.8199  -17.3631  -48.3596 H         1 UNK         0.0600 
    230 H230       -3.8907  -17.1714  -48.8952 H         1 UNK         0.3000 
    231 H231       -4.1127  -14.3346  -49.5695 H         1 UNK         0.0600 
    232 H232       -5.9367  -16.1787  -47.9298 H         1 UNK         0.0600 
    233 H233       -6.0337  -14.4236  -48.0011 H         1 UNK         0.0600 
    234 H234       -4.6353  -15.1919  -47.2694 H         1 UNK         0.0600 
    235 H235       -5.2935  -17.3321  -50.9200 H         1 UNK         0.3000 
    236 H236       -7.7422  -16.1711  -52.0545 H         1 UNK         0.0600 
    237 H237       -7.7734  -18.5079  -51.2519 H         1 UNK         0.0600 
    238 H238       -8.0669  -18.4435  -52.9809 H         1 UNK         0.0600 
    239 H239       -6.4929  -18.9461  -52.3849 H         1 UNK         0.0600 
    240 H240       -4.4786  -17.1764  -53.1545 H         1 UNK         0.3000 
    241 H241       -5.0306  -16.4721  -55.9215 H         1 UNK         0.0600 
    242 H242       -3.2468  -13.3764  -56.3570 H         1 UNK         0.3800 
    243 H243       -3.5154  -14.8968  -57.1579 H         1 UNK         0.3800 
    244 H244       -2.6776  -17.0610  -56.3645 H         1 UNK         0.0800 
    245 H245       -3.5568  -18.3201  -55.5577 H         1 UNK         0.0800 
    246 H246       -2.1539  -19.7824  -54.0082 H         1 UNK         0.0800 
    247 H247       -1.1484  -19.3500  -55.3732 H         1 UNK         0.0800 
@<TRIPOS>BOND
     1    1    2 1    
     2    1  127 1    
     3    1  128 1    
     4    1  129 1    
     5    2    3 2    
     6    2    4 am   BACKBONE|DICT|INTERRES
     7    4    5 1    
     8    4  130 1    
     9    5    6 1    
    10    5   65 1    
    11    5  131 1    
    12    6    7 1    
    13    6  132 1    
    14    6  133 1    
    15    7    8 1    
    16    8    9 1    
    17    8  134 1    
    18    8  135 1    
    19    9   10 ar   
    20    9   14 ar   
    21   10   11 ar   
    22   10  136 1    
    23   11   12 ar   
    24   11  126 1    
    25   12   13 ar   
    26   12  137 1    
    27   13   14 ar   
    28   13   15 1    
    29   14  138 1    
    30   15   16 1    
    31   15  139 1    
    32   15  140 1    
    33   16   17 1    
    34   17   18 1    
    35   17  141 1    
    36   17  142 1    
    37   18   19 1    
    38   18   67 1    
    39   18  143 1    
    40   19   20 am   BACKBONE|DICT|INTERRES
    41   19  144 1    
    42   20   21 2    
    43   20   22 1    
    44   22   23 1    
    45   22   24 1    
    46   22  145 1    
    47   23  146 1    
    48   23  147 1    
    49   23  148 1    
    50   24   25 am   BACKBONE|DICT|INTERRES
    51   24  149 1    
    52   25   26 2    
    53   25   27 1    
    54   27   28 1    
    55   27   29 1    
    56   27  150 1    
    57   28  151 1    
    58   28  152 1    
    59   28  153 1    
    60   29   30 am   BACKBONE|DICT|INTERRES
    61   29  154 1    
    62   30   31 2    
    63   30   32 1    
    64   32   33 1    
    65   32   34 1    
    66   32  155 1    
    67   33  156 1    
    68   33  157 1    
    69   33  158 1    
    70   34   35 am   BACKBONE|DICT|INTERRES
    71   34  159 1    
    72   35   36 2    
    73   35   37 1    
    74   37   38 1    
    75   37   39 1    
    76   37  160 1    
    77   38  161 1    
    78   38  162 1    
    79   38  163 1    
    80   39   40 am   BACKBONE|DICT|INTERRES
    81   39  164 1    
    82   40   41 2    
    83   40   42 1    
    84   42   43 1    
    85   42   44 1    
    86   42  165 1    
    87   43  166 1    
    88   43  167 1    
    89   43  168 1    
    90   44   45 am   BACKBONE|DICT|INTERRES
    91   44  169 1    
    92   45   46 2    
    93   45   47 1    
    94   47   48 1    
    95   47   49 1    
    96   47  170 1    
    97   48  171 1    
    98   48  172 1    
    99   48  173 1    
   100   49   50 am   BACKBONE|DICT|INTERRES
   101   49  174 1    
   102   50   51 2    
   103   50   52 1    
   104   52   53 1    
   105   52   54 1    
   106   52  175 1    
   107   53  176 1    
   108   53  177 1    
   109   53  178 1    
   110   54   55 am   BACKBONE|DICT|INTERRES
   111   54  179 1    
   112   55   56 2    
   113   55   57 1    
   114   57   58 1    
   115   57   59 1    
   116   57  180 1    
   117   58  181 1    
   118   58  182 1    
   119   58  183 1    
   120   59   60 am   BACKBONE|DICT|INTERRES
   121   59  184 1    
   122   60   61 2    
   123   60   62 1    
   124   62   63 1    
   125   62   64 1    
   126   62  185 1    
   127   63  186 1    
   128   63  187 1    
   129   63  188 1    
   130   64   65 am   BACKBONE|DICT|INTERRES
   131   64  189 1    
   132   65   66 2    
   133   67   68 2    
   134   67   69 am   BACKBONE|DICT|INTERRES
   135   69   70 1    
   136   69  190 1    
   137   70   71 1    
   138   70   72 1    
   139   70  191 1    
   140   71  192 1    
   141   71  193 1    
   142   71  194 1    
   143   72   73 2    
   144   72   74 am   BACKBONE|DICT|INTERRES
   145   74   75 1    
   146   74  195 1    
   147   75   76 1    
   148   75   77 1    
   149   75  196 1    
   150   76  197 1    
   151   76  198 1    
   152   76  199 1    
   153   77   78 2    
   154   77   79 am   BACKBONE|DICT|INTERRES
   155   79   80 1    
   156   79  200 1    
   157   80   81 1    
   158   80   82 1    
   159   80  201 1    
   160   81  202 1    
   161   81  203 1    
   162   81  204 1    
   163   82   83 2    
   164   82   84 am   BACKBONE|DICT|INTERRES
   165   84   85 1    
   166   84  205 1    
   167   85   86 1    
   168   85   87 1    
   169   85  206 1    
   170   86  207 1    
   171   86  208 1    
   172   86  209 1    
   173   87   88 2    
   174   87   89 am   BACKBONE|DICT|INTERRES
   175   89   90 1    
   176   89  210 1    
   177   90   91 1    
   178   90   92 1    
   179   90  211 1    
   180   91  212 1    
   181   91  213 1    
   182   91  214 1    
   183   92   93 2    
   184   92   94 am   BACKBONE|DICT|INTERRES
   185   94   95 1    
   186   94  215 1    
   187   95   96 1    
   188   95   97 1    
   189   95  216 1    
   190   96  217 1    
   191   96  218 1    
   192   96  219 1    
   193   97   98 2    
   194   97   99 am   BACKBONE|DICT|INTERRES
   195   99  100 1    
   196   99  220 1    
   197  100  101 1    
   198  100  102 1    
   199  100  221 1    
   200  101  222 1    
   201  101  223 1    
   202  101  224 1    
   203  102  103 2    
   204  102  104 am   BACKBONE|DICT|INTERRES
   205  104  105 1    
   206  104  225 1    
   207  105  106 1    
   208  105  107 1    
   209  105  226 1    
   210  106  227 1    
   211  106  228 1    
   212  106  229 1    
   213  107  108 2    
   214  107  109 am   BACKBONE|DICT|INTERRES
   215  109  110 1    
   216  109  230 1    
   217  110  111 1    
   218  110  112 1    
   219  110  231 1    
   220  111  232 1    
   221  111  233 1    
   222  111  234 1    
   223  112  113 2    
   224  112  114 am   BACKBONE|DICT|INTERRES
   225  114  115 1    
   226  114  235 1    
   227  115  116 1    
   228  115  117 1    
   229  115  236 1    
   230  116  237 1    
   231  116  238 1    
   232  116  239 1    
   233  117  118 2    
   234  117  119 am   BACKBONE|DICT|INTERRES
   235  119  120 1    
   236  119  240 1    
   237  120  121 1    
   238  120  124 1    
   239  120  241 1    
   240  121  122 am   BACKBONE|DICT|INTERRES
   241  121  123 2    
   242  122  242 1    
   243  122  243 1    
   244  124  125 1    
   245  124  244 1    
   246  124  245 1    
   247  125  126 1    
   248  126  246 1    
   249  126  247 1    
@<TRIPOS>SUBSTRUCTURE
     1 UNK         1 GROUP             0       ****    0 ROOT    
