@<TRIPOS>MOLECULE
3R540
247   249    1
SMALL
USER_CHARGES


@<TRIPOS>ATOM
      1 CA          1.6957  -15.1973  -51.1092 C.3       0 UNK        -0.1800 
      2 C           0.7521  -15.3428  -49.9243 C.2       0 UNK         0.5000 
      3 O           1.1724  -15.8075  -48.8662 O.2       0 UNK        -0.5000 
      4 N          -0.5167  -14.9542  -50.1099 N.am      1 UNK        -0.5000 
      5 CA         -1.6327  -15.0211  -49.1566 C.3       1 UNK         0.1400 
      6 C6         -2.8823  -14.3057  -49.7312 C.3       23 UNK        -0.0398 
      7 S7         -3.6221  -15.2203  -51.1298 S.3       23 UNK        -0.2404 
      8 C8         -5.2427  -15.7173  -50.4535 C.3       23 UNK        -0.0205 
      9 C9         -5.1537  -16.9664  -49.5867 C.ar      23 UNK        -0.0193 
     10 C10        -5.6016  -18.1980  -50.0741 C.ar      23 UNK        -0.1150 
     11 C11        -5.5238  -19.3463  -49.2802 C.ar      23 UNK        -0.0193 
     12 C12        -4.9693  -19.2597  -48.0005 C.ar      23 UNK        -0.1150 
     13 C13        -4.5270  -18.0336  -47.4920 C.ar      23 UNK        -0.0193 
     14 C14        -4.6407  -16.8918  -48.2888 C.ar      23 UNK        -0.1150 
     15 C15        -3.8897  -17.9106  -46.1102 C.3       23 UNK        -0.0205 
     16 S16        -4.8063  -18.7557  -44.7753 S.3       23 UNK        -0.2404 
     17 C17        -4.2126  -20.4889  -44.7259 C.3       23 UNK        -0.0398 
     18 CA         -2.6878  -20.7191  -44.9459 C.3       11 UNK         0.1400 
     19 N          -2.0876  -21.6671  -44.0047 N.am      11 UNK        -0.5000 
     20 C          -2.4835  -22.9100  -43.7003 C.2       10 UNK         0.5000 
     21 O          -3.4209  -23.4827  -44.2564 O.2       10 UNK        -0.5000 
     22 CA         -1.7000  -23.6230  -42.5822 C.3       10 UNK         0.1400 
     23 CB         -0.5403  -24.4388  -43.1703 C.3       10 UNK        -0.1800 
     24 N          -1.1687  -22.6634  -41.6107 N.am      10 UNK        -0.5000 
     25 C          -1.8457  -22.2102  -40.5456 C.2       9 UNK         0.5000 
     26 O          -2.9362  -22.6559  -40.1869 O.2       9 UNK        -0.5000 
     27 CA         -1.2131  -21.0377  -39.7674 C.3       9 UNK         0.1400 
     28 CB         -0.2062  -21.5536  -38.7288 C.3       9 UNK        -0.1800 
     29 N          -0.5483  -20.0701  -40.6420 N.am      9 UNK        -0.5000 
     30 C          -1.1674  -19.3123  -41.5591 C.2       8 UNK         0.5000 
     31 O          -2.3890  -19.2718  -41.6981 O.2       8 UNK        -0.5000 
     32 CA         -0.2779  -18.4843  -42.5082 C.3       8 UNK         0.1400 
     33 CB         -0.2414  -17.0192  -42.0507 C.3       8 UNK        -0.1800 
     34 N           1.0917  -18.9901  -42.6440 N.am      8 UNK        -0.5000 
     35 C           1.4469  -20.1990  -43.1052 C.2       7 UNK         0.5000 
     36 O           0.6367  -21.0440  -43.4857 O.2       7 UNK        -0.5000 
     37 CA          2.9481  -20.5376  -43.0955 C.3       7 UNK         0.1400 
     38 CB          3.6322  -20.0941  -44.3948 C.3       7 UNK        -0.1800 
     39 N           3.6344  -19.9199  -41.9634 N.am      7 UNK        -0.5000 
     40 C           3.6364  -20.4144  -40.7187 C.2       6 UNK         0.5000 
     41 O           3.0820  -21.4657  -40.3985 O.2       6 UNK        -0.5000 
     42 CA          4.3651  -19.5793  -39.6498 C.3       6 UNK         0.1400 
     43 CB          5.8602  -19.9302  -39.6164 C.3       6 UNK        -0.1800 
     44 N           4.2119  -18.1386  -39.8619 N.am      6 UNK        -0.5000 
     45 C           3.0604  -17.4726  -39.7009 C.2       5 UNK         0.5000 
     46 O           2.0126  -17.9993  -39.3258 O.2       5 UNK        -0.5000 
     47 CA          3.0764  -15.9704  -40.0417 C.3       5 UNK         0.1400 
     48 CB          3.4738  -15.1456  -38.8083 C.3       5 UNK        -0.1800 
     49 N           3.9518  -15.6126  -41.1638 N.am      5 UNK        -0.5000 
     50 C           3.8086  -16.0536  -42.4201 C.2       4 UNK         0.5000 
     51 O           2.9921  -16.9112  -42.7599 O.2       4 UNK        -0.5000 
     52 CA          4.7352  -15.4525  -43.4799 C.3       4 UNK         0.1400 
     53 CB          5.8107  -16.4645  -43.9057 C.3       4 UNK        -0.1800 
     54 N           3.9175  -15.0908  -44.6337 N.am      4 UNK        -0.5000 
     55 C           3.9972  -13.9334  -45.3000 C.2       3 UNK         0.5000 
     56 O           4.8411  -13.0681  -45.0601 O.2       3 UNK        -0.5000 
     57 CA          2.9710  -13.6812  -46.4246 C.3       3 UNK         0.1400 
     58 CB          3.6101  -13.9417  -47.7968 C.3       3 UNK        -0.1800 
     59 N           1.7247  -14.4496  -46.3187 N.am      3 UNK        -0.5000 
     60 C           0.8066  -14.2900  -45.3529 C.2       2 UNK         0.5000 
     61 O           0.9519  -13.5132  -44.4077 O.2       2 UNK        -0.5000 
     62 CA         -0.4826  -15.1387  -45.4606 C.3       2 UNK         0.1400 
     63 CB         -1.6415  -14.5859  -44.6047 C.3       2 UNK        -0.1800 
     64 N          -0.9272  -15.3773  -46.8389 N.am      2 UNK        -0.5000 
     65 C          -1.2661  -14.4627  -47.7618 C.2       1 UNK         0.5000 
     66 O          -1.2789  -13.2460  -47.5669 O.2       1 UNK        -0.5000 
     67 C          -2.3184  -21.0782  -46.3966 C.2       11 UNK         0.5000 
     68 O          -1.6514  -20.2910  -47.0707 O.2       11 UNK        -0.5000 
     69 N          -2.6908  -22.2893  -46.8303 N.am      12 UNK        -0.5000 
     70 CA         -2.3897  -22.8378  -48.1546 C.3       12 UNK         0.1400 
     71 CB         -3.0832  -24.1984  -48.3054 C.3       12 UNK        -0.1800 
     72 C          -0.8788  -22.9611  -48.4325 C.2       12 UNK         0.5000 
     73 O          -0.4568  -22.7974  -49.5762 O.2       12 UNK        -0.5000 
     74 N          -0.0899  -23.1962  -47.3732 N.am      13 UNK        -0.5000 
     75 CA          1.3726  -23.2410  -47.4114 C.3       13 UNK         0.1400 
     76 CB          1.8982  -23.7555  -46.0631 C.3       13 UNK        -0.1800 
     77 C           2.0136  -21.8793  -47.7388 C.2       13 UNK         0.5000 
     78 O           3.0773  -21.8508  -48.3578 O.2       13 UNK        -0.5000 
     79 N           1.3629  -20.7833  -47.3210 N.am      14 UNK        -0.5000 
     80 CA          1.7758  -19.4197  -47.6454 C.3       14 UNK         0.1400 
     81 CB          1.1897  -18.4332  -46.6179 C.3       14 UNK        -0.1800 
     82 C           1.3301  -19.0609  -49.0699 C.2       14 UNK         0.5000 
     83 O           2.1514  -18.6283  -49.8783 O.2       14 UNK        -0.5000 
     84 N           0.0336  -19.2721  -49.3392 N.am      15 UNK        -0.5000 
     85 CA         -0.6380  -18.9434  -50.5946 C.3       15 UNK         0.1400 
     86 CB         -2.1325  -19.2324  -50.4314 C.3       15 UNK        -0.1800 
     87 C          -0.0668  -19.6714  -51.8241 C.2       15 UNK         0.5000 
     88 O           0.0540  -19.0540  -52.8835 O.2       15 UNK        -0.5000 
     89 N           0.2825  -20.9557  -51.6543 N.am      16 UNK        -0.5000 
     90 CA          0.8961  -21.8894  -52.6073 C.3       16 UNK         0.1400 
     91 CB          2.2807  -21.3943  -53.0656 C.3       16 UNK        -0.1800 
     92 C           0.0021  -22.2568  -53.8075 C.2       16 UNK         0.5000 
     93 O          -0.2049  -23.4432  -54.0673 O.2       16 UNK        -0.5000 
     94 N          -0.5274  -21.2430  -54.4954 N.am      17 UNK        -0.5000 
     95 CA         -1.4837  -21.3416  -55.5885 C.3       17 UNK         0.1400 
     96 CB         -0.8026  -20.9346  -56.9091 C.3       17 UNK        -0.1800 
     97 C          -2.6863  -20.4621  -55.2206 C.2       17 UNK         0.5000 
     98 O          -3.6518  -20.9812  -54.6574 O.2       17 UNK        -0.5000 
     99 N          -2.5718  -19.1556  -55.5062 N.am      18 UNK        -0.5000 
    100 CA        -3.5413  -18.0782  -55.2705 C.3       18 UNK         0.1400 
    101 CB        -3.8313  -17.9222  -53.7630 C.3       18 UNK        -0.1800 
    102 C         -4.8416  -18.2074  -56.0906 C.2       18 UNK         0.5000 
    103 O         -5.0895  -19.2274  -56.7369 O.2       18 UNK        -0.5000 
    104 N         -5.6703  -17.1547  -56.0408 N.am      19 UNK        -0.5000 
    105 CA        -6.9772  -17.0804  -56.7062 C.3       19 UNK         0.1400 
    106 CB        -7.5184  -15.6476  -56.5860 C.3       19 UNK        -0.1800 
    107 C         -8.0044  -18.0932  -56.1594 C.2       19 UNK         0.5000 
    108 O         -8.9272  -18.4762  -56.8791 O.2       19 UNK        -0.5000 
    109 N         -7.8071  -18.5248  -54.9064 N.am      20 UNK        -0.5000 
    110 CA        -8.5671  -19.5862  -54.2474 C.3       20 UNK         0.1400 
    111 CB        -8.2855  -19.5157  -52.7391 C.3       20 UNK        -0.1800 
    112 C         -8.2340  -20.9964  -54.7773 C.2       20 UNK         0.5000 
    113 O         -9.0164  -21.9184  -54.5448 O.2       20 UNK        -0.5000 
    114 N         -7.0802  -21.1431  -55.4501 N.am      21 UNK        -0.5000 
    115 CA        -6.5093  -22.3848  -55.9834 C.3       21 UNK         0.1400 
    116 CB        -7.3869  -22.9501  -57.1197 C.3       21 UNK        -0.1800 
    117 C         -6.1823  -23.4292  -54.8929 C.2       21 UNK         0.5000 
    118 O         -6.2129  -24.6319  -55.1620 O.2       21 UNK        -0.5000 
    119 N         -5.8701  -22.9519  -53.6814 N.am      22 UNK        -0.5000 
    120 CA        -5.4302  -23.7701  -52.5422 C.3       22 UNK         0.1400 
    121 C         -3.9512  -24.2437  -52.6359 C.2       22 UNK         0.5000 
    122 N         -3.1129  -23.5947  -53.4320 N.am      22 UNK        -0.7600 
    123 O         -3.5718  -25.2194  -51.9945 O.2       22 UNK        -0.5000 
    124 C124       -5.7300  -23.0758  -51.1901 C.3       23 UNK        -0.0398 
    125 S125       -4.9365  -21.4409  -50.9962 S.3       23 UNK        -0.2404 
    126 C126       -6.0580  -20.6763  -49.7893 C.3       23 UNK        -0.0205 
    127 H127        1.2001  -14.7518  -51.9720 H         1 UNK         0.0600 
    128 H128        2.5446  -14.5689  -50.8412 H         1 UNK         0.0600 
    129 H129        2.0750  -16.1762  -51.4028 H         1 UNK         0.0600 
    130 H130       -0.7700  -14.5802  -51.0130 H         1 UNK         0.3000 
    131 H131       -1.8772  -16.0781  -49.0325 H         1 UNK         0.0600 
    132 H132       -3.6401  -14.1437  -48.9646 H         1 UNK         0.0800 
    133 H133       -2.6170  -13.3061  -50.0801 H         1 UNK         0.0800 
    134 H134       -5.6828  -14.8972  -49.8846 H         1 UNK         0.0800 
    135 H135       -5.9196  -15.8947  -51.2904 H         1 UNK         0.0800 
    136 H136       -6.0125  -18.2648  -51.0707 H         1 UNK         0.1150 
    137 H137       -4.8930  -20.1530  -47.4038 H         1 UNK         0.1150 
    138 H138       -4.3143  -15.9422  -47.8955 H         1 UNK         0.1150 
    139 H139       -2.8482  -18.2169  -46.1553 H         1 UNK         0.0800 
    140 H140       -3.8582  -16.8576  -45.8285 H         1 UNK         0.0800 
    141 H141       -4.8205  -21.1038  -45.3903 H         1 UNK         0.0800 
    142 H142       -4.4828  -20.8314  -43.7260 H         1 UNK         0.0800 
    143 H143       -2.1748  -19.7871  -44.7174 H         1 UNK         0.0600 
    144 H144       -1.2222  -21.3478  -43.5801 H         1 UNK         0.3000 
    145 H145       -2.3831  -24.3147  -42.0848 H         1 UNK         0.0600 
    146 H146       -0.0417  -25.0239  -42.3974 H         1 UNK         0.0600 
    147 H147       -0.8939  -25.1370  -43.9301 H         1 UNK         0.0600 
    148 H148        0.2065  -23.7952  -43.6325 H         1 UNK         0.0600 
    149 H149       -0.2901  -22.2223  -41.8497 H         1 UNK         0.3000 
    150 H150       -2.0141  -20.5168  -39.2386 H         1 UNK         0.0600 
    151 H151       -0.6832  -22.2448  -38.0329 H         1 UNK         0.0600 
    152 H152        0.2095  -20.7346  -38.1413 H         1 UNK         0.0600 
    153 H153        0.6234  -22.0821  -39.2000 H         1 UNK         0.0600 
    154 H154        0.4577  -20.0076  -40.5725 H         1 UNK         0.3000 
    155 H155       -0.7308  -18.5126  -43.4996 H         1 UNK         0.0600 
    156 H156        0.1583  -16.9275  -41.0415 H         1 UNK         0.0600 
    157 H157       -1.2440  -16.5898  -42.0429 H         1 UNK         0.0600 
    158 H158        0.3694  -16.4053  -42.7113 H         1 UNK         0.0600 
    159 H159        1.8310  -18.3255  -42.4308 H         1 UNK         0.3000 
    160 H160        3.0428  -21.6232  -43.0209 H         1 UNK         0.0600 
    161 H161        4.6923  -20.3476  -44.3877 H         1 UNK         0.0600 
    162 H162        3.5478  -19.0187  -44.5526 H         1 UNK         0.0600 
    163 H163        3.1901  -20.5949  -45.2543 H         1 UNK         0.0600 
    164 H164        4.0695  -19.0242  -42.1303 H         1 UNK         0.3000 
    165 H165        3.9332  -19.8314  -38.6788 H         1 UNK         0.0600 
    166 H166        6.3724  -19.3972  -38.8151 H         1 UNK         0.0600 
    167 H167        6.0065  -20.9969  -39.4409 H         1 UNK         0.0600 
    168 H168        6.3550  -19.6811  -40.5560 H         1 UNK         0.0600 
    169 H169        5.0272  -17.6277  -40.1669 H         1 UNK         0.3000 
    170 H170        2.0596  -15.6882  -40.3200 H         1 UNK         0.0600 
    171 H171        2.8249  -15.3719  -37.9610 H         1 UNK         0.0600 
    172 H172        4.4998  -15.3503  -38.4999 H         1 UNK         0.0600 
    173 H173        3.3880  -14.0765  -39.0036 H         1 UNK         0.0600 
    174 H174        4.6600  -14.9191  -40.9696 H         1 UNK         0.3000 
    175 H175        5.2223  -14.5703  -43.0592 H         1 UNK         0.0600 
    176 H176        5.3718  -17.3647  -44.3370 H         1 UNK         0.0600 
    177 H177        6.4812  -16.0328  -44.6489 H         1 UNK         0.0600 
    178 H178        6.4208  -16.7695  -43.0547 H         1 UNK         0.0600 
    179 H179        3.1653  -15.7311  -44.8467 H         1 UNK         0.3000 
    180 H180        2.7068  -12.6228  -46.3766 H         1 UNK         0.0600 
    181 H181        3.8071  -15.0030  -47.9539 H         1 UNK         0.0600 
    182 H182        4.5576  -13.4112  -47.9000 H         1 UNK         0.0600 
    183 H183        2.9608  -13.5955  -48.6002 H         1 UNK         0.0600 
    184 H184        1.5126  -15.0660  -47.0994 H         1 UNK         0.3000 
    185 H185       -0.2219  -16.1184  -45.0588 H         1 UNK         0.0600 
    186 H186       -1.3539  -14.5052  -43.5560 H         1 UNK         0.0600 
    187 H187       -1.9499  -13.5935  -44.9342 H         1 UNK         0.0600 
    188 H188       -2.5118  -15.2395  -44.6477 H         1 UNK         0.0600 
    189 H189       -0.8830  -16.3393  -47.1414 H         1 UNK         0.3000 
    190 H190       -3.1804  -22.8950  -46.1793 H         1 UNK         0.3000 
    191 H191       -2.8092  -22.1582  -48.8975 H         1 UNK         0.0600 
    192 H192       -2.7210  -24.9190  -47.5712 H         1 UNK         0.0600 
    193 H193       -2.9049  -24.6183  -49.2963 H         1 UNK         0.0600 
    194 H194       -4.1622  -24.1060  -48.1818 H         1 UNK         0.0600 
    195 H195       -0.5254  -23.3138  -46.4712 H         1 UNK         0.3000 
    196 H196        1.6673  -23.9474  -48.1902 H         1 UNK         0.0600 
    197 H197        2.9799  -23.8923  -46.0953 H         1 UNK         0.0600 
    198 H198        1.4571  -24.7179  -45.8030 H         1 UNK         0.0600 
    199 H199        1.6852  -23.0527  -45.2570 H         1 UNK         0.0600 
    200 H200        0.4651  -20.8893  -46.8684 H         1 UNK         0.3000 
    201 H201        2.8648  -19.3524  -47.5943 H         1 UNK         0.0600 
    202 H202        1.4407  -18.7167  -45.5992 H         1 UNK         0.0600 
    203 H203        0.1041  -18.3675  -46.6795 H         1 UNK         0.0600 
    204 H204        1.5895  -17.4325  -46.7785 H         1 UNK         0.0600 
    205 H205       -0.5548  -19.6475  -48.6018 H         1 UNK         0.3000 
    206 H206       -0.5179  -17.8730  -50.7662 H         1 UNK         0.0600 
    207 H207       -2.5664  -18.6073  -49.6524 H         1 UNK         0.0600 
    208 H208       -2.6844  -19.0381  -51.3492 H         1 UNK         0.0600 
    209 H209       -2.3082  -20.2725  -50.1615 H         1 UNK         0.0600 
    210 H210        0.0689  -21.3810  -50.7556 H         1 UNK         0.3000 
    211 H211        1.0534  -22.8108  -52.0442 H         1 UNK         0.0600 
    212 H212        2.2162  -20.4732  -53.6453 H         1 UNK         0.0600 
    213 H213        2.7714  -22.1396  -53.6926 H         1 UNK         0.0600 
    214 H214        2.9319  -21.2067  -52.2115 H         1 UNK         0.0600 
    215 H215       -0.3457  -20.3063  -54.1383 H         1 UNK         0.3000 
    216 H216       -1.8490  -22.3645  -55.6971 H         1 UNK         0.0600 
    217 H217       -1.5251  -20.8904  -57.7252 H         1 UNK         0.0600 
    218 H218       -0.0423  -21.6635  -57.1899 H         1 UNK         0.0600 
    219 H219       -0.3126  -19.9628  -56.8415 H         1 UNK         0.0600 
    220 H220       -1.7305  -18.8655  -55.9828 H         1 UNK         0.3000 
    221 H221       -3.0546  -17.1631  -55.6110 H         1 UNK         0.0600 
    222 H222       -4.3145  -18.8032  -53.3394 H         1 UNK         0.0600 
    223 H223       -2.9068  -17.7461  -53.2140 H         1 UNK         0.0600 
    224 H224       -4.4808  -17.0700  -53.5629 H         1 UNK         0.0600 
    225 H225       -5.3977  -16.3431  -55.5050 H         1 UNK         0.3000 
    226 H226       -6.8294  -17.3041  -57.7648 H         1 UNK         0.0600 
    227 H227       -7.6666  -15.3591  -55.5446 H         1 UNK         0.0600 
    228 H228       -6.8372  -14.9285  -57.0412 H         1 UNK         0.0600 
    229 H229       -8.4789  -15.5488  -57.0938 H         1 UNK         0.0600 
    230 H230       -7.0316  -18.1381  -54.3903 H         1 UNK         0.3000 
    231 H231       -9.6318  -19.4085  -54.4127 H         1 UNK         0.0600 
    232 H232       -8.8648  -20.2638  -52.1963 H         1 UNK         0.0600 
    233 H233       -8.5492  -18.5405  -52.3291 H         1 UNK         0.0600 
    234 H234       -7.2321  -19.6989  -52.5264 H         1 UNK         0.0600 
    235 H235       -6.5091  -20.3215  -55.6113 H         1 UNK         0.3000 
    236 H236       -5.5507  -22.1052  -56.4226 H         1 UNK         0.0600 
    237 H237       -6.8879  -23.7783  -57.6241 H         1 UNK         0.0600 
    238 H238       -8.3420  -23.3223  -56.7485 H         1 UNK         0.0600 
    239 H239       -7.5922  -22.1898  -57.8733 H         1 UNK         0.0600 
    240 H240       -5.8028  -21.9514  -53.5601 H         1 UNK         0.3000 
    241 H241       -6.0273  -24.6841  -52.5551 H         1 UNK         0.0600 
    242 H242       -2.1475  -23.8868  -53.5121 H         1 UNK         0.3800 
    243 H243       -3.4236  -22.7485  -53.8979 H         1 UNK         0.3800 
    244 H244       -6.8093  -22.9518  -51.0909 H         1 UNK         0.0800 
    245 H245       -5.4283  -23.7119  -50.3566 H         1 UNK         0.0800 
    246 H246       -6.2069  -21.3656  -48.9566 H         1 UNK         0.0800 
    247 H247       -7.0389  -20.5275  -50.2411 H         1 UNK         0.0800 
@<TRIPOS>BOND
     1    1    2 1    
     2    1  127 1    
     3    1  128 1    
     4    1  129 1    
     5    2    3 2    
     6    2    4 am   BACKBONE|DICT|INTERRES
     7    4    5 1    
     8    4  130 1    
     9    5    6 1    
    10    5   65 1    
    11    5  131 1    
    12    6    7 1    
    13    6  132 1    
    14    6  133 1    
    15    7    8 1    
    16    8    9 1    
    17    8  134 1    
    18    8  135 1    
    19    9   10 ar   
    20    9   14 ar   
    21   10   11 ar   
    22   10  136 1    
    23   11   12 ar   
    24   11  126 1    
    25   12   13 ar   
    26   12  137 1    
    27   13   14 ar   
    28   13   15 1    
    29   14  138 1    
    30   15   16 1    
    31   15  139 1    
    32   15  140 1    
    33   16   17 1    
    34   17   18 1    
    35   17  141 1    
    36   17  142 1    
    37   18   19 1    
    38   18   67 1    
    39   18  143 1    
    40   19   20 am   BACKBONE|DICT|INTERRES
    41   19  144 1    
    42   20   21 2    
    43   20   22 1    
    44   22   23 1    
    45   22   24 1    
    46   22  145 1    
    47   23  146 1    
    48   23  147 1    
    49   23  148 1    
    50   24   25 am   BACKBONE|DICT|INTERRES
    51   24  149 1    
    52   25   26 2    
    53   25   27 1    
    54   27   28 1    
    55   27   29 1    
    56   27  150 1    
    57   28  151 1    
    58   28  152 1    
    59   28  153 1    
    60   29   30 am   BACKBONE|DICT|INTERRES
    61   29  154 1    
    62   30   31 2    
    63   30   32 1    
    64   32   33 1    
    65   32   34 1    
    66   32  155 1    
    67   33  156 1    
    68   33  157 1    
    69   33  158 1    
    70   34   35 am   BACKBONE|DICT|INTERRES
    71   34  159 1    
    72   35   36 2    
    73   35   37 1    
    74   37   38 1    
    75   37   39 1    
    76   37  160 1    
    77   38  161 1    
    78   38  162 1    
    79   38  163 1    
    80   39   40 am   BACKBONE|DICT|INTERRES
    81   39  164 1    
    82   40   41 2    
    83   40   42 1    
    84   42   43 1    
    85   42   44 1    
    86   42  165 1    
    87   43  166 1    
    88   43  167 1    
    89   43  168 1    
    90   44   45 am   BACKBONE|DICT|INTERRES
    91   44  169 1    
    92   45   46 2    
    93   45   47 1    
    94   47   48 1    
    95   47   49 1    
    96   47  170 1    
    97   48  171 1    
    98   48  172 1    
    99   48  173 1    
   100   49   50 am   BACKBONE|DICT|INTERRES
   101   49  174 1    
   102   50   51 2    
   103   50   52 1    
   104   52   53 1    
   105   52   54 1    
   106   52  175 1    
   107   53  176 1    
   108   53  177 1    
   109   53  178 1    
   110   54   55 am   BACKBONE|DICT|INTERRES
   111   54  179 1    
   112   55   56 2    
   113   55   57 1    
   114   57   58 1    
   115   57   59 1    
   116   57  180 1    
   117   58  181 1    
   118   58  182 1    
   119   58  183 1    
   120   59   60 am   BACKBONE|DICT|INTERRES
   121   59  184 1    
   122   60   61 2    
   123   60   62 1    
   124   62   63 1    
   125   62   64 1    
   126   62  185 1    
   127   63  186 1    
   128   63  187 1    
   129   63  188 1    
   130   64   65 am   BACKBONE|DICT|INTERRES
   131   64  189 1    
   132   65   66 2    
   133   67   68 2    
   134   67   69 am   BACKBONE|DICT|INTERRES
   135   69   70 1    
   136   69  190 1    
   137   70   71 1    
   138   70   72 1    
   139   70  191 1    
   140   71  192 1    
   141   71  193 1    
   142   71  194 1    
   143   72   73 2    
   144   72   74 am   BACKBONE|DICT|INTERRES
   145   74   75 1    
   146   74  195 1    
   147   75   76 1    
   148   75   77 1    
   149   75  196 1    
   150   76  197 1    
   151   76  198 1    
   152   76  199 1    
   153   77   78 2    
   154   77   79 am   BACKBONE|DICT|INTERRES
   155   79   80 1    
   156   79  200 1    
   157   80   81 1    
   158   80   82 1    
   159   80  201 1    
   160   81  202 1    
   161   81  203 1    
   162   81  204 1    
   163   82   83 2    
   164   82   84 am   BACKBONE|DICT|INTERRES
   165   84   85 1    
   166   84  205 1    
   167   85   86 1    
   168   85   87 1    
   169   85  206 1    
   170   86  207 1    
   171   86  208 1    
   172   86  209 1    
   173   87   88 2    
   174   87   89 am   BACKBONE|DICT|INTERRES
   175   89   90 1    
   176   89  210 1    
   177   90   91 1    
   178   90   92 1    
   179   90  211 1    
   180   91  212 1    
   181   91  213 1    
   182   91  214 1    
   183   92   93 2    
   184   92   94 am   BACKBONE|DICT|INTERRES
   185   94   95 1    
   186   94  215 1    
   187   95   96 1    
   188   95   97 1    
   189   95  216 1    
   190   96  217 1    
   191   96  218 1    
   192   96  219 1    
   193   97   98 2    
   194   97   99 am   BACKBONE|DICT|INTERRES
   195   99  100 1    
   196   99  220 1    
   197  100  101 1    
   198  100  102 1    
   199  100  221 1    
   200  101  222 1    
   201  101  223 1    
   202  101  224 1    
   203  102  103 2    
   204  102  104 am   BACKBONE|DICT|INTERRES
   205  104  105 1    
   206  104  225 1    
   207  105  106 1    
   208  105  107 1    
   209  105  226 1    
   210  106  227 1    
   211  106  228 1    
   212  106  229 1    
   213  107  108 2    
   214  107  109 am   BACKBONE|DICT|INTERRES
   215  109  110 1    
   216  109  230 1    
   217  110  111 1    
   218  110  112 1    
   219  110  231 1    
   220  111  232 1    
   221  111  233 1    
   222  111  234 1    
   223  112  113 2    
   224  112  114 am   BACKBONE|DICT|INTERRES
   225  114  115 1    
   226  114  235 1    
   227  115  116 1    
   228  115  117 1    
   229  115  236 1    
   230  116  237 1    
   231  116  238 1    
   232  116  239 1    
   233  117  118 2    
   234  117  119 am   BACKBONE|DICT|INTERRES
   235  119  120 1    
   236  119  240 1    
   237  120  121 1    
   238  120  124 1    
   239  120  241 1    
   240  121  122 am   BACKBONE|DICT|INTERRES
   241  121  123 2    
   242  122  242 1    
   243  122  243 1    
   244  124  125 1    
   245  124  244 1    
   246  124  245 1    
   247  125  126 1    
   248  126  246 1    
   249  126  247 1    
@<TRIPOS>SUBSTRUCTURE
     1 UNK         1 GROUP             0       ****    0 ROOT    
