@<TRIPOS>MOLECULE
3R540
247   249    1
SMALL
USER_CHARGES


@<TRIPOS>ATOM
      1 CA         -4.2357  -13.1636  -51.6602 C.3       0 UNK        -0.1800 
      2 C          -3.1920  -13.1269  -50.5526 C.2       0 UNK         0.5000 
      3 O          -3.0013  -12.0867  -49.9220 O.2       0 UNK        -0.5000 
      4 N          -2.5150  -14.2548  -50.3179 N.am      1 UNK        -0.5000 
      5 CA         -1.4902  -14.4278  -49.2893 C.3       1 UNK         0.1400 
      6 C6         -0.4628  -15.5183  -49.6790 C.3       23 UNK        -0.0398 
      7 S7          0.3044  -15.2094  -51.3129 S.3       23 UNK        -0.2404 
      8 C8          2.0814  -15.3921  -50.9705 C.3       23 UNK        -0.0205 
      9 C9          2.4966  -16.8536  -50.8880 C.ar      23 UNK        -0.0193 
     10 C10         2.9629  -17.5268  -52.0229 C.ar      23 UNK        -0.1150 
     11 C11         3.3844  -18.8580  -51.9338 C.ar      23 UNK        -0.0193 
     12 C12         3.3149  -19.5210  -50.7052 C.ar      23 UNK        -0.1150 
     13 C13         2.8379  -18.8621  -49.5703 C.ar      23 UNK        -0.0193 
     14 C14         2.4422  -17.5268  -49.6659 C.ar      23 UNK        -0.1150 
     15 C15         2.7626  -19.5785  -48.2343 C.3       23 UNK        -0.0205 
     16 S16         1.1320  -20.3408  -47.9854 S.3       23 UNK        -0.2404 
     17 C17         1.3216  -21.9328  -48.8597 C.3       23 UNK        -0.0398 
     18 CA          0.8596  -23.1581  -48.0283 C.3       11 UNK         0.1400 
     19 N           1.5988  -23.2717  -46.7669 N.am      11 UNK        -0.5000 
     20 C           1.7611  -24.4101  -46.0809 C.2       10 UNK         0.5000 
     21 O           1.4505  -25.5161  -46.5285 O.2       10 UNK        -0.5000 
     22 CA          2.3217  -24.2955  -44.6462 C.3       10 UNK         0.1400 
     23 CB          3.0740  -25.5650  -44.1935 C.3       10 UNK        -0.1800 
     24 N           3.1258  -23.0941  -44.3919 N.am      10 UNK        -0.5000 
     25 C           4.3104  -22.7700  -44.9350 C.2       9 UNK         0.5000 
     26 O           4.8635  -23.4367  -45.8102 O.2       9 UNK        -0.5000 
     27 CA          5.0098  -21.4971  -44.4096 C.3       9 UNK         0.1400 
     28 CB          5.2618  -20.4871  -45.5387 C.3       9 UNK        -0.1800 
     29 N           4.2544  -20.8321  -43.3457 N.am      9 UNK        -0.5000 
     30 C           4.3808  -21.0968  -42.0370 C.2       8 UNK         0.5000 
     31 O           5.2010  -21.8934  -41.5799 O.2       8 UNK        -0.5000 
     32 CA          3.4177  -20.3728  -41.0721 C.3       8 UNK         0.1400 
     33 CB          4.1065  -19.1542  -40.4398 C.3       8 UNK        -0.1800 
     34 N           2.1696  -19.9382  -41.7030 N.am      8 UNK        -0.5000 
     35 C           1.2369  -20.7568  -42.2119 C.2       7 UNK         0.5000 
     36 O           1.3095  -21.9845  -42.1598 O.2       7 UNK        -0.5000 
     37 CA          0.0572  -20.1025  -42.9587 C.3       7 UNK         0.1400 
     38 CB         -1.1851  -20.0439  -42.0598 C.3       7 UNK        -0.1800 
     39 N           0.3516  -18.7642  -43.4861 N.am      7 UNK        -0.5000 
     40 C           1.2851  -18.5141  -44.4165 C.2       6 UNK         0.5000 
     41 O           2.0381  -19.3786  -44.8638 O.2       6 UNK        -0.5000 
     42 CA          1.4383  -17.0627  -44.9021 C.3       6 UNK         0.1400 
     43 CB          0.6082  -16.8169  -46.1689 C.3       6 UNK        -0.1800 
     44 N           1.0907  -16.0504  -43.9030 N.am      6 UNK        -0.5000 
     45 C           1.8262  -15.7871  -42.8137 C.2       5 UNK         0.5000 
     46 O           2.7803  -16.4790  -42.4571 O.2       5 UNK        -0.5000 
     47 CA          1.4519  -14.5432  -41.9935 C.3       5 UNK         0.1400 
     48 CB          1.9600  -13.2664  -42.6827 C.3       5 UNK        -0.1800 
     49 N           0.0082  -14.4387  -41.7882 N.am      5 UNK        -0.5000 
     50 C          -0.5778  -14.2434  -40.5976 C.2       4 UNK         0.5000 
     51 O           0.0439  -14.0954  -39.5444 O.2       4 UNK        -0.5000 
     52 CA         -2.1213  -14.2064  -40.5605 C.3       4 UNK         0.1400 
     53 CB         -2.6207  -12.7537  -40.5203 C.3       4 UNK        -0.1800 
     54 N          -2.7564  -14.8887  -41.6883 N.am      4 UNK        -0.5000 
     55 C          -2.6468  -16.1953  -41.9619 C.2       3 UNK         0.5000 
     56 O          -2.0696  -16.9967  -41.2296 O.2       3 UNK        -0.5000 
     57 CA         -3.2319  -16.6870  -43.2993 C.3       3 UNK         0.1400 
     58 CB         -4.5264  -17.4786  -43.0645 C.3       3 UNK        -0.1800 
     59 N          -3.4911  -15.6309  -44.2852 N.am      3 UNK        -0.5000 
     60 C          -2.5733  -14.8233  -44.8346 C.2       2 UNK         0.5000 
     61 O          -1.3801  -14.8228  -44.5197 O.2       2 UNK        -0.5000 
     62 CA         -3.0991  -13.7927  -45.8484 C.3       2 UNK         0.1400 
     63 CB         -3.1137  -12.3925  -45.2163 C.3       2 UNK        -0.1800 
     64 N          -2.3227  -13.7478  -47.0875 N.am      2 UNK        -0.5000 
     65 C          -2.2045  -14.7545  -47.9631 C.2       1 UNK         0.5000 
     66 O          -2.6885  -15.8754  -47.7915 O.2       1 UNK        -0.5000 
     67 C          -0.6653  -23.1434  -47.7654 C.2       11 UNK         0.5000 
     68 O          -1.1014  -23.0516  -46.6137 O.2       11 UNK        -0.5000 
     69 N          -1.4610  -23.1814  -48.8429 N.am      12 UNK        -0.5000 
     70 CA         -2.9291  -23.1333  -48.8461 C.3       12 UNK         0.1400 
     71 CB         -3.4184  -23.6114  -50.2278 C.3       12 UNK        -0.1800 
     72 C          -3.5214  -21.7526  -48.4643 C.2       12 UNK         0.5000 
     73 O          -4.5070  -21.3185  -49.0652 O.2       12 UNK        -0.5000 
     74 N          -2.9072  -21.0610  -47.4972 N.am      13 UNK        -0.5000 
     75 CA         -3.2585  -19.7123  -47.0528 C.3       13 UNK         0.1400 
     76 CB         -2.1819  -19.1882  -46.0973 C.3       13 UNK        -0.1800 
     77 C          -4.6473  -19.6479  -46.4011 C.2       13 UNK         0.5000 
     78 O          -5.4638  -18.8083  -46.7762 O.2       13 UNK        -0.5000 
     79 N          -4.9048  -20.5678  -45.4638 N.am      14 UNK        -0.5000 
     80 CA         -6.1908  -20.6874  -44.7737 C.3       14 UNK         0.1400 
     81 CB         -6.0012  -21.5461  -43.5143 C.3       14 UNK        -0.1800 
     82 C          -7.3016  -21.2695  -45.6696 C.2       14 UNK         0.5000 
     83 O          -8.4797  -21.0196  -45.4124 O.2       14 UNK        -0.5000 
     84 N          -6.9083  -22.0417  -46.6909 N.am      15 UNK        -0.5000 
     85 CA         -7.8147  -22.7064  -47.6212 C.3       15 UNK         0.1400 
     86 CB         -7.1275  -23.9559  -48.1934 C.3       15 UNK        -0.1800 
     87 C          -8.2861  -21.7773  -48.7516 C.2       15 UNK         0.5000 
     88 O          -9.4858  -21.7337  -49.0283 O.2       15 UNK        -0.5000 
     89 N          -7.3462  -21.0780  -49.4035 N.am      16 UNK        -0.5000 
     90 CA         -7.6022  -20.3426  -50.6439 C.3       16 UNK         0.1400 
     91 CB         -7.5778  -21.3288  -51.8315 C.3       16 UNK        -0.1800 
     92 C          -6.6306  -19.1676  -50.8542 C.2       16 UNK         0.5000 
     93 O          -6.3698  -18.8058  -52.0018 O.2       16 UNK        -0.5000 
     94 N          -6.0797  -18.5986  -49.7698 N.am      17 UNK        -0.5000 
     95 CA         -5.1283  -17.4733  -49.7761 C.3       17 UNK         0.1400 
     96 CB         -5.8380  -16.1744  -50.2062 C.3       17 UNK        -0.1800 
     97 C          -3.8484  -17.7613  -50.5956 C.2       17 UNK         0.5000 
     98 O          -3.3001  -16.8613  -51.2332 O.2       17 UNK        -0.5000 
     99 N          -3.4359  -19.0374  -50.5851 N.am      18 UNK        -0.5000 
    100 CA        -2.3267  -19.6562  -51.3141 C.3       18 UNK         0.1400 
    101 CB        -0.9727  -19.0135  -50.9633 C.3       18 UNK        -0.1800 
    102 C         -2.5352  -19.7581  -52.8359 C.2       18 UNK         0.5000 
    103 O         -1.6503  -20.2834  -53.5088 O.2       18 UNK        -0.5000 
    104 N         -3.6923  -19.3351  -53.3687 N.am      19 UNK        -0.5000 
    105 CA        -3.9986  -19.3737  -54.8036 C.3       19 UNK         0.1400 
    106 CB        -5.3026  -18.6109  -55.0765 C.3       19 UNK        -0.1800 
    107 C         -4.0803  -20.8048  -55.3676 C.2       19 UNK         0.5000 
    108 O         -3.7212  -21.0257  -56.5238 O.2       19 UNK        -0.5000 
    109 N         -4.4992  -21.7587  -54.5257 N.am      20 UNK        -0.5000 
    110 CA        -4.5332  -23.1876  -54.8406 C.3       20 UNK         0.1400 
    111 CB        -5.4117  -23.9022  -53.8017 C.3       20 UNK        -0.1800 
    112 C         -3.1348  -23.8383  -54.9042 C.2       20 UNK         0.5000 
    113 O         -2.9983  -24.8994  -55.5142 O.2       20 UNK        -0.5000 
    114 N         -2.1340  -23.2107  -54.2709 N.am      21 UNK        -0.5000 
    115 CA        -0.7560  -23.6953  -54.2055 C.3       21 UNK         0.1400 
    116 CB        -0.2367  -23.5312  -52.7657 C.3       21 UNK        -0.1800 
    117 C          0.1552  -22.9496  -55.1943 C.2       21 UNK         0.5000 
    118 O          0.9417  -23.5889  -55.8943 O.2       21 UNK        -0.5000 
    119 N          0.0432  -21.6173  -55.2154 N.am      22 UNK        -0.5000 
    120 CA         0.9560  -20.6864  -55.8968 C.3       22 UNK         0.1400 
    121 C          0.2617  -19.8050  -56.9743 C.2       22 UNK         0.5000 
    122 N         -1.0140  -19.9942  -57.2851 N.am      22 UNK        -0.7600 
    123 O          0.9011  -18.9403  -57.5676 O.2       22 UNK        -0.5000 
    124 C124        1.7271  -19.8205  -54.8624 C.3       23 UNK        -0.0398 
    125 S125        2.8139  -20.8308  -53.7995 S.3       23 UNK        -0.2404 
    126 C126        3.9578  -19.5774  -53.1451 C.3       23 UNK        -0.0205 
    127 H127       -4.0135  -12.4055  -52.4111 H         1 UNK         0.0600 
    128 H128       -5.2256  -12.9614  -51.2512 H         1 UNK         0.0600 
    129 H129       -4.2634  -14.1345  -52.1563 H         1 UNK         0.0600 
    130 H130       -2.7485  -15.1032  -50.8299 H         1 UNK         0.3000 
    131 H131       -0.9406  -13.4911  -49.1724 H         1 UNK         0.0600 
    132 H132        0.3143  -15.5712  -48.9184 H         1 UNK         0.0800 
    133 H133       -0.9339  -16.5001  -49.7014 H         1 UNK         0.0800 
    134 H134        2.3415  -14.8658  -50.0509 H         1 UNK         0.0800 
    135 H135        2.6401  -14.8982  -51.7668 H         1 UNK         0.0800 
    136 H136        3.0152  -17.0082  -52.9698 H         1 UNK         0.1150 
    137 H137        3.6381  -20.5499  -50.6349 H         1 UNK         0.1150 
    138 H138        2.0954  -17.0103  -48.7844 H         1 UNK         0.1150 
    139 H139        3.5505  -20.3283  -48.1545 H         1 UNK         0.0800 
    140 H140        2.9398  -18.8641  -47.4297 H         1 UNK         0.0800 
    141 H141        2.3671  -22.0741  -49.1344 H         1 UNK         0.0800 
    142 H142        0.7851  -21.8690  -49.8075 H         1 UNK         0.0800 
    143 H143        1.0652  -24.0488  -48.6258 H         1 UNK         0.0600 
    144 H144        1.8424  -22.3995  -46.3199 H         1 UNK         0.3000 
    145 H145        1.4455  -24.1976  -44.0037 H         1 UNK         0.0600 
    146 H146        3.4376  -25.4639  -43.1709 H         1 UNK         0.0600 
    147 H147        2.4209  -26.4381  -44.2176 H         1 UNK         0.0600 
    148 H148        3.9290  -25.7802  -44.8349 H         1 UNK         0.0600 
    149 H149        2.7528  -22.4820  -43.6762 H         1 UNK         0.3000 
    150 H150        5.9830  -21.8091  -44.0251 H         1 UNK         0.0600 
    151 H151        5.8161  -20.9389  -46.3622 H         1 UNK         0.0600 
    152 H152        5.8445  -19.6375  -45.1825 H         1 UNK         0.0600 
    153 H153        4.3269  -20.1032  -45.9397 H         1 UNK         0.0600 
    154 H154        3.5353  -20.1851  -43.6521 H         1 UNK         0.3000 
    155 H155        3.1631  -21.0747  -40.2753 H         1 UNK         0.0600 
    156 H156        5.0194  -19.4471  -39.9195 H         1 UNK         0.0600 
    157 H157        3.4589  -18.6677  -39.7102 H         1 UNK         0.0600 
    158 H158        4.3808  -18.4135  -41.1920 H         1 UNK         0.0600 
    159 H159        2.0478  -18.9416  -41.8198 H         1 UNK         0.3000 
    160 H160       -0.1747  -20.7441  -43.8118 H         1 UNK         0.0600 
    161 H161       -1.0081  -19.4348  -41.1730 H         1 UNK         0.0600 
    162 H162       -1.4662  -21.0412  -41.7188 H         1 UNK         0.0600 
    163 H163       -2.0429  -19.6311  -42.5901 H         1 UNK         0.0600 
    164 H164       -0.1874  -17.9944  -43.1186 H         1 UNK         0.3000 
    165 H165        2.4898  -16.9270  -45.1646 H         1 UNK         0.0600 
    166 H166       -0.4600  -16.8506  -45.9634 H         1 UNK         0.0600 
    167 H167        0.8326  -15.8402  -46.5965 H         1 UNK         0.0600 
    168 H168        0.8141  -17.5667  -46.9312 H         1 UNK         0.0600 
    169 H169        0.2954  -15.4597  -44.1334 H         1 UNK         0.3000 
    170 H170        1.9676  -14.6365  -41.0354 H         1 UNK         0.0600 
    171 H171        3.0339  -13.3206  -42.8660 H         1 UNK         0.0600 
    172 H172        1.4685  -13.1036  -43.6429 H         1 UNK         0.0600 
    173 H173        1.7800  -12.3883  -42.0624 H         1 UNK         0.0600 
    174 H174       -0.5786  -14.5522  -42.6065 H         1 UNK         0.3000 
    175 H175       -2.4392  -14.7066  -39.6435 H         1 UNK         0.0600 
    176 H176       -2.1915  -12.2158  -39.6739 H         1 UNK         0.0600 
    177 H177       -2.3492  -12.2103  -41.4264 H         1 UNK         0.0600 
    178 H178       -3.7048  -12.7111  -40.4139 H         1 UNK         0.0600 
    179 H179       -3.2532  -14.3071  -42.3458 H         1 UNK         0.3000 
    180 H180       -2.4907  -17.3621  -43.7271 H         1 UNK         0.0600 
    181 H181       -4.3544  -18.3269  -42.4005 H         1 UNK         0.0600 
    182 H182       -5.3004  -16.8576  -42.6119 H         1 UNK         0.0600 
    183 H183       -4.9203  -17.8740  -43.9995 H         1 UNK         0.0600 
    184 H184       -4.4503  -15.5431  -44.5887 H         1 UNK         0.3000 
    185 H185       -4.1243  -14.0560  -46.1173 H         1 UNK         0.0600 
    186 H186       -3.7110  -12.3793  -44.3037 H         1 UNK         0.0600 
    187 H187       -2.1084  -12.0587  -44.9550 H         1 UNK         0.0600 
    188 H188       -3.5456  -11.6569  -45.8954 H         1 UNK         0.0600 
    189 H189       -1.9112  -12.8554  -47.3190 H         1 UNK         0.3000 
    190 H190       -1.0305  -23.2463  -49.7526 H         1 UNK         0.3000 
    191 H191       -3.2931  -23.8424  -48.1001 H         1 UNK         0.0600 
    192 H192       -3.0786  -22.9544  -51.0285 H         1 UNK         0.0600 
    193 H193       -4.5062  -23.6485  -50.2793 H         1 UNK         0.0600 
    194 H194       -3.0571  -24.6163  -50.4470 H         1 UNK         0.0600 
    195 H195       -2.1277  -21.5149  -47.0295 H         1 UNK         0.3000 
    196 H196       -3.2637  -19.0579  -47.9227 H         1 UNK         0.0600 
    197 H197       -2.3884  -18.1507  -45.8389 H         1 UNK         0.0600 
    198 H198       -1.1974  -19.2142  -46.5616 H         1 UNK         0.0600 
    199 H199       -2.1335  -19.7651  -45.1738 H         1 UNK         0.0600 
    200 H200       -4.1869  -21.2339  -45.2183 H         1 UNK         0.3000 
    201 H201       -6.5128  -19.6922  -44.4601 H         1 UNK         0.0600 
    202 H202       -6.9354  -21.6355  -42.9582 H         1 UNK         0.0600 
    203 H203       -5.6677  -22.5549  -43.7606 H         1 UNK         0.0600 
    204 H204       -5.2659  -21.1027  -42.8424 H         1 UNK         0.0600 
    205 H205       -5.9201  -22.1721  -46.8393 H         1 UNK         0.3000 
    206 H206       -8.6997  -23.0400  -47.0744 H         1 UNK         0.0600 
    207 H207       -6.8766  -24.6638  -47.4033 H         1 UNK         0.0600 
    208 H208       -7.7800  -24.4732  -48.8979 H         1 UNK         0.0600 
    209 H209       -6.2088  -23.7045  -48.7211 H         1 UNK         0.0600 
    210 H210       -6.3686  -21.1753  -49.1390 H         1 UNK         0.3000 
    211 H211       -8.5948  -19.8906  -50.5939 H         1 UNK         0.0600 
    212 H212       -7.8052  -20.8285  -52.7736 H         1 UNK         0.0600 
    213 H213       -8.3155  -22.1217  -51.7082 H         1 UNK         0.0600 
    214 H214       -6.5986  -21.7970  -51.9321 H         1 UNK         0.0600 
    215 H215       -6.3220  -18.9528  -48.8523 H         1 UNK         0.3000 
    216 H216       -4.8004  -17.3291  -48.7478 H         1 UNK         0.0600 
    217 H217       -5.2119  -15.3088  -49.9963 H         1 UNK         0.0600 
    218 H218       -6.7701  -16.0335  -49.6593 H         1 UNK         0.0600 
    219 H219       -6.0682  -16.1691  -51.2722 H         1 UNK         0.0600 
    220 H220       -4.0001  -19.6931  -50.0532 H         1 UNK         0.3000 
    221 H221       -2.2856  -20.6847  -50.9581 H         1 UNK         0.0600 
    222 H222       -0.8629  -18.0344  -51.4283 H         1 UNK         0.0600 
    223 H223       -0.8517  -18.9007  -49.8861 H         1 UNK         0.0600 
    224 H224       -0.1432  -19.6272  -51.3175 H         1 UNK         0.0600 
    225 H225       -4.4074  -18.9462  -52.7637 H         1 UNK         0.3000 
    226 H226       -3.1897  -18.8589  -55.3265 H         1 UNK         0.0600 
    227 H227       -5.4901  -18.5332  -56.1481 H         1 UNK         0.0600 
    228 H228       -6.1630  -19.1111  -54.6308 H         1 UNK         0.0600 
    229 H229       -5.2597  -17.5969  -54.6782 H         1 UNK         0.0600 
    230 H230       -4.7816  -21.4853  -53.5966 H         1 UNK         0.3000 
    231 H231       -4.9964  -23.3127  -55.8216 H         1 UNK         0.0600 
    232 H232       -6.4303  -23.5142  -53.8133 H         1 UNK         0.0600 
    233 H233       -5.0175  -23.7861  -52.7919 H         1 UNK         0.0600 
    234 H234       -5.4723  -24.9714  -54.0088 H         1 UNK         0.0600 
    235 H235       -2.3137  -22.3077  -53.8541 H         1 UNK         0.3000 
    236 H236       -0.7152  -24.7584  -54.4521 H         1 UNK         0.0600 
    237 H237       -0.8293  -24.1214  -52.0670 H         1 UNK         0.0600 
    238 H238        0.7967  -23.8706  -52.6834 H         1 UNK         0.0600 
    239 H239       -0.2654  -22.4912  -52.4379 H         1 UNK         0.0600 
    240 H240       -0.6282  -21.1680  -54.5944 H         1 UNK         0.3000 
    241 H241        1.6973  -21.2575  -56.4582 H         1 UNK         0.0600 
    242 H242       -1.5736  -20.7048  -56.8349 H         1 UNK         0.3800 
    243 H243       -1.4329  -19.4196  -57.9986 H         1 UNK         0.3800 
    244 H244        2.3465  -19.0785  -55.3688 H         1 UNK         0.0800 
    245 H245        1.0325  -19.2647  -54.2297 H         1 UNK         0.0800 
    246 H246        4.2320  -18.8703  -53.9293 H         1 UNK         0.0800 
    247 H247        4.8840  -20.0739  -52.8526 H         1 UNK         0.0800 
@<TRIPOS>BOND
     1    1    2 1    
     2    1  127 1    
     3    1  128 1    
     4    1  129 1    
     5    2    3 2    
     6    2    4 am   BACKBONE|DICT|INTERRES
     7    4    5 1    
     8    4  130 1    
     9    5    6 1    
    10    5   65 1    
    11    5  131 1    
    12    6    7 1    
    13    6  132 1    
    14    6  133 1    
    15    7    8 1    
    16    8    9 1    
    17    8  134 1    
    18    8  135 1    
    19    9   10 ar   
    20    9   14 ar   
    21   10   11 ar   
    22   10  136 1    
    23   11   12 ar   
    24   11  126 1    
    25   12   13 ar   
    26   12  137 1    
    27   13   14 ar   
    28   13   15 1    
    29   14  138 1    
    30   15   16 1    
    31   15  139 1    
    32   15  140 1    
    33   16   17 1    
    34   17   18 1    
    35   17  141 1    
    36   17  142 1    
    37   18   19 1    
    38   18   67 1    
    39   18  143 1    
    40   19   20 am   BACKBONE|DICT|INTERRES
    41   19  144 1    
    42   20   21 2    
    43   20   22 1    
    44   22   23 1    
    45   22   24 1    
    46   22  145 1    
    47   23  146 1    
    48   23  147 1    
    49   23  148 1    
    50   24   25 am   BACKBONE|DICT|INTERRES
    51   24  149 1    
    52   25   26 2    
    53   25   27 1    
    54   27   28 1    
    55   27   29 1    
    56   27  150 1    
    57   28  151 1    
    58   28  152 1    
    59   28  153 1    
    60   29   30 am   BACKBONE|DICT|INTERRES
    61   29  154 1    
    62   30   31 2    
    63   30   32 1    
    64   32   33 1    
    65   32   34 1    
    66   32  155 1    
    67   33  156 1    
    68   33  157 1    
    69   33  158 1    
    70   34   35 am   BACKBONE|DICT|INTERRES
    71   34  159 1    
    72   35   36 2    
    73   35   37 1    
    74   37   38 1    
    75   37   39 1    
    76   37  160 1    
    77   38  161 1    
    78   38  162 1    
    79   38  163 1    
    80   39   40 am   BACKBONE|DICT|INTERRES
    81   39  164 1    
    82   40   41 2    
    83   40   42 1    
    84   42   43 1    
    85   42   44 1    
    86   42  165 1    
    87   43  166 1    
    88   43  167 1    
    89   43  168 1    
    90   44   45 am   BACKBONE|DICT|INTERRES
    91   44  169 1    
    92   45   46 2    
    93   45   47 1    
    94   47   48 1    
    95   47   49 1    
    96   47  170 1    
    97   48  171 1    
    98   48  172 1    
    99   48  173 1    
   100   49   50 am   BACKBONE|DICT|INTERRES
   101   49  174 1    
   102   50   51 2    
   103   50   52 1    
   104   52   53 1    
   105   52   54 1    
   106   52  175 1    
   107   53  176 1    
   108   53  177 1    
   109   53  178 1    
   110   54   55 am   BACKBONE|DICT|INTERRES
   111   54  179 1    
   112   55   56 2    
   113   55   57 1    
   114   57   58 1    
   115   57   59 1    
   116   57  180 1    
   117   58  181 1    
   118   58  182 1    
   119   58  183 1    
   120   59   60 am   BACKBONE|DICT|INTERRES
   121   59  184 1    
   122   60   61 2    
   123   60   62 1    
   124   62   63 1    
   125   62   64 1    
   126   62  185 1    
   127   63  186 1    
   128   63  187 1    
   129   63  188 1    
   130   64   65 am   BACKBONE|DICT|INTERRES
   131   64  189 1    
   132   65   66 2    
   133   67   68 2    
   134   67   69 am   BACKBONE|DICT|INTERRES
   135   69   70 1    
   136   69  190 1    
   137   70   71 1    
   138   70   72 1    
   139   70  191 1    
   140   71  192 1    
   141   71  193 1    
   142   71  194 1    
   143   72   73 2    
   144   72   74 am   BACKBONE|DICT|INTERRES
   145   74   75 1    
   146   74  195 1    
   147   75   76 1    
   148   75   77 1    
   149   75  196 1    
   150   76  197 1    
   151   76  198 1    
   152   76  199 1    
   153   77   78 2    
   154   77   79 am   BACKBONE|DICT|INTERRES
   155   79   80 1    
   156   79  200 1    
   157   80   81 1    
   158   80   82 1    
   159   80  201 1    
   160   81  202 1    
   161   81  203 1    
   162   81  204 1    
   163   82   83 2    
   164   82   84 am   BACKBONE|DICT|INTERRES
   165   84   85 1    
   166   84  205 1    
   167   85   86 1    
   168   85   87 1    
   169   85  206 1    
   170   86  207 1    
   171   86  208 1    
   172   86  209 1    
   173   87   88 2    
   174   87   89 am   BACKBONE|DICT|INTERRES
   175   89   90 1    
   176   89  210 1    
   177   90   91 1    
   178   90   92 1    
   179   90  211 1    
   180   91  212 1    
   181   91  213 1    
   182   91  214 1    
   183   92   93 2    
   184   92   94 am   BACKBONE|DICT|INTERRES
   185   94   95 1    
   186   94  215 1    
   187   95   96 1    
   188   95   97 1    
   189   95  216 1    
   190   96  217 1    
   191   96  218 1    
   192   96  219 1    
   193   97   98 2    
   194   97   99 am   BACKBONE|DICT|INTERRES
   195   99  100 1    
   196   99  220 1    
   197  100  101 1    
   198  100  102 1    
   199  100  221 1    
   200  101  222 1    
   201  101  223 1    
   202  101  224 1    
   203  102  103 2    
   204  102  104 am   BACKBONE|DICT|INTERRES
   205  104  105 1    
   206  104  225 1    
   207  105  106 1    
   208  105  107 1    
   209  105  226 1    
   210  106  227 1    
   211  106  228 1    
   212  106  229 1    
   213  107  108 2    
   214  107  109 am   BACKBONE|DICT|INTERRES
   215  109  110 1    
   216  109  230 1    
   217  110  111 1    
   218  110  112 1    
   219  110  231 1    
   220  111  232 1    
   221  111  233 1    
   222  111  234 1    
   223  112  113 2    
   224  112  114 am   BACKBONE|DICT|INTERRES
   225  114  115 1    
   226  114  235 1    
   227  115  116 1    
   228  115  117 1    
   229  115  236 1    
   230  116  237 1    
   231  116  238 1    
   232  116  239 1    
   233  117  118 2    
   234  117  119 am   BACKBONE|DICT|INTERRES
   235  119  120 1    
   236  119  240 1    
   237  120  121 1    
   238  120  124 1    
   239  120  241 1    
   240  121  122 am   BACKBONE|DICT|INTERRES
   241  121  123 2    
   242  122  242 1    
   243  122  243 1    
   244  124  125 1    
   245  124  244 1    
   246  124  245 1    
   247  125  126 1    
   248  126  246 1    
   249  126  247 1    
@<TRIPOS>SUBSTRUCTURE
     1 UNK         1 GROUP             0       ****    0 ROOT    
