@<TRIPOS>MOLECULE
3R540
247   249    1
SMALL
USER_CHARGES


@<TRIPOS>ATOM
      1 CA         -0.5656  -11.7250  -52.8111 C.3       0 UNK        -0.1800 
      2 C          -0.8837  -12.5792  -51.5929 C.2       0 UNK         0.5000 
      3 O          -1.9241  -13.2376  -51.5668 O.2       0 UNK        -0.5000 
      4 N           0.0024  -12.5610  -50.5864 N.am      1 UNK        -0.5000 
      5 CA         -0.0360  -13.3143  -49.3204 C.3       1 UNK         0.1400 
      6 C6         -0.0615  -14.8512  -49.5110 C.3       23 UNK        -0.0398 
      7 S7          1.4761  -15.4750  -50.2707 S.3       23 UNK        -0.2404 
      8 C8          2.0094  -16.7234  -49.0576 C.3       23 UNK        -0.0205 
      9 C9          1.5058  -18.1201  -49.3975 C.ar      23 UNK        -0.0193 
     10 C10         0.1391  -18.4188  -49.3685 C.ar      23 UNK        -0.1150 
     11 C11        -0.3256  -19.7064  -49.6575 C.ar      23 UNK        -0.0193 
     12 C12         0.6102  -20.7018  -49.9672 C.ar      23 UNK        -0.1150 
     13 C13         1.9765  -20.4206  -50.0044 C.ar      23 UNK        -0.0193 
     14 C14         2.4186  -19.1274  -49.7215 C.ar      23 UNK        -0.1150 
     15 C15         2.9704  -21.5155  -50.3636 C.3       23 UNK        -0.0205 
     16 S16         3.6604  -22.3306  -48.8899 S.3       23 UNK        -0.2404 
     17 C17         2.1951  -23.1900  -48.2200 C.3       23 UNK        -0.0398 
     18 CA          2.5687  -24.1653  -47.0762 C.3       11 UNK         0.1400 
     19 N           3.0487  -23.4488  -45.8875 N.am      11 UNK        -0.5000 
     20 C           3.7974  -23.9720  -44.9071 C.2       10 UNK         0.5000 
     21 O           4.2455  -25.1185  -44.9267 O.2       10 UNK        -0.5000 
     22 CA          4.0301  -23.0849  -43.6674 C.3       10 UNK         0.1400 
     23 CB          5.2592  -22.1851  -43.8621 C.3       10 UNK        -0.1800 
     24 N           2.8638  -22.2621  -43.3290 N.am      10 UNK        -0.5000 
     25 C           1.6741  -22.7453  -42.9404 C.2       9 UNK         0.5000 
     26 O           1.4493  -23.9435  -42.7768 O.2       9 UNK        -0.5000 
     27 CA          0.5280  -21.7354  -42.7557 C.3       9 UNK         0.1400 
     28 CB          0.5604  -21.0991  -41.3582 C.3       9 UNK        -0.1800 
     29 N           0.5641  -20.6889  -43.7737 N.am      9 UNK        -0.5000 
     30 C           0.1818  -20.8592  -45.0468 C.2       8 UNK         0.5000 
     31 O          -0.3150  -21.8976  -45.4853 O.2       8 UNK        -0.5000 
     32 CA          0.4230  -19.6713  -45.9948 C.3       8 UNK         0.1400 
     33 CB         -0.7892  -18.7298  -45.9956 C.3       8 UNK        -0.1800 
     34 N           1.6336  -18.9160  -45.6588 N.am      8 UNK        -0.5000 
     35 C           2.8712  -19.4136  -45.8013 C.2       7 UNK         0.5000 
     36 O           3.0971  -20.5527  -46.2009 O.2       7 UNK        -0.5000 
     37 CA          4.0542  -18.5299  -45.3636 C.3       7 UNK         0.1400 
     38 CB          4.4878  -17.5925  -46.4984 C.3       7 UNK        -0.1800 
     39 N           3.7853  -17.7411  -44.1626 N.am      7 UNK        -0.5000 
     40 C           3.4518  -18.2448  -42.9676 C.2       6 UNK         0.5000 
     41 O           3.3394  -19.4508  -42.7445 O.2       6 UNK        -0.5000 
     42 CA          3.1449  -17.2425  -41.8373 C.3       6 UNK         0.1400 
     43 CB          3.6002  -15.7958  -42.1350 C.3       6 UNK        -0.1800 
     44 N           1.7251  -17.2604  -41.4712 N.am      6 UNK        -0.5000 
     45 C           0.6804  -17.0595  -42.2868 C.2       5 UNK         0.5000 
     46 O           0.7753  -16.8616  -43.5019 O.2       5 UNK        -0.5000 
     47 CA         -0.7017  -17.0774  -41.6205 C.3       5 UNK         0.1400 
     48 CB         -0.9155  -15.8289  -40.7460 C.3       5 UNK        -0.1800 
     49 N          -1.7314  -17.1192  -42.6505 N.am      5 UNK        -0.5000 
     50 C          -2.9281  -17.6998  -42.5371 C.2       4 UNK         0.5000 
     51 O          -3.3013  -18.2927  -41.5236 O.2       4 UNK        -0.5000 
     52 CA         -3.8724  -17.5505  -43.7485 C.3       4 UNK         0.1400 
     53 CB         -5.2258  -18.2504  -43.5297 C.3       4 UNK        -0.1800 
     54 N          -4.1150  -16.1378  -44.0481 N.am      4 UNK        -0.5000 
     55 C          -3.3106  -15.3435  -44.7647 C.2       3 UNK         0.5000 
     56 O          -2.2728  -15.7294  -45.3059 O.2       3 UNK        -0.5000 
     57 CA         -3.7136  -13.8663  -44.8382 C.3       3 UNK         0.1400 
     58 CB         -3.0097  -13.0748  -43.7246 C.3       3 UNK        -0.1800 
     59 N          -3.3338  -13.2990  -46.1296 N.am      3 UNK        -0.5000 
     60 C          -4.1684  -12.7203  -46.9975 C.2       2 UNK         0.5000 
     61 O          -5.3836  -12.6419  -46.8123 O.2       2 UNK        -0.5000 
     62 CA         -3.5861  -12.1043  -48.2875 C.3       2 UNK         0.1400 
     63 CB         -3.3689  -10.5901  -48.1077 C.3       2 UNK        -0.1800 
     64 N          -2.3817  -12.7252  -48.8537 N.am      2 UNK        -0.5000 
     65 C          -1.1430  -12.8280  -48.3565 C.2       1 UNK         0.5000 
     66 O          -0.8395  -12.5193  -47.2040 O.2       1 UNK        -0.5000 
     67 C           1.4051  -25.1413  -46.7679 C.2       11 UNK         0.5000 
     68 O           0.9624  -25.8435  -47.6774 O.2       11 UNK        -0.5000 
     69 N           0.9305  -25.1840  -45.5128 N.am      12 UNK        -0.5000 
     70 CA         -0.0417  -26.1051  -44.9068 C.3       12 UNK         0.1400 
     71 CB          0.4413  -27.5645  -45.0088 C.3       12 UNK        -0.1800 
     72 C          -1.4968  -25.9714  -45.3941 C.2       12 UNK         0.5000 
     73 O          -2.4104  -26.2068  -44.6024 O.2       12 UNK        -0.5000 
     74 N          -1.6997  -25.6086  -46.6659 N.am      13 UNK        -0.5000 
     75 CA         -3.0100  -25.4517  -47.2984 C.3       13 UNK         0.1400 
     76 CB         -2.8225  -25.2830  -48.8128 C.3       13 UNK        -0.1800 
     77 C          -3.8489  -24.3056  -46.7001 C.2       13 UNK         0.5000 
     78 O          -5.0647  -24.4585  -46.5780 O.2       13 UNK        -0.5000 
     79 N          -3.1810  -23.2063  -46.3112 N.am      14 UNK        -0.5000 
     80 CA         -3.7183  -22.0550  -45.5743 C.3       14 UNK         0.1400 
     81 CB         -3.9535  -22.4422  -44.1007 C.3       14 UNK        -0.1800 
     82 C          -4.9501  -21.3865  -46.2272 C.2       14 UNK         0.5000 
     83 O          -5.8485  -20.9211  -45.5260 O.2       14 UNK        -0.5000 
     84 N          -4.9598  -21.3285  -47.5653 N.am      15 UNK        -0.5000 
     85 CA         -6.0352  -20.7501  -48.3793 C.3       15 UNK         0.1400 
     86 CB         -6.0677  -21.4732  -49.7312 C.3       15 UNK        -0.1800 
     87 C          -5.9024  -19.2235  -48.5713 C.2       15 UNK         0.5000 
     88 O          -6.7006  -18.6304  -49.2982 O.2       15 UNK        -0.5000 
     89 N          -4.9011  -18.6206  -47.9168 N.am      16 UNK        -0.5000 
     90 CA         -4.5894  -17.1944  -47.8087 C.3       16 UNK         0.1400 
     91 CB         -5.7717  -16.4016  -47.2175 C.3       16 UNK        -0.1800 
     92 C          -4.0777  -16.5424  -49.1026 C.2       16 UNK         0.5000 
     93 O          -2.9735  -16.0040  -49.1011 O.2       16 UNK        -0.5000 
     94 N          -4.8772  -16.5765  -50.1734 N.am      17 UNK        -0.5000 
     95 CA         -4.6720  -15.8185  -51.4118 C.3       17 UNK         0.1400 
     96 CB         -6.0421  -15.5582  -52.0623 C.3       17 UNK        -0.1800 
     97 C          -3.6445  -16.4533  -52.3760 C.2       17 UNK         0.5000 
     98 O          -3.9471  -16.6676  -53.5520 O.2       17 UNK        -0.5000 
     99 N          -2.4391  -16.7149  -51.8536 N.am      18 UNK        -0.5000 
    100 CA        -1.2394  -17.2011  -52.5449 C.3       18 UNK         0.1400 
    101 CB        -0.7472  -16.1489  -53.5623 C.3       18 UNK        -0.1800 
    102 C         -1.4028  -18.5982  -53.1790 C.2       18 UNK         0.5000 
    103 O         -2.3973  -19.2880  -52.9416 O.2       18 UNK        -0.5000 
    104 N         -0.4124  -19.0046  -53.9851 N.am      19 UNK        -0.5000 
    105 CA        -0.3595  -20.2924  -54.6859 C.3       19 UNK         0.1400 
    106 CB         0.9740  -20.3967  -55.4399 C.3       19 UNK        -0.1800 
    107 C         -1.5443  -20.5425  -55.6411 C.2       19 UNK         0.5000 
    108 O         -1.8812  -21.6986  -55.8934 O.2       19 UNK        -0.5000 
    109 N         -2.1847  -19.4643  -56.1142 N.am      20 UNK        -0.5000 
    110 CA        -3.4221  -19.4972  -56.8938 C.3       20 UNK         0.1400 
    111 CB        -3.7470  -18.0739  -57.3721 C.3       20 UNK        -0.1800 
    112 C         -4.6169  -20.0911  -56.1192 C.2       20 UNK         0.5000 
    113 O         -5.4778  -20.7194  -56.7367 O.2       20 UNK        -0.5000 
    114 N         -4.6420  -19.8959  -54.7937 N.am      21 UNK        -0.5000 
    115 CA        -5.6462  -20.4559  -53.8933 C.3       21 UNK         0.1400 
    116 CB        -6.0317  -19.3994  -52.8489 C.3       21 UNK        -0.1800 
    117 C         -5.1296  -21.7326  -53.2125 C.2       21 UNK         0.5000 
    118 O         -5.8704  -22.7131  -53.1323 O.2       21 UNK        -0.5000 
    119 N         -3.8804  -21.6982  -52.7274 N.am      22 UNK        -0.5000 
    120 CA        -3.2289  -22.8172  -52.0272 C.3       22 UNK         0.1400 
    121 C         -2.8869  -24.0410  -52.9281 C.2       22 UNK         0.5000 
    122 N         -2.7299  -23.8963  -54.2373 N.am      22 UNK        -0.7600 
    123 O         -2.7681  -25.1540  -52.4244 O.2       22 UNK        -0.5000 
    124 C124       -1.9805  -22.3460  -51.2346 C.3       23 UNK        -0.0398 
    125 S125       -2.3751  -21.7016  -49.5687 S.3       23 UNK        -0.2404 
    126 C126       -1.8365  -19.9576  -49.6212 C.3       23 UNK        -0.0205 
    127 H127        0.3833  -11.1993  -52.7027 H         1 UNK         0.0600 
    128 H128       -1.3504  -10.9844  -52.9646 H         1 UNK         0.0600 
    129 H129       -0.5077  -12.3518  -53.7010 H         1 UNK         0.0600 
    130 H130        0.8163  -11.9707  -50.6866 H         1 UNK         0.3000 
    131 H131        0.9040  -13.0729  -48.8209 H         1 UNK         0.0600 
    132 H132       -0.8853  -15.1428  -50.1571 H         1 UNK         0.0800 
    133 H133       -0.2329  -15.3513  -48.5565 H         1 UNK         0.0800 
    134 H134        1.6909  -16.4517  -48.0507 H         1 UNK         0.0800 
    135 H135        3.0997  -16.7140  -49.0399 H         1 UNK         0.0800 
    136 H136       -0.5705  -17.6436  -49.1187 H         1 UNK         0.1150 
    137 H137        0.2996  -21.7115  -50.1741 H         1 UNK         0.1150 
    138 H138        3.4774  -18.9117  -49.7442 H         1 UNK         0.1150 
    139 H139        2.5030  -22.2612  -51.0086 H         1 UNK         0.0800 
    140 H140        3.7898  -21.0873  -50.9425 H         1 UNK         0.0800 
    141 H141        1.7193  -23.7187  -49.0478 H         1 UNK         0.0800 
    142 H142        1.4744  -22.4505  -47.8666 H         1 UNK         0.0800 
    143 H143        3.3863  -24.7940  -47.4353 H         1 UNK         0.0600 
    144 H144        2.8154  -22.4608  -45.8406 H         1 UNK         0.3000 
    145 H145        4.2249  -23.7444  -42.8192 H         1 UNK         0.0600 
    146 H146        5.4330  -21.5561  -42.9887 H         1 UNK         0.0600 
    147 H147        6.1573  -22.7838  -44.0176 H         1 UNK         0.0600 
    148 H148        5.1481  -21.5346  -44.7288 H         1 UNK         0.0600 
    149 H149        2.9869  -21.2551  -43.3776 H         1 UNK         0.3000 
    150 H150       -0.4137  -22.2804  -42.8533 H         1 UNK         0.0600 
    151 H151        0.5159  -21.8644  -40.5824 H         1 UNK         0.0600 
    152 H152       -0.2928  -20.4374  -41.2092 H         1 UNK         0.0600 
    153 H153        1.4688  -20.5197  -41.1936 H         1 UNK         0.0600 
    154 H154        1.0214  -19.8242  -43.5229 H         1 UNK         0.3000 
    155 H155        0.5471  -20.0770  -46.9999 H         1 UNK         0.0600 
    156 H156       -0.9838  -18.3367  -45.0001 H         1 UNK         0.0600 
    157 H157       -1.6885  -19.2478  -46.3279 H         1 UNK         0.0600 
    158 H158       -0.6366  -17.8789  -46.6590 H         1 UNK         0.0600 
    159 H159        1.5077  -17.9998  -45.2442 H         1 UNK         0.3000 
    160 H160        4.8908  -19.1938  -45.1393 H         1 UNK         0.0600 
    161 H161        3.7419  -16.8201  -46.6844 H         1 UNK         0.0600 
    162 H162        4.6380  -18.1433  -47.4281 H         1 UNK         0.0600 
    163 H163        5.4287  -17.0964  -46.2599 H         1 UNK         0.0600 
    164 H164        3.8176  -16.7373  -44.2638 H         1 UNK         0.3000 
    165 H165        3.6994  -17.5906  -40.9647 H         1 UNK         0.0600 
    166 H166        3.4438  -15.1559  -41.2665 H         1 UNK         0.0600 
    167 H167        4.6646  -15.7574  -42.3708 H         1 UNK         0.0600 
    168 H168        3.0553  -15.3515  -42.9687 H         1 UNK         0.0600 
    169 H169        1.5396  -17.4443  -40.4952 H         1 UNK         0.3000 
    170 H170       -0.7627  -17.9740  -41.0004 H         1 UNK         0.0600 
    171 H171       -0.1690  -15.7650  -39.9537 H         1 UNK         0.0600 
    172 H172       -0.8508  -14.9128  -41.3347 H         1 UNK         0.0600 
    173 H173       -1.8938  -15.8472  -40.2652 H         1 UNK         0.0600 
    174 H174       -1.4737  -16.6781  -43.5289 H         1 UNK         0.3000 
    175 H175       -3.3898  -18.0260  -44.6041 H         1 UNK         0.0600 
    176 H176       -5.7883  -17.7976  -42.7126 H         1 UNK         0.0600 
    177 H177       -5.8442  -18.2108  -44.4254 H         1 UNK         0.0600 
    178 H178       -5.0878  -19.3043  -43.2872 H         1 UNK         0.0600 
    179 H179       -4.9221  -15.7297  -43.5984 H         1 UNK         0.3000 
    180 H180       -4.7926  -13.7959  -44.6864 H         1 UNK         0.0600 
    181 H181       -1.9243  -13.1169  -43.8262 H         1 UNK         0.0600 
    182 H182       -3.2632  -13.4699  -42.7399 H         1 UNK         0.0600 
    183 H183       -3.3062  -12.0259  -43.7407 H         1 UNK         0.0600 
    184 H184       -2.3450  -13.3275  -46.3613 H         1 UNK         0.3000 
    185 H185       -4.3537  -12.2331  -49.0522 H         1 UNK         0.0600 
    186 H186       -4.2878  -10.0982  -47.7861 H         1 UNK         0.0600 
    187 H187       -2.6061  -10.3770  -47.3582 H         1 UNK         0.0600 
    188 H188       -3.0611  -10.1220  -49.0428 H         1 UNK         0.0600 
    189 H189       -2.4794  -13.0302  -49.8201 H         1 UNK         0.3000 
    190 H190        1.3361  -24.5350  -44.8500 H         1 UNK         0.3000 
    191 H191       -0.0589  -25.8486  -43.8471 H         1 UNK         0.0600 
    192 H192        0.4651  -27.9156  -46.0407 H         1 UNK         0.0600 
    193 H193       -0.2194  -28.2322  -44.4544 H         1 UNK         0.0600 
    194 H194        1.4419  -27.6779  -44.5914 H         1 UNK         0.0600 
    195 H195       -0.8795  -25.5043  -47.2548 H         1 UNK         0.3000 
    196 H196       -3.5701  -26.3745  -47.1337 H         1 UNK         0.0600 
    197 H197       -2.0979  -24.5034  -49.0408 H         1 UNK         0.0600 
    198 H198       -3.7601  -25.0233  -49.3064 H         1 UNK         0.0600 
    199 H199       -2.4620  -26.2060  -49.2671 H         1 UNK         0.0600 
    200 H200       -2.1794  -23.1895  -46.4553 H         1 UNK         0.3000 
    201 H201       -2.9362  -21.2964  -45.5873 H         1 UNK         0.0600 
    202 H202       -3.0521  -22.8681  -43.6595 H         1 UNK         0.0600 
    203 H203       -4.7538  -23.1763  -44.0015 H         1 UNK         0.0600 
    204 H204       -4.2256  -21.5738  -43.5006 H         1 UNK         0.0600 
    205 H205       -4.1803  -21.7291  -48.0718 H         1 UNK         0.3000 
    206 H206       -6.9898  -20.9312  -47.8811 H         1 UNK         0.0600 
    207 H207       -6.0740  -22.5564  -49.6084 H         1 UNK         0.0600 
    208 H208       -6.9614  -21.2067  -50.2956 H         1 UNK         0.0600 
    209 H209       -5.2037  -21.2054  -50.3362 H         1 UNK         0.0600 
    210 H210       -4.3045  -19.2296  -47.3788 H         1 UNK         0.3000 
    211 H211       -3.7691  -17.1376  -47.0931 H         1 UNK         0.0600 
    212 H212       -6.6364  -16.3906  -47.8811 H         1 UNK         0.0600 
    213 H213       -5.4926  -15.3645  -47.0403 H         1 UNK         0.0600 
    214 H214       -6.0916  -16.8170  -46.2636 H         1 UNK         0.0600 
    215 H215       -5.7315  -17.1211  -50.0996 H         1 UNK         0.3000 
    216 H216       -4.2628  -14.8414  -51.1453 H         1 UNK         0.0600 
    217 H217       -5.9400  -14.9924  -52.9892 H         1 UNK         0.0600 
    218 H218       -6.6835  -14.9762  -51.4004 H         1 UNK         0.0600 
    219 H219       -6.5626  -16.4857  -52.2945 H         1 UNK         0.0600 
    220 H220       -2.3339  -16.5172  -50.8640 H         1 UNK         0.3000 
    221 H221       -0.4706  -17.3027  -51.7811 H         1 UNK         0.0600 
    222 H222       -1.4205  -16.0619  -54.4158 H         1 UNK         0.0600 
    223 H223       -0.6699  -15.1664  -53.0991 H         1 UNK         0.0600 
    224 H224        0.2444  -16.3901  -53.9454 H         1 UNK         0.0600 
    225 H225        0.3756  -18.3902  -54.1287 H         1 UNK         0.3000 
    226 H226       -0.3841  -21.0795  -53.9303 H         1 UNK         0.0600 
    227 H227        1.8206  -20.3194  -54.7574 H         1 UNK         0.0600 
    228 H228        1.0591  -21.3558  -55.9527 H         1 UNK         0.0600 
    229 H229        1.0735  -19.6124  -56.1913 H         1 UNK         0.0600 
    230 H230       -1.8442  -18.5532  -55.8462 H         1 UNK         0.3000 
    231 H231       -3.2500  -20.1249  -57.7705 H         1 UNK         0.0600 
    232 H232       -2.9425  -17.6699  -57.9869 H         1 UNK         0.0600 
    233 H233       -3.9033  -17.3946  -56.5325 H         1 UNK         0.0600 
    234 H234       -4.6546  -18.0627  -57.9770 H         1 UNK         0.0600 
    235 H235       -3.8832  -19.3852  -54.3552 H         1 UNK         0.3000 
    236 H236       -6.5494  -20.7134  -54.4505 H         1 UNK         0.0600 
    237 H237       -6.4011  -18.4993  -53.3379 H         1 UNK         0.0600 
    238 H238       -6.8258  -19.7622  -52.1965 H         1 UNK         0.0600 
    239 H239       -5.1868  -19.1191  -52.2184 H         1 UNK         0.0600 
    240 H240       -3.3410  -20.8398  -52.8132 H         1 UNK         0.3000 
    241 H241       -3.9516  -23.2017  -51.3047 H         1 UNK         0.0600 
    242 H242       -2.5180  -24.7093  -54.7927 H         1 UNK         0.3800 
    243 H243       -2.7398  -22.9866  -54.6850 H         1 UNK         0.3800 
    244 H244       -1.4247  -21.6027  -51.8060 H         1 UNK         0.0800 
    245 H245       -1.2859  -23.1727  -51.0730 H         1 UNK         0.0800 
    246 H246       -2.3171  -19.4589  -50.4592 H         1 UNK         0.0800 
    247 H247       -2.2358  -19.4766  -48.7288 H         1 UNK         0.0800 
@<TRIPOS>BOND
     1    1    2 1    
     2    1  127 1    
     3    1  128 1    
     4    1  129 1    
     5    2    3 2    
     6    2    4 am   BACKBONE|DICT|INTERRES
     7    4    5 1    
     8    4  130 1    
     9    5    6 1    
    10    5   65 1    
    11    5  131 1    
    12    6    7 1    
    13    6  132 1    
    14    6  133 1    
    15    7    8 1    
    16    8    9 1    
    17    8  134 1    
    18    8  135 1    
    19    9   10 ar   
    20    9   14 ar   
    21   10   11 ar   
    22   10  136 1    
    23   11   12 ar   
    24   11  126 1    
    25   12   13 ar   
    26   12  137 1    
    27   13   14 ar   
    28   13   15 1    
    29   14  138 1    
    30   15   16 1    
    31   15  139 1    
    32   15  140 1    
    33   16   17 1    
    34   17   18 1    
    35   17  141 1    
    36   17  142 1    
    37   18   19 1    
    38   18   67 1    
    39   18  143 1    
    40   19   20 am   BACKBONE|DICT|INTERRES
    41   19  144 1    
    42   20   21 2    
    43   20   22 1    
    44   22   23 1    
    45   22   24 1    
    46   22  145 1    
    47   23  146 1    
    48   23  147 1    
    49   23  148 1    
    50   24   25 am   BACKBONE|DICT|INTERRES
    51   24  149 1    
    52   25   26 2    
    53   25   27 1    
    54   27   28 1    
    55   27   29 1    
    56   27  150 1    
    57   28  151 1    
    58   28  152 1    
    59   28  153 1    
    60   29   30 am   BACKBONE|DICT|INTERRES
    61   29  154 1    
    62   30   31 2    
    63   30   32 1    
    64   32   33 1    
    65   32   34 1    
    66   32  155 1    
    67   33  156 1    
    68   33  157 1    
    69   33  158 1    
    70   34   35 am   BACKBONE|DICT|INTERRES
    71   34  159 1    
    72   35   36 2    
    73   35   37 1    
    74   37   38 1    
    75   37   39 1    
    76   37  160 1    
    77   38  161 1    
    78   38  162 1    
    79   38  163 1    
    80   39   40 am   BACKBONE|DICT|INTERRES
    81   39  164 1    
    82   40   41 2    
    83   40   42 1    
    84   42   43 1    
    85   42   44 1    
    86   42  165 1    
    87   43  166 1    
    88   43  167 1    
    89   43  168 1    
    90   44   45 am   BACKBONE|DICT|INTERRES
    91   44  169 1    
    92   45   46 2    
    93   45   47 1    
    94   47   48 1    
    95   47   49 1    
    96   47  170 1    
    97   48  171 1    
    98   48  172 1    
    99   48  173 1    
   100   49   50 am   BACKBONE|DICT|INTERRES
   101   49  174 1    
   102   50   51 2    
   103   50   52 1    
   104   52   53 1    
   105   52   54 1    
   106   52  175 1    
   107   53  176 1    
   108   53  177 1    
   109   53  178 1    
   110   54   55 am   BACKBONE|DICT|INTERRES
   111   54  179 1    
   112   55   56 2    
   113   55   57 1    
   114   57   58 1    
   115   57   59 1    
   116   57  180 1    
   117   58  181 1    
   118   58  182 1    
   119   58  183 1    
   120   59   60 am   BACKBONE|DICT|INTERRES
   121   59  184 1    
   122   60   61 2    
   123   60   62 1    
   124   62   63 1    
   125   62   64 1    
   126   62  185 1    
   127   63  186 1    
   128   63  187 1    
   129   63  188 1    
   130   64   65 am   BACKBONE|DICT|INTERRES
   131   64  189 1    
   132   65   66 2    
   133   67   68 2    
   134   67   69 am   BACKBONE|DICT|INTERRES
   135   69   70 1    
   136   69  190 1    
   137   70   71 1    
   138   70   72 1    
   139   70  191 1    
   140   71  192 1    
   141   71  193 1    
   142   71  194 1    
   143   72   73 2    
   144   72   74 am   BACKBONE|DICT|INTERRES
   145   74   75 1    
   146   74  195 1    
   147   75   76 1    
   148   75   77 1    
   149   75  196 1    
   150   76  197 1    
   151   76  198 1    
   152   76  199 1    
   153   77   78 2    
   154   77   79 am   BACKBONE|DICT|INTERRES
   155   79   80 1    
   156   79  200 1    
   157   80   81 1    
   158   80   82 1    
   159   80  201 1    
   160   81  202 1    
   161   81  203 1    
   162   81  204 1    
   163   82   83 2    
   164   82   84 am   BACKBONE|DICT|INTERRES
   165   84   85 1    
   166   84  205 1    
   167   85   86 1    
   168   85   87 1    
   169   85  206 1    
   170   86  207 1    
   171   86  208 1    
   172   86  209 1    
   173   87   88 2    
   174   87   89 am   BACKBONE|DICT|INTERRES
   175   89   90 1    
   176   89  210 1    
   177   90   91 1    
   178   90   92 1    
   179   90  211 1    
   180   91  212 1    
   181   91  213 1    
   182   91  214 1    
   183   92   93 2    
   184   92   94 am   BACKBONE|DICT|INTERRES
   185   94   95 1    
   186   94  215 1    
   187   95   96 1    
   188   95   97 1    
   189   95  216 1    
   190   96  217 1    
   191   96  218 1    
   192   96  219 1    
   193   97   98 2    
   194   97   99 am   BACKBONE|DICT|INTERRES
   195   99  100 1    
   196   99  220 1    
   197  100  101 1    
   198  100  102 1    
   199  100  221 1    
   200  101  222 1    
   201  101  223 1    
   202  101  224 1    
   203  102  103 2    
   204  102  104 am   BACKBONE|DICT|INTERRES
   205  104  105 1    
   206  104  225 1    
   207  105  106 1    
   208  105  107 1    
   209  105  226 1    
   210  106  227 1    
   211  106  228 1    
   212  106  229 1    
   213  107  108 2    
   214  107  109 am   BACKBONE|DICT|INTERRES
   215  109  110 1    
   216  109  230 1    
   217  110  111 1    
   218  110  112 1    
   219  110  231 1    
   220  111  232 1    
   221  111  233 1    
   222  111  234 1    
   223  112  113 2    
   224  112  114 am   BACKBONE|DICT|INTERRES
   225  114  115 1    
   226  114  235 1    
   227  115  116 1    
   228  115  117 1    
   229  115  236 1    
   230  116  237 1    
   231  116  238 1    
   232  116  239 1    
   233  117  118 2    
   234  117  119 am   BACKBONE|DICT|INTERRES
   235  119  120 1    
   236  119  240 1    
   237  120  121 1    
   238  120  124 1    
   239  120  241 1    
   240  121  122 am   BACKBONE|DICT|INTERRES
   241  121  123 2    
   242  122  242 1    
   243  122  243 1    
   244  124  125 1    
   245  124  244 1    
   246  124  245 1    
   247  125  126 1    
   248  126  246 1    
   249  126  247 1    
@<TRIPOS>SUBSTRUCTURE
     1 UNK         1 GROUP             0       ****    0 ROOT    
