@<TRIPOS>MOLECULE
3R540
247   249    1
SMALL
USER_CHARGES


@<TRIPOS>ATOM
      1 CA         -2.9667  -10.1648  -49.1326 C.3       0 UNK        -0.1800 
      2 C          -3.6639  -11.1772  -48.2248 C.2       0 UNK         0.5000 
      3 O          -4.8899  -11.1565  -48.1339 O.2       0 UNK        -0.5000 
      4 N          -2.9471  -12.0861  -47.5490 N.am      1 UNK        -0.5000 
      5 CA         -1.4870  -12.1981  -47.4708 C.3       1 UNK         0.1400 
      6 C6         -1.0541  -13.5291  -46.8088 C.3       23 UNK        -0.0398 
      7 S7         -1.3658  -14.9621  -47.8905 S.3       23 UNK        -0.2404 
      8 C8          0.3248  -15.2714  -48.4817 C.3       23 UNK        -0.0205 
      9 C9          0.3826  -16.4069  -49.4894 C.ar      23 UNK        -0.0193 
     10 C10         0.2122  -16.1506  -50.8549 C.ar      23 UNK        -0.1150 
     11 C11         0.3429  -17.1789  -51.7956 C.ar      23 UNK        -0.0193 
     12 C12         0.6602  -18.4641  -51.3495 C.ar      23 UNK        -0.1150 
     13 C13         0.7756  -18.7452  -49.9876 C.ar      23 UNK        -0.0193 
     14 C14         0.6438  -17.7110  -49.0595 C.ar      23 UNK        -0.1150 
     15 C15         1.0516  -20.1685  -49.5373 C.3       23 UNK        -0.0205 
     16 S16        -0.4526  -21.1863  -49.6472 S.3       23 UNK        -0.2404 
     17 C17         0.2537  -22.8612  -49.4579 C.3       23 UNK        -0.0398 
     18 CA         -0.0543  -23.5388  -48.1030 C.3       11 UNK         0.1400 
     19 N           0.3204  -22.7070  -46.9546 N.am      11 UNK        -0.5000 
     20 C           1.4754  -22.8160  -46.2831 C.2       10 UNK         0.5000 
     21 O           2.3580  -23.6231  -46.5771 O.2       10 UNK        -0.5000 
     22 CA          1.7008  -21.8828  -45.0728 C.3       10 UNK         0.1400 
     23 CB          2.6409  -20.7266  -45.4474 C.3       10 UNK        -0.1800 
     24 N           0.4789  -21.3184  -44.5017 N.am      10 UNK        -0.5000 
     25 C          -0.5281  -22.0168  -43.9588 C.2       9 UNK         0.5000 
     26 O          -0.5313  -23.2418  -43.8439 O.2       9 UNK        -0.5000 
     27 CA         -1.7705  -21.2173  -43.5228 C.3       9 UNK         0.1400 
     28 CB         -1.6791  -20.8655  -42.0307 C.3       9 UNK        -0.1800 
     29 N          -1.9970  -19.9850  -44.2840 N.am      9 UNK        -0.5000 
     30 C          -2.0736  -19.8595  -45.6185 C.2       8 UNK         0.5000 
     31 O          -1.9707  -20.8029  -46.4016 O.2       8 UNK        -0.5000 
     32 CA         -2.2509  -18.4327  -46.1700 C.3       8 UNK         0.1400 
     33 CB         -3.7287  -18.1635  -46.4865 C.3       8 UNK        -0.1800 
     34 N          -1.7605  -17.4048  -45.2477 N.am      8 UNK        -0.5000 
     35 C          -0.4708  -17.2350  -44.9256 C.2       7 UNK         0.5000 
     36 O           0.4416  -17.8832  -45.4432 O.2       7 UNK        -0.5000 
     37 CA         -0.1709  -16.1691  -43.8490 C.3       7 UNK         0.1400 
     38 CB         -1.1401  -16.2487  -42.6494 C.3       7 UNK        -0.1800 
     39 N           1.2166  -16.1944  -43.3818 N.am      7 UNK        -0.5000 
     40 C           1.8706  -17.2000  -42.7787 C.2       6 UNK         0.5000 
     41 O           1.3617  -18.2768  -42.4629 O.2       6 UNK        -0.5000 
     42 CA          3.3495  -16.9357  -42.4549 C.3       6 UNK         0.1400 
     43 CB          4.2052  -16.9908  -43.7314 C.3       6 UNK        -0.1800 
     44 N           3.5028  -15.6242  -41.8270 N.am      6 UNK        -0.5000 
     45 C           3.5838  -15.4145  -40.5058 C.2       5 UNK         0.5000 
     46 O           3.6482  -16.3165  -39.6697 O.2       5 UNK        -0.5000 
     47 CA          3.5790  -13.9461  -40.0323 C.3       5 UNK         0.1400 
     48 CB          5.0143  -13.4083  -39.9289 C.3       5 UNK        -0.1800 
     49 N           2.8016  -13.0679  -40.9086 N.am      5 UNK        -0.5000 
     50 C           1.4712  -13.1258  -41.0626 C.2       4 UNK         0.5000 
     51 O           0.7402  -13.8498  -40.3868 O.2       4 UNK        -0.5000 
     52 CA          0.8481  -12.2493  -42.1684 C.3       4 UNK         0.1400 
     53 CB          0.1363  -11.0323  -41.5590 C.3       4 UNK        -0.1800 
     54 N           1.7887  -11.7787  -43.1908 N.am      4 UNK        -0.5000 
     55 C           2.4931  -12.5453  -44.0324 C.2       3 UNK         0.5000 
     56 O           2.4973  -13.7765  -43.9844 O.2       3 UNK        -0.5000 
     57 CA          3.3013  -11.8033  -45.1157 C.3       3 UNK         0.1400 
     58 CB          4.1204  -12.7638  -45.9968 C.3       3 UNK        -0.1800 
     59 N           2.4164  -11.0165  -45.9748 N.am      3 UNK        -0.5000 
     60 C           1.8865   -9.8217  -45.6751 C.2       2 UNK         0.5000 
     61 O           2.1413   -9.2035  -44.6408 O.2       2 UNK        -0.5000 
     62 CA          0.8616   -9.2550  -46.6760 C.3       2 UNK         0.1400 
     63 CB          1.5633   -8.4218  -47.7589 C.3       2 UNK        -0.1800 
     64 N           0.0764  -10.3165  -47.3126 N.am      2 UNK        -0.5000 
     65 C          -0.8865  -11.0122  -46.6921 C.2       1 UNK         0.5000 
     66 O          -1.2808  -10.7737  -45.5491 O.2       1 UNK        -0.5000 
     67 C          -1.4981  -24.0721  -48.0018 C.2       11 UNK         0.5000 
     68 O          -1.7889  -25.1242  -48.5748 O.2       11 UNK        -0.5000 
     69 N          -2.3738  -23.4133  -47.2273 N.am      12 UNK        -0.5000 
     70 CA         -3.7246  -23.8946  -46.9212 C.3       12 UNK         0.1400 
     71 CB         -4.5253  -22.7946  -46.2109 C.3       12 UNK        -0.1800 
     72 C          -3.7263  -25.1944  -46.0948 C.2       12 UNK         0.5000 
     73 O          -4.6362  -26.0065  -46.2565 O.2       12 UNK        -0.5000 
     74 N          -2.6767  -25.4116  -45.2871 N.am      13 UNK        -0.5000 
     75 CA         -2.4242  -26.6636  -44.5658 C.3       13 UNK         0.1400 
     76 CB         -1.2645  -26.4521  -43.5818 C.3       13 UNK        -0.1800 
     77 C          -2.1300  -27.8611  -45.4954 C.2       13 UNK         0.5000 
     78 O          -2.3589  -29.0037  -45.0985 O.2       13 UNK        -0.5000 
     79 N          -1.6586  -27.5794  -46.7182 N.am      14 UNK        -0.5000 
     80 CA         -1.4445  -28.5518  -47.7916 C.3       14 UNK         0.1400 
     81 CB         -0.1534  -28.1781  -48.5411 C.3       14 UNK        -0.1800 
     82 C          -2.6479  -28.6238  -48.7572 C.2       14 UNK         0.5000 
     83 O          -2.5564  -29.3079  -49.7771 O.2       14 UNK        -0.5000 
     84 N          -3.7426  -27.9159  -48.4317 N.am      15 UNK        -0.5000 
     85 CA         -4.9845  -27.7757  -49.1991 C.3       15 UNK         0.1400 
     86 CB         -5.7144  -29.1297  -49.3255 C.3       15 UNK        -0.1800 
     87 C          -4.7928  -27.0603  -50.5538 C.2       15 UNK         0.5000 
     88 O          -5.5400  -27.3243  -51.4974 O.2       15 UNK        -0.5000 
     89 N          -3.8099  -26.1538  -50.6235 N.am      16 UNK        -0.5000 
     90 CA         -3.4673  -25.3729  -51.8090 C.3       16 UNK         0.1400 
     91 CB         -2.1934  -25.9596  -52.4452 C.3       16 UNK        -0.1800 
     92 C          -3.3147  -23.8979  -51.4085 C.2       16 UNK         0.5000 
     93 O          -2.2731  -23.2973  -51.6652 O.2       16 UNK        -0.5000 
     94 N          -4.3489  -23.3615  -50.7481 N.am      17 UNK        -0.5000 
     95 CA         -4.3943  -22.0352  -50.1274 C.3       17 UNK         0.1400 
     96 CB         -5.7945  -21.8371  -49.5235 C.3       17 UNK        -0.1800 
     97 C          -4.0468  -20.8526  -51.0533 C.2       17 UNK         0.5000 
     98 O          -4.1347  -20.9593  -52.2811 O.2       17 UNK        -0.5000 
     99 N          -3.6918  -19.7260  -50.4224 N.am      18 UNK        -0.5000 
    100 CA        -3.3903  -18.4479  -51.0635 C.3       18 UNK         0.1400 
    101 CB        -3.0545  -17.4134  -49.9841 C.3       18 UNK        -0.1800 
    102 C         -4.5558  -17.9450  -51.9329 C.2       18 UNK         0.5000 
    103 O         -5.7132  -18.0487  -51.5205 O.2       18 UNK        -0.5000 
    104 N         -4.2259  -17.4519  -53.1322 N.am      19 UNK        -0.5000 
    105 CA        -5.1054  -17.0065  -54.2221 C.3       19 UNK         0.1400 
    106 CB        -6.0273  -15.8552  -53.7767 C.3       19 UNK        -0.1800 
    107 C         -5.9067  -18.1380  -54.9009 C.2       19 UNK         0.5000 
    108 O         -6.1262  -18.0692  -56.1108 O.2       19 UNK        -0.5000 
    109 N         -6.3110  -19.1610  -54.1369 N.am      20 UNK        -0.5000 
    110 CA        -6.9929  -20.3609  -54.6187 C.3       20 UNK         0.1400 
    111 CB        -7.5555  -21.1434  -53.4218 C.3       20 UNK        -0.1800 
    112 C         -6.0742  -21.2541  -55.4713 C.2       20 UNK         0.5000 
    113 O         -6.5189  -21.7729  -56.4964 O.2       20 UNK        -0.5000 
    114 N         -4.8133  -21.4008  -55.0452 N.am      21 UNK        -0.5000 
    115 CA        -3.7872  -22.1669  -55.7503 C.3       21 UNK         0.1400 
    116 CB        -3.8828  -23.6536  -55.3694 C.3       21 UNK        -0.1800 
    117 C         -2.3692  -21.6290  -55.5025 C.2       21 UNK         0.5000 
    118 O         -1.5520  -21.6882  -56.4222 O.2       21 UNK        -0.5000 
    119 N         -2.0941  -21.1206  -54.2914 N.am      22 UNK        -0.5000 
    120 CA        -0.7622  -20.6822  -53.8333 C.3       22 UNK         0.1400 
    121 C          0.2869  -21.8385  -53.8204 C.2       22 UNK         0.5000 
    122 N         -0.0333  -22.9818  -53.2324 N.am      22 UNK        -0.7600 
    123 O          1.3935  -21.7140  -54.3395 O.2       22 UNK        -0.5000 
    124 C124       -0.2415  -19.4035  -54.5619 C.3       23 UNK        -0.0398 
    125 S125       -1.1286  -17.8787  -54.0911 S.3       23 UNK        -0.2404 
    126 C126        0.1833  -16.8877  -53.2860 C.3       23 UNK        -0.0205 
    127 H127       -2.1941  -10.6322  -49.7419 H         1 UNK         0.0600 
    128 H128       -2.5190   -9.3645  -48.5438 H         1 UNK         0.0600 
    129 H129       -3.6863   -9.7114  -49.8147 H         1 UNK         0.0600 
    130 H130       -3.4483  -12.7403  -46.9664 H         1 UNK         0.3000 
    131 H131       -1.0857  -12.1862  -48.4858 H         1 UNK         0.0600 
    132 H132        0.0055  -13.5137  -46.5448 H         1 UNK         0.0800 
    133 H133       -1.5893  -13.6810  -45.8698 H         1 UNK         0.0800 
    134 H134        0.7242  -14.3614  -48.9319 H         1 UNK         0.0800 
    135 H135        0.9672  -15.5020  -47.6299 H         1 UNK         0.0800 
    136 H136       -0.0042  -15.1439  -51.1836 H         1 UNK         0.1150 
    137 H137        0.8135  -19.2610  -52.0567 H         1 UNK         0.1150 
    138 H138        0.7574  -17.9179  -48.0052 H         1 UNK         0.1150 
    139 H139        1.8349  -20.5938  -50.1663 H         1 UNK         0.0800 
    140 H140        1.4257  -20.1875  -48.5132 H         1 UNK         0.0800 
    141 H141        1.3351  -22.8089  -49.5855 H         1 UNK         0.0800 
    142 H142       -0.0943  -23.4834  -50.2828 H         1 UNK         0.0800 
    143 H143        0.5489  -24.4489  -48.0751 H         1 UNK         0.0600 
    144 H144       -0.3421  -21.9907  -46.6798 H         1 UNK         0.3000 
    145 H145        2.1829  -22.4774  -44.2945 H         1 UNK         0.0600 
    146 H146        2.8913  -20.1268  -44.5722 H         1 UNK         0.0600 
    147 H147        3.5770  -21.0981  -45.8661 H         1 UNK         0.0600 
    148 H148        2.1881  -20.0638  -46.1855 H         1 UNK         0.0600 
    149 H149        0.3850  -20.3127  -44.5577 H         1 UNK         0.3000 
    150 H150       -2.6385  -21.8605  -43.6657 H         1 UNK         0.0600 
    151 H151       -1.5292  -21.7608  -41.4256 H         1 UNK         0.0600 
    152 H152       -2.5941  -20.3879  -41.6798 H         1 UNK         0.0600 
    153 H153       -0.8473  -20.1889  -41.8286 H         1 UNK         0.0600 
    154 H154       -2.0801  -19.1417  -43.7370 H         1 UNK         0.3000 
    155 H155       -1.6776  -18.3632  -47.0965 H         1 UNK         0.0600 
    156 H156       -4.3518  -18.2352  -45.5942 H         1 UNK         0.0600 
    157 H157       -3.8646  -17.1685  -46.9104 H         1 UNK         0.0600 
    158 H158       -4.1107  -18.8828  -47.2120 H         1 UNK         0.0600 
    159 H159       -2.4595  -16.8235  -44.8092 H         1 UNK         0.3000 
    160 H160       -0.3039  -15.1986  -44.3276 H         1 UNK         0.0600 
    161 H161       -0.8662  -15.5307  -41.8767 H         1 UNK         0.0600 
    162 H162       -1.1416  -17.2395  -42.1937 H         1 UNK         0.0600 
    163 H163       -2.1643  -16.0185  -42.9432 H         1 UNK         0.0600 
    164 H164        1.7535  -15.3638  -43.6218 H         1 UNK         0.3000 
    165 H165        3.6963  -17.7235  -41.7828 H         1 UNK         0.0600 
    166 H166        5.2622  -16.8574  -43.5007 H         1 UNK         0.0600 
    167 H167        4.0999  -17.9546  -44.2305 H         1 UNK         0.0600 
    168 H168        3.9199  -16.2186  -44.4470 H         1 UNK         0.0600 
    169 H169        3.4039  -14.8230  -42.4386 H         1 UNK         0.3000 
    170 H170        3.1299  -13.9189  -39.0372 H         1 UNK         0.0600 
    171 H171        5.0282  -12.3943  -39.5287 H         1 UNK         0.0600 
    172 H172        5.5105  -13.3940  -40.9002 H         1 UNK         0.0600 
    173 H173        5.6157  -14.0278  -39.2622 H         1 UNK         0.0600 
    174 H174        3.3207  -12.4277  -41.4907 H         1 UNK         0.3000 
    175 H175        0.0992  -12.8626  -42.6739 H         1 UNK         0.0600 
    176 H176       -0.3933  -10.4630  -42.3236 H         1 UNK         0.0600 
    177 H177        0.8407  -10.3607  -41.0666 H         1 UNK         0.0600 
    178 H178       -0.6008  -11.3394  -40.8158 H         1 UNK         0.0600 
    179 H179        1.8382  -10.7750  -43.3290 H         1 UNK         0.3000 
    180 H180        3.9991  -11.1344  -44.6077 H         1 UNK         0.0600 
    181 H181        3.4805  -13.4622  -46.5380 H         1 UNK         0.0600 
    182 H182        4.8131  -13.3530  -45.3942 H         1 UNK         0.0600 
    183 H183        4.7143  -12.2168  -46.7292 H         1 UNK         0.0600 
    184 H184        2.1350  -11.4544  -46.8386 H         1 UNK         0.3000 
    185 H185        0.1835   -8.5985  -46.1262 H         1 UNK         0.0600 
    186 H186        2.2517   -9.0251  -48.3519 H         1 UNK         0.0600 
    187 H187        0.8402   -7.9707  -48.4388 H         1 UNK         0.0600 
    188 H188        2.1391   -7.6096  -47.3132 H         1 UNK         0.0600 
    189 H189        0.3315  -10.5536  -48.2608 H         1 UNK         0.3000 
    190 H190       -2.1255  -22.5042  -46.8430 H         1 UNK         0.3000 
    191 H191       -4.2202  -24.1150  -47.8684 H         1 UNK         0.0600 
    192 H192       -4.5401  -21.8731  -46.7926 H         1 UNK         0.0600 
    193 H193       -5.5612  -23.1021  -46.0629 H         1 UNK         0.0600 
    194 H194       -4.1110  -22.5641  -45.2312 H         1 UNK         0.0600 
    195 H195       -1.9752  -24.6890  -45.1926 H         1 UNK         0.3000 
    196 H196       -3.3198  -26.9084  -43.9911 H         1 UNK         0.0600 
    197 H197       -1.0520  -27.3643  -43.0226 H         1 UNK         0.0600 
    198 H198       -1.5022  -25.6755  -42.8546 H         1 UNK         0.0600 
    199 H199       -0.3483  -26.1601  -44.0968 H         1 UNK         0.0600 
    200 H200       -1.5349  -26.6103  -46.9810 H         1 UNK         0.3000 
    201 H201       -1.3105  -29.5490  -47.3681 H         1 UNK         0.0600 
    202 H202        0.6941  -28.1122  -47.8587 H         1 UNK         0.0600 
    203 H203       -0.2449  -27.2217  -49.0561 H         1 UNK         0.0600 
    204 H204        0.0949  -28.9293  -49.2918 H         1 UNK         0.0600 
    205 H205       -3.7250  -27.3923  -47.5651 H         1 UNK         0.3000 
    206 H206       -5.6255  -27.1192  -48.6094 H         1 UNK         0.0600 
    207 H207       -5.8367  -29.6038  -48.3517 H         1 UNK         0.0600 
    208 H208       -6.7114  -28.9986  -49.7476 H         1 UNK         0.0600 
    209 H209       -5.1763  -29.8233  -49.9721 H         1 UNK         0.0600 
    210 H210       -3.2337  -25.9771  -49.8062 H         1 UNK         0.3000 
    211 H211       -4.2712  -25.4156  -52.5462 H         1 UNK         0.0600 
    212 H212       -1.3468  -25.9158  -51.7585 H         1 UNK         0.0600 
    213 H213       -1.9174  -25.4145  -53.3486 H         1 UNK         0.0600 
    214 H214       -2.3402  -27.0022  -52.7272 H         1 UNK         0.0600 
    215 H215       -5.1673  -23.9364  -50.6181 H         1 UNK         0.3000 
    216 H216       -3.6606  -22.0383  -49.3201 H         1 UNK         0.0600 
    217 H217       -5.8623  -20.8946  -48.9786 H         1 UNK         0.0600 
    218 H218       -6.0437  -22.6322  -48.8211 H         1 UNK         0.0600 
    219 H219       -6.5642  -21.8228  -50.2959 H         1 UNK         0.0600 
    220 H220       -3.6559  -19.7291  -49.4153 H         1 UNK         0.3000 
    221 H221       -2.5077  -18.6029  -51.6839 H         1 UNK         0.0600 
    222 H222       -3.9128  -17.2039  -49.3455 H         1 UNK         0.0600 
    223 H223       -2.2368  -17.7559  -49.3519 H         1 UNK         0.0600 
    224 H224       -2.7432  -16.4695  -50.4330 H         1 UNK         0.0600 
    225 H225       -3.2422  -17.4531  -53.3753 H         1 UNK         0.3000 
    226 H226       -4.4349  -16.6074  -54.9849 H         1 UNK         0.0600 
    227 H227       -5.4550  -15.0400  -53.3341 H         1 UNK         0.0600 
    228 H228       -6.5722  -15.4454  -54.6280 H         1 UNK         0.0600 
    229 H229       -6.7682  -16.1817  -53.0468 H         1 UNK         0.0600 
    230 H230       -6.1164  -19.1078  -53.1426 H         1 UNK         0.3000 
    231 H231       -7.8309  -20.0459  -55.2440 H         1 UNK         0.0600 
    232 H232       -6.7632  -21.4920  -52.7592 H         1 UNK         0.0600 
    233 H233       -8.1109  -22.0202  -53.7566 H         1 UNK         0.0600 
    234 H234       -8.2384  -20.5298  -52.8340 H         1 UNK         0.0600 
    235 H235       -4.5474  -20.9771  -54.1613 H         1 UNK         0.3000 
    236 H236       -3.9626  -22.0788  -56.8249 H         1 UNK         0.0600 
    237 H237       -4.8451  -24.0773  -55.6565 H         1 UNK         0.0600 
    238 H238       -3.1075  -24.2382  -55.8662 H         1 UNK         0.0600 
    239 H239       -3.7622  -23.7906  -54.2968 H         1 UNK         0.0600 
    240 H240       -2.8058  -21.1542  -53.5668 H         1 UNK         0.3000 
    241 H241       -0.9035  -20.4317  -52.7824 H         1 UNK         0.0600 
    242 H242       -0.9144  -23.0798  -52.7255 H         1 UNK         0.3800 
    243 H243        0.6328  -23.7358  -53.2275 H         1 UNK         0.3800 
    244 H244        0.8187  -19.2465  -54.3624 H         1 UNK         0.0800 
    245 H245       -0.3080  -19.5203  -55.6435 H         1 UNK         0.0800 
    246 H246       -0.0651  -15.8355  -53.4319 H         1 UNK         0.0800 
    247 H247        1.1380  -17.0378  -53.7913 H         1 UNK         0.0800 
@<TRIPOS>BOND
     1    1    2 1    
     2    1  127 1    
     3    1  128 1    
     4    1  129 1    
     5    2    3 2    
     6    2    4 am   BACKBONE|DICT|INTERRES
     7    4    5 1    
     8    4  130 1    
     9    5    6 1    
    10    5   65 1    
    11    5  131 1    
    12    6    7 1    
    13    6  132 1    
    14    6  133 1    
    15    7    8 1    
    16    8    9 1    
    17    8  134 1    
    18    8  135 1    
    19    9   10 ar   
    20    9   14 ar   
    21   10   11 ar   
    22   10  136 1    
    23   11   12 ar   
    24   11  126 1    
    25   12   13 ar   
    26   12  137 1    
    27   13   14 ar   
    28   13   15 1    
    29   14  138 1    
    30   15   16 1    
    31   15  139 1    
    32   15  140 1    
    33   16   17 1    
    34   17   18 1    
    35   17  141 1    
    36   17  142 1    
    37   18   19 1    
    38   18   67 1    
    39   18  143 1    
    40   19   20 am   BACKBONE|DICT|INTERRES
    41   19  144 1    
    42   20   21 2    
    43   20   22 1    
    44   22   23 1    
    45   22   24 1    
    46   22  145 1    
    47   23  146 1    
    48   23  147 1    
    49   23  148 1    
    50   24   25 am   BACKBONE|DICT|INTERRES
    51   24  149 1    
    52   25   26 2    
    53   25   27 1    
    54   27   28 1    
    55   27   29 1    
    56   27  150 1    
    57   28  151 1    
    58   28  152 1    
    59   28  153 1    
    60   29   30 am   BACKBONE|DICT|INTERRES
    61   29  154 1    
    62   30   31 2    
    63   30   32 1    
    64   32   33 1    
    65   32   34 1    
    66   32  155 1    
    67   33  156 1    
    68   33  157 1    
    69   33  158 1    
    70   34   35 am   BACKBONE|DICT|INTERRES
    71   34  159 1    
    72   35   36 2    
    73   35   37 1    
    74   37   38 1    
    75   37   39 1    
    76   37  160 1    
    77   38  161 1    
    78   38  162 1    
    79   38  163 1    
    80   39   40 am   BACKBONE|DICT|INTERRES
    81   39  164 1    
    82   40   41 2    
    83   40   42 1    
    84   42   43 1    
    85   42   44 1    
    86   42  165 1    
    87   43  166 1    
    88   43  167 1    
    89   43  168 1    
    90   44   45 am   BACKBONE|DICT|INTERRES
    91   44  169 1    
    92   45   46 2    
    93   45   47 1    
    94   47   48 1    
    95   47   49 1    
    96   47  170 1    
    97   48  171 1    
    98   48  172 1    
    99   48  173 1    
   100   49   50 am   BACKBONE|DICT|INTERRES
   101   49  174 1    
   102   50   51 2    
   103   50   52 1    
   104   52   53 1    
   105   52   54 1    
   106   52  175 1    
   107   53  176 1    
   108   53  177 1    
   109   53  178 1    
   110   54   55 am   BACKBONE|DICT|INTERRES
   111   54  179 1    
   112   55   56 2    
   113   55   57 1    
   114   57   58 1    
   115   57   59 1    
   116   57  180 1    
   117   58  181 1    
   118   58  182 1    
   119   58  183 1    
   120   59   60 am   BACKBONE|DICT|INTERRES
   121   59  184 1    
   122   60   61 2    
   123   60   62 1    
   124   62   63 1    
   125   62   64 1    
   126   62  185 1    
   127   63  186 1    
   128   63  187 1    
   129   63  188 1    
   130   64   65 am   BACKBONE|DICT|INTERRES
   131   64  189 1    
   132   65   66 2    
   133   67   68 2    
   134   67   69 am   BACKBONE|DICT|INTERRES
   135   69   70 1    
   136   69  190 1    
   137   70   71 1    
   138   70   72 1    
   139   70  191 1    
   140   71  192 1    
   141   71  193 1    
   142   71  194 1    
   143   72   73 2    
   144   72   74 am   BACKBONE|DICT|INTERRES
   145   74   75 1    
   146   74  195 1    
   147   75   76 1    
   148   75   77 1    
   149   75  196 1    
   150   76  197 1    
   151   76  198 1    
   152   76  199 1    
   153   77   78 2    
   154   77   79 am   BACKBONE|DICT|INTERRES
   155   79   80 1    
   156   79  200 1    
   157   80   81 1    
   158   80   82 1    
   159   80  201 1    
   160   81  202 1    
   161   81  203 1    
   162   81  204 1    
   163   82   83 2    
   164   82   84 am   BACKBONE|DICT|INTERRES
   165   84   85 1    
   166   84  205 1    
   167   85   86 1    
   168   85   87 1    
   169   85  206 1    
   170   86  207 1    
   171   86  208 1    
   172   86  209 1    
   173   87   88 2    
   174   87   89 am   BACKBONE|DICT|INTERRES
   175   89   90 1    
   176   89  210 1    
   177   90   91 1    
   178   90   92 1    
   179   90  211 1    
   180   91  212 1    
   181   91  213 1    
   182   91  214 1    
   183   92   93 2    
   184   92   94 am   BACKBONE|DICT|INTERRES
   185   94   95 1    
   186   94  215 1    
   187   95   96 1    
   188   95   97 1    
   189   95  216 1    
   190   96  217 1    
   191   96  218 1    
   192   96  219 1    
   193   97   98 2    
   194   97   99 am   BACKBONE|DICT|INTERRES
   195   99  100 1    
   196   99  220 1    
   197  100  101 1    
   198  100  102 1    
   199  100  221 1    
   200  101  222 1    
   201  101  223 1    
   202  101  224 1    
   203  102  103 2    
   204  102  104 am   BACKBONE|DICT|INTERRES
   205  104  105 1    
   206  104  225 1    
   207  105  106 1    
   208  105  107 1    
   209  105  226 1    
   210  106  227 1    
   211  106  228 1    
   212  106  229 1    
   213  107  108 2    
   214  107  109 am   BACKBONE|DICT|INTERRES
   215  109  110 1    
   216  109  230 1    
   217  110  111 1    
   218  110  112 1    
   219  110  231 1    
   220  111  232 1    
   221  111  233 1    
   222  111  234 1    
   223  112  113 2    
   224  112  114 am   BACKBONE|DICT|INTERRES
   225  114  115 1    
   226  114  235 1    
   227  115  116 1    
   228  115  117 1    
   229  115  236 1    
   230  116  237 1    
   231  116  238 1    
   232  116  239 1    
   233  117  118 2    
   234  117  119 am   BACKBONE|DICT|INTERRES
   235  119  120 1    
   236  119  240 1    
   237  120  121 1    
   238  120  124 1    
   239  120  241 1    
   240  121  122 am   BACKBONE|DICT|INTERRES
   241  121  123 2    
   242  122  242 1    
   243  122  243 1    
   244  124  125 1    
   245  124  244 1    
   246  124  245 1    
   247  125  126 1    
   248  126  246 1    
   249  126  247 1    
@<TRIPOS>SUBSTRUCTURE
     1 UNK         1 GROUP             0       ****    0 ROOT    
