@<TRIPOS>MOLECULE
3R540
247   249    1
SMALL
USER_CHARGES


@<TRIPOS>ATOM
      1 CA          7.6660  -16.7009  -48.0802 C.3       0 UNK        -0.1800 
      2 C           6.3596  -15.9666  -47.8199 C.2       0 UNK         0.5000 
      3 O           5.8888  -15.9556  -46.6829 O.2       0 UNK        -0.5000 
      4 N           5.7911  -15.3460  -48.8654 N.am      1 UNK        -0.5000 
      5 CA          4.5161  -14.6081  -48.9022 C.3       1 UNK         0.1400 
      6 C6          4.3558  -13.9016  -50.2757 C.3       23 UNK        -0.0398 
      7 S7          2.7993  -12.9707  -50.5270 S.3       23 UNK        -0.2404 
      8 C8          2.0884  -13.7648  -52.0040 C.3       23 UNK        -0.0205 
      9 C9          1.1210  -14.8768  -51.6327 C.ar      23 UNK        -0.0193 
     10 C10        -0.2560  -14.6313  -51.6179 C.ar      23 UNK        -0.1150 
     11 C11        -1.1536  -15.6463  -51.2758 C.ar      23 UNK        -0.0193 
     12 C12        -0.6647  -16.9152  -50.9523 C.ar      23 UNK        -0.1150 
     13 C13         0.7097  -17.1647  -50.9358 C.ar      23 UNK        -0.0193 
     14 C14         1.5979  -16.1462  -51.2937 C.ar      23 UNK        -0.1150 
     15 C15         1.2411  -18.5190  -50.4966 C.3       23 UNK        -0.0205 
     16 S16         1.4071  -18.5909  -48.6843 S.3       23 UNK        -0.2404 
     17 C17        -0.2315  -19.2069  -48.1693 C.3       23 UNK        -0.0398 
     18 CA         -0.1225  -20.6306  -47.5690 C.3       11 UNK         0.1400 
     19 N           0.1335  -20.6285  -46.1263 N.am      11 UNK        -0.5000 
     20 C           0.5140  -21.7168  -45.4406 C.2       10 UNK         0.5000 
     21 O           0.7554  -22.8071  -45.9618 O.2       10 UNK        -0.5000 
     22 CA          0.5695  -21.5802  -43.9101 C.3       10 UNK         0.1400 
     23 CB          1.8000  -20.7789  -43.4656 C.3       10 UNK        -0.1800 
     24 N          -0.6391  -20.9569  -43.3716 N.am      10 UNK        -0.5000 
     25 C          -1.8568  -21.5162  -43.4012 C.2       9 UNK         0.5000 
     26 O          -2.0874  -22.6294  -43.8726 O.2       9 UNK        -0.5000 
     27 CA         -3.0161  -20.6806  -42.8303 C.3       9 UNK         0.1400 
     28 CB         -3.1530  -20.9140  -41.3187 C.3       9 UNK        -0.1800 
     29 N          -2.8751  -19.2471  -43.0816 N.am      9 UNK        -0.5000 
     30 C          -2.8694  -18.6590  -44.2836 C.2       8 UNK         0.5000 
     31 O          -2.9697  -19.2729  -45.3462 O.2       8 UNK        -0.5000 
     32 CA         -2.7059  -17.1311  -44.3160 C.3       8 UNK         0.1400 
     33 CB         -4.0577  -16.4179  -44.1362 C.3       8 UNK        -0.1800 
     34 N          -1.6924  -16.6125  -43.3909 N.am      8 UNK        -0.5000 
     35 C          -1.6855  -16.5584  -42.0513 C.2       7 UNK         0.5000 
     36 O          -2.5773  -17.0147  -41.3356 O.2       7 UNK        -0.5000 
     37 CA         -0.4535  -15.8949  -41.4059 C.3       7 UNK         0.1400 
     38 CB          0.6223  -16.9529  -41.1147 C.3       7 UNK        -0.1800 
     39 N           0.1213  -14.8473  -42.2530 N.am      7 UNK        -0.5000 
     40 C          -0.4654  -13.6697  -42.5161 C.2       6 UNK         0.5000 
     41 O          -1.4891  -13.2738  -41.9579 O.2       6 UNK        -0.5000 
     42 CA          0.1682  -12.8221  -43.6348 C.3       6 UNK         0.1400 
     43 CB          1.4009  -12.0571  -43.1302 C.3       6 UNK        -0.1800 
     44 N           0.5330  -13.6480  -44.7870 N.am      6 UNK        -0.5000 
     45 C          -0.3491  -14.2186  -45.6224 C.2       5 UNK         0.5000 
     46 O          -1.5617  -14.0162  -45.5750 O.2       5 UNK        -0.5000 
     47 CA          0.2058  -15.2121  -46.6569 C.3       5 UNK         0.1400 
     48 CB          0.3755  -14.5355  -48.0228 C.3       5 UNK        -0.1800 
     49 N           1.4804  -15.7849  -46.2157 N.am      5 UNK        -0.5000 
     50 C           1.5721  -16.8719  -45.4364 C.2       4 UNK         0.5000 
     51 O           0.5973  -17.5239  -45.0577 O.2       4 UNK        -0.5000 
     52 CA          2.9734  -17.2996  -44.9702 C.3       4 UNK         0.1400 
     53 CB          3.6021  -18.3026  -45.9462 C.3       4 UNK        -0.1800 
     54 N           3.8999  -16.1919  -44.7512 N.am      4 UNK        -0.5000 
     55 C           3.8276  -15.3500  -43.7132 C.2       3 UNK         0.5000 
     56 O           2.8665  -15.3037  -42.9465 O.2       3 UNK        -0.5000 
     57 CA          5.0239  -14.4137  -43.4895 C.3       3 UNK         0.1400 
     58 CB          6.2489  -15.2046  -43.0030 C.3       3 UNK        -0.1800 
     59 N           5.3638  -13.7118  -44.7224 N.am      3 UNK        -0.5000 
     60 C           5.1715  -12.4032  -44.9316 C.2       2 UNK         0.5000 
     61 O           4.7747  -11.6221  -44.0662 O.2       2 UNK        -0.5000 
     62 CA          5.4589  -11.8616  -46.3482 C.3       2 UNK         0.1400 
     63 CB          6.8306  -11.1705  -46.3877 C.3       2 UNK        -0.1800 
     64 N           5.4057  -12.8614  -47.4191 N.am      2 UNK        -0.5000 
     65 C           4.3450  -13.6237  -47.7226 C.2       1 UNK         0.5000 
     66 O           3.2967  -13.6230  -47.0776 O.2       1 UNK        -0.5000 
     67 C          -1.3428  -21.4994  -47.9277 C.2       11 UNK         0.5000 
     68 O          -1.2815  -22.2099  -48.9301 O.2       11 UNK        -0.5000 
     69 N          -2.3970  -21.4810  -47.0962 N.am      12 UNK        -0.5000 
     70 CA         -3.6015  -22.2847  -47.3047 C.3       12 UNK         0.1400 
     71 CB         -4.6989  -21.9083  -46.3007 C.3       12 UNK        -0.1800 
     72 C          -3.3193  -23.7930  -47.2599 C.2       12 UNK         0.5000 
     73 O          -3.8308  -24.5232  -48.1082 O.2       12 UNK        -0.5000 
     74 N          -2.4836  -24.2228  -46.3054 N.am      13 UNK        -0.5000 
     75 CA         -1.9938  -25.5942  -46.1913 C.3       13 UNK         0.1400 
     76 CB         -1.2273  -25.7594  -44.8704 C.3       13 UNK        -0.1800 
     77 C          -1.1212  -26.0029  -47.3914 C.2       13 UNK         0.5000 
     78 O          -1.3417  -27.0723  -47.9608 O.2       13 UNK        -0.5000 
     79 N          -0.1775  -25.1312  -47.7777 N.am      14 UNK        -0.5000 
     80 CA          0.7316  -25.3351  -48.9094 C.3       14 UNK         0.1400 
     81 CB          1.7843  -24.2165  -48.9273 C.3       14 UNK        -0.1800 
     82 C           0.0094  -25.4237  -50.2682 C.2       14 UNK         0.5000 
     83 O           0.3778  -26.2529  -51.1006 O.2       14 UNK        -0.5000 
     84 N          -1.0206  -24.5893  -50.4552 N.am      15 UNK        -0.5000 
     85 CA         -1.8618  -24.5369  -51.6520 C.3       15 UNK         0.1400 
     86 CB         -2.4235  -23.1144  -51.7929 C.3       15 UNK        -0.1800 
     87 C          -2.9924  -25.5889  -51.6677 C.2       15 UNK         0.5000 
     88 O          -3.7615  -25.6126  -52.6285 O.2       15 UNK        -0.5000 
     89 N          -3.0681  -26.4378  -50.6302 N.am      16 UNK        -0.5000 
     90 CA         -4.0276  -27.5284  -50.4321 C.3       16 UNK         0.1400 
     91 CB         -3.8731  -28.6108  -51.5214 C.3       16 UNK        -0.1800 
     92 C          -5.4725  -27.0109  -50.2893 C.2       16 UNK         0.5000 
     93 O          -6.3034  -27.2130  -51.1765 O.2       16 UNK        -0.5000 
     94 N          -5.7211  -26.3422  -49.1558 N.am      17 UNK        -0.5000 
     95 CA         -6.9603  -25.6705  -48.7530 C.3       17 UNK         0.1400 
     96 CB         -8.1645  -26.6362  -48.7266 C.3       17 UNK        -0.1800 
     97 C          -7.2062  -24.3895  -49.5717 C.2       17 UNK         0.5000 
     98 O          -8.3237  -24.1472  -50.0318 O.2       17 UNK        -0.5000 
     99 N          -6.1372  -23.5952  -49.7319 N.am      18 UNK        -0.5000 
    100 CA        -6.0380  -22.2981  -50.4163 C.3       18 UNK         0.1400 
    101 CB        -6.9576  -21.2428  -49.7745 C.3       18 UNK        -0.1800 
    102 C         -6.2278  -22.3522  -51.9420 C.2       18 UNK         0.5000 
    103 O         -5.4272  -21.7558  -52.6610 O.2       18 UNK        -0.5000 
    104 N         -7.2650  -23.0556  -52.4121 N.am      19 UNK        -0.5000 
    105 CA        -7.6566  -23.2218  -53.8128 C.3       19 UNK         0.1400 
    106 CB        -6.6569  -24.1542  -54.5344 C.3       19 UNK        -0.1800 
    107 C         -7.8672  -21.8554  -54.5028 C.2       19 UNK         0.5000 
    108 O         -8.7760  -21.1202  -54.1130 O.2       19 UNK        -0.5000 
    109 N         -7.0237  -21.5317  -55.4902 N.am      20 UNK        -0.5000 
    110 CA        -7.0239  -20.2584  -56.2114 C.3       20 UNK         0.1400 
    111 CB        -6.4804  -20.5065  -57.6283 C.3       20 UNK        -0.1800 
    112 C         -6.2100  -19.1506  -55.5080 C.2       20 UNK         0.5000 
    113 O         -6.2817  -17.9995  -55.9421 O.2       20 UNK        -0.5000 
    114 N         -5.4358  -19.5012  -54.4712 N.am      21 UNK        -0.5000 
    115 CA        -4.5865  -18.5899  -53.7071 C.3       21 UNK         0.1400 
    116 CB        -3.2252  -19.2713  -53.4457 C.3       21 UNK        -0.1800 
    117 C         -5.3144  -18.1210  -52.4294 C.2       21 UNK         0.5000 
    118 O         -6.4594  -17.6716  -52.5063 O.2       21 UNK        -0.5000 
    119 N         -4.6343  -18.1963  -51.2832 N.am      22 UNK        -0.5000 
    120 CA        -5.0825  -17.7376  -49.9651 C.3       22 UNK         0.1400 
    121 C         -4.3601  -18.5397  -48.8466 C.2       22 UNK         0.5000 
    122 N         -4.6883  -18.3136  -47.5821 N.am      22 UNK        -0.7600 
    123 O         -3.4923  -19.3639  -49.1191 O.2       22 UNK        -0.5000 
    124 C124       -4.9775  -16.1890  -49.8168 C.3       23 UNK        -0.0398 
    125 S125       -3.2908  -15.5351  -49.5393 S.3       23 UNK        -0.2404 
    126 C126       -2.6501  -15.3790  -51.2369 C.3       23 UNK        -0.0205 
    127 H127        8.4587  -16.2851  -47.4584 H         1 UNK         0.0600 
    128 H128        7.9751  -16.6255  -49.1229 H         1 UNK         0.0600 
    129 H129        7.5559  -17.7566  -47.8328 H         1 UNK         0.0600 
    130 H130        6.2666  -15.4066  -49.7544 H         1 UNK         0.3000 
    131 H131        3.7224  -15.3529  -48.8124 H         1 UNK         0.0600 
    132 H132        5.1772  -13.1997  -50.4295 H         1 UNK         0.0800 
    133 H133        4.4571  -14.6418  -51.0697 H         1 UNK         0.0800 
    134 H134        1.5675  -13.0018  -52.5845 H         1 UNK         0.0800 
    135 H135        2.8740  -14.1466  -52.6573 H         1 UNK         0.0800 
    136 H136       -0.6276  -13.6467  -51.8643 H         1 UNK         0.1150 
    137 H137       -1.3592  -17.6956  -50.6774 H         1 UNK         0.1150 
    138 H138        2.6618  -16.3346  -51.2835 H         1 UNK         0.1150 
    139 H139        0.5972  -19.3228  -50.8571 H         1 UNK         0.0800 
    140 H140        2.2210  -18.6946  -50.9428 H         1 UNK         0.0800 
    141 H141       -0.8873  -19.1943  -49.0392 H         1 UNK         0.0800 
    142 H142       -0.6777  -18.5105  -47.4577 H         1 UNK         0.0800 
    143 H143        0.7282  -21.1293  -48.0388 H         1 UNK         0.0600 
    144 H144       -0.0450  -19.7645  -45.6316 H         1 UNK         0.3000 
    145 H145        0.6500  -22.5856  -43.4911 H         1 UNK         0.0600 
    146 H146        1.9124  -20.7986  -42.3815 H         1 UNK         0.0600 
    147 H147        2.7149  -21.1874  -43.8970 H         1 UNK         0.0600 
    148 H148        1.7232  -19.7385  -43.7737 H         1 UNK         0.0600 
    149 H149       -0.5457  -20.0300  -42.9842 H         1 UNK         0.3000 
    150 H150       -3.9381  -21.0125  -43.3094 H         1 UNK         0.0600 
    151 H151       -4.0217  -20.3922  -40.9168 H         1 UNK         0.0600 
    152 H152       -3.2799  -21.9745  -41.0967 H         1 UNK         0.0600 
    153 H153       -2.2729  -20.5665  -40.7761 H         1 UNK         0.0600 
    154 H154       -2.8084  -18.6383  -42.2705 H         1 UNK         0.3000 
    155 H155       -2.3414  -16.8846  -45.3143 H         1 UNK         0.0600 
    156 H156       -4.5058  -16.6269  -43.1646 H         1 UNK         0.0600 
    157 H157       -4.7695  -16.7371  -44.8981 H         1 UNK         0.0600 
    158 H158       -3.9448  -15.3376  -44.2294 H         1 UNK         0.0600 
    159 H159       -0.8480  -16.3001  -43.8504 H         1 UNK         0.3000 
    160 H160       -0.7663  -15.4461  -40.4610 H         1 UNK         0.0600 
    161 H161        0.9798  -17.4266  -42.0302 H         1 UNK         0.0600 
    162 H162        0.2337  -17.7394  -40.4665 H         1 UNK         0.0600 
    163 H163        1.4823  -16.5112  -40.6109 H         1 UNK         0.0600 
    164 H164        1.0193  -15.0554  -42.6828 H         1 UNK         0.3000 
    165 H165       -0.5725  -12.0889  -43.9612 H         1 UNK         0.0600 
    166 H166        1.8230  -11.4287  -43.9148 H         1 UNK         0.0600 
    167 H167        1.1385  -11.4042  -42.2971 H         1 UNK         0.0600 
    168 H168        2.1863  -12.7281  -42.7834 H         1 UNK         0.0600 
    169 H169        1.5122  -13.8639  -44.9044 H         1 UNK         0.3000 
    170 H170       -0.5233  -16.0152  -46.7827 H         1 UNK         0.0600 
    171 H171       -0.5956  -14.3183  -48.4679 H         1 UNK         0.0600 
    172 H172        0.9136  -13.5909  -47.9538 H         1 UNK         0.0600 
    173 H173        0.9137  -15.1809  -48.7149 H         1 UNK         0.0600 
    174 H174        2.3171  -15.2706  -46.4706 H         1 UNK         0.3000 
    175 H175        2.8509  -17.8041  -44.0107 H         1 UNK         0.0600 
    176 H176        3.7835  -17.8510  -46.9221 H         1 UNK         0.0600 
    177 H177        4.5542  -18.6762  -45.5692 H         1 UNK         0.0600 
    178 H178        2.9512  -19.1650  -46.0953 H         1 UNK         0.0600 
    179 H179        4.6991  -16.1449  -45.3811 H         1 UNK         0.3000 
    180 H180        4.7467  -13.7095  -42.7024 H         1 UNK         0.0600 
    181 H181        6.5952  -15.9193  -43.7509 H         1 UNK         0.0600 
    182 H182        6.0184  -15.7628  -42.0947 H         1 UNK         0.0600 
    183 H183        7.0788  -14.5365  -42.7723 H         1 UNK         0.0600 
    184 H184        5.6574  -14.2886  -45.5030 H         1 UNK         0.3000 
    185 H185        4.6929  -11.1145  -46.5650 H         1 UNK         0.0600 
    186 H186        6.9006  -10.3943  -45.6243 H         1 UNK         0.0600 
    187 H187        7.6414  -11.8784  -46.2112 H         1 UNK         0.0600 
    188 H188        7.0048  -10.6914  -47.3513 H         1 UNK         0.0600 
    189 H189        6.2423  -12.9665  -47.9740 H         1 UNK         0.3000 
    190 H190       -2.4125  -20.8211  -46.3250 H         1 UNK         0.3000 
    191 H191       -3.9686  -22.0461  -48.3014 H         1 UNK         0.0600 
    192 H192       -4.9478  -20.8499  -46.3593 H         1 UNK         0.0600 
    193 H193       -5.6149  -22.4648  -46.5032 H         1 UNK         0.0600 
    194 H194       -4.4018  -22.1321  -45.2777 H         1 UNK         0.0600 
    195 H195       -2.1507  -23.5598  -45.6114 H         1 UNK         0.3000 
    196 H196       -2.8599  -26.2588  -46.1664 H         1 UNK         0.0600 
    197 H197       -0.8552  -26.7785  -44.7583 H         1 UNK         0.0600 
    198 H198       -1.8703  -25.5512  -44.0151 H         1 UNK         0.0600 
    199 H199       -0.3707  -25.0869  -44.8132 H         1 UNK         0.0600 
    200 H200       -0.0546  -24.2766  -47.2450 H         1 UNK         0.3000 
    201 H201        1.2487  -26.2833  -48.7487 H         1 UNK         0.0600 
    202 H202        2.3416  -24.1831  -47.9909 H         1 UNK         0.0600 
    203 H203        1.3286  -23.2384  -49.0806 H         1 UNK         0.0600 
    204 H204        2.5054  -24.3718  -49.7306 H         1 UNK         0.0600 
    205 H205       -1.2152  -23.8886  -49.7426 H         1 UNK         0.3000 
    206 H206       -1.2378  -24.7330  -52.5261 H         1 UNK         0.0600 
    207 H207       -1.6229  -22.3769  -51.8521 H         1 UNK         0.0600 
    208 H208       -3.0240  -23.0124  -52.6974 H         1 UNK         0.0600 
    209 H209       -3.0520  -22.8534  -50.9432 H         1 UNK         0.0600 
    210 H210       -2.3979  -26.3149  -49.8820 H         1 UNK         0.3000 
    211 H211       -3.7650  -27.9940  -49.4807 H         1 UNK         0.0600 
    212 H212       -4.1328  -28.2388  -52.5127 H         1 UNK         0.0600 
    213 H213       -4.5225  -29.4622  -51.3148 H         1 UNK         0.0600 
    214 H214       -2.8499  -28.9844  -51.5616 H         1 UNK         0.0600 
    215 H215       -4.9257  -26.1351  -48.5601 H         1 UNK         0.3000 
    216 H216       -6.7961  -25.3387  -47.7267 H         1 UNK         0.0600 
    217 H217       -9.0319  -26.1592  -48.2690 H         1 UNK         0.0600 
    218 H218       -7.9413  -27.5301  -48.1443 H         1 UNK         0.0600 
    219 H219       -8.4612  -26.9510  -49.7271 H         1 UNK         0.0600 
    220 H220       -5.2674  -23.9363  -49.3342 H         1 UNK         0.3000 
    221 H221       -5.0174  -21.9521  -50.2614 H         1 UNK         0.0600 
    222 H222       -8.0103  -21.5170  -49.8416 H         1 UNK         0.0600 
    223 H223       -6.7128  -21.0952  -48.7225 H         1 UNK         0.0600 
    224 H224       -6.8451  -20.2802  -50.2733 H         1 UNK         0.0600 
    225 H225       -7.8698  -23.4921  -51.7207 H         1 UNK         0.3000 
    226 H226       -8.6282  -23.7175  -53.8082 H         1 UNK         0.0600 
    227 H227       -6.6072  -25.1237  -54.0376 H         1 UNK         0.0600 
    228 H228       -6.9609  -24.3385  -55.5655 H         1 UNK         0.0600 
    229 H229       -5.6448  -23.7480  -54.5484 H         1 UNK         0.0600 
    230 H230       -6.2901  -22.1838  -55.7272 H         1 UNK         0.3000 
    231 H231       -8.0507  -19.8980  -56.3031 H         1 UNK         0.0600 
    232 H232       -5.4490  -20.8608  -57.6072 H         1 UNK         0.0600 
    233 H233       -6.5011  -19.5921  -58.2227 H         1 UNK         0.0600 
    234 H234       -7.0801  -21.2479  -58.1568 H         1 UNK         0.0600 
    235 H235       -5.4899  -20.4489  -54.1089 H         1 UNK         0.3000 
    236 H236       -4.3859  -17.6919  -54.2946 H         1 UNK         0.0600 
    237 H237       -2.7701  -19.6001  -54.3800 H         1 UNK         0.0600 
    238 H238       -2.5200  -18.5837  -52.9771 H         1 UNK         0.0600 
    239 H239       -3.3191  -20.1464  -52.8018 H         1 UNK         0.0600 
    240 H240       -3.7328  -18.6542  -51.2654 H         1 UNK         0.3000 
    241 H241       -6.1356  -18.0092  -49.8780 H         1 UNK         0.0600 
    242 H242       -4.1742  -18.8055  -46.8606 H         1 UNK         0.3800 
    243 H243       -5.3982  -17.6476  -47.3260 H         1 UNK         0.3800 
    244 H244       -5.4167  -15.6905  -50.6818 H         1 UNK         0.0800 
    245 H245       -5.5845  -15.8705  -48.9687 H         1 UNK         0.0800 
    246 H246       -3.1449  -16.0796  -51.9068 H         1 UNK         0.0800 
    247 H247       -2.8819  -14.3811  -51.6120 H         1 UNK         0.0800 
@<TRIPOS>BOND
     1    1    2 1    
     2    1  127 1    
     3    1  128 1    
     4    1  129 1    
     5    2    3 2    
     6    2    4 am   BACKBONE|DICT|INTERRES
     7    4    5 1    
     8    4  130 1    
     9    5    6 1    
    10    5   65 1    
    11    5  131 1    
    12    6    7 1    
    13    6  132 1    
    14    6  133 1    
    15    7    8 1    
    16    8    9 1    
    17    8  134 1    
    18    8  135 1    
    19    9   10 ar   
    20    9   14 ar   
    21   10   11 ar   
    22   10  136 1    
    23   11   12 ar   
    24   11  126 1    
    25   12   13 ar   
    26   12  137 1    
    27   13   14 ar   
    28   13   15 1    
    29   14  138 1    
    30   15   16 1    
    31   15  139 1    
    32   15  140 1    
    33   16   17 1    
    34   17   18 1    
    35   17  141 1    
    36   17  142 1    
    37   18   19 1    
    38   18   67 1    
    39   18  143 1    
    40   19   20 am   BACKBONE|DICT|INTERRES
    41   19  144 1    
    42   20   21 2    
    43   20   22 1    
    44   22   23 1    
    45   22   24 1    
    46   22  145 1    
    47   23  146 1    
    48   23  147 1    
    49   23  148 1    
    50   24   25 am   BACKBONE|DICT|INTERRES
    51   24  149 1    
    52   25   26 2    
    53   25   27 1    
    54   27   28 1    
    55   27   29 1    
    56   27  150 1    
    57   28  151 1    
    58   28  152 1    
    59   28  153 1    
    60   29   30 am   BACKBONE|DICT|INTERRES
    61   29  154 1    
    62   30   31 2    
    63   30   32 1    
    64   32   33 1    
    65   32   34 1    
    66   32  155 1    
    67   33  156 1    
    68   33  157 1    
    69   33  158 1    
    70   34   35 am   BACKBONE|DICT|INTERRES
    71   34  159 1    
    72   35   36 2    
    73   35   37 1    
    74   37   38 1    
    75   37   39 1    
    76   37  160 1    
    77   38  161 1    
    78   38  162 1    
    79   38  163 1    
    80   39   40 am   BACKBONE|DICT|INTERRES
    81   39  164 1    
    82   40   41 2    
    83   40   42 1    
    84   42   43 1    
    85   42   44 1    
    86   42  165 1    
    87   43  166 1    
    88   43  167 1    
    89   43  168 1    
    90   44   45 am   BACKBONE|DICT|INTERRES
    91   44  169 1    
    92   45   46 2    
    93   45   47 1    
    94   47   48 1    
    95   47   49 1    
    96   47  170 1    
    97   48  171 1    
    98   48  172 1    
    99   48  173 1    
   100   49   50 am   BACKBONE|DICT|INTERRES
   101   49  174 1    
   102   50   51 2    
   103   50   52 1    
   104   52   53 1    
   105   52   54 1    
   106   52  175 1    
   107   53  176 1    
   108   53  177 1    
   109   53  178 1    
   110   54   55 am   BACKBONE|DICT|INTERRES
   111   54  179 1    
   112   55   56 2    
   113   55   57 1    
   114   57   58 1    
   115   57   59 1    
   116   57  180 1    
   117   58  181 1    
   118   58  182 1    
   119   58  183 1    
   120   59   60 am   BACKBONE|DICT|INTERRES
   121   59  184 1    
   122   60   61 2    
   123   60   62 1    
   124   62   63 1    
   125   62   64 1    
   126   62  185 1    
   127   63  186 1    
   128   63  187 1    
   129   63  188 1    
   130   64   65 am   BACKBONE|DICT|INTERRES
   131   64  189 1    
   132   65   66 2    
   133   67   68 2    
   134   67   69 am   BACKBONE|DICT|INTERRES
   135   69   70 1    
   136   69  190 1    
   137   70   71 1    
   138   70   72 1    
   139   70  191 1    
   140   71  192 1    
   141   71  193 1    
   142   71  194 1    
   143   72   73 2    
   144   72   74 am   BACKBONE|DICT|INTERRES
   145   74   75 1    
   146   74  195 1    
   147   75   76 1    
   148   75   77 1    
   149   75  196 1    
   150   76  197 1    
   151   76  198 1    
   152   76  199 1    
   153   77   78 2    
   154   77   79 am   BACKBONE|DICT|INTERRES
   155   79   80 1    
   156   79  200 1    
   157   80   81 1    
   158   80   82 1    
   159   80  201 1    
   160   81  202 1    
   161   81  203 1    
   162   81  204 1    
   163   82   83 2    
   164   82   84 am   BACKBONE|DICT|INTERRES
   165   84   85 1    
   166   84  205 1    
   167   85   86 1    
   168   85   87 1    
   169   85  206 1    
   170   86  207 1    
   171   86  208 1    
   172   86  209 1    
   173   87   88 2    
   174   87   89 am   BACKBONE|DICT|INTERRES
   175   89   90 1    
   176   89  210 1    
   177   90   91 1    
   178   90   92 1    
   179   90  211 1    
   180   91  212 1    
   181   91  213 1    
   182   91  214 1    
   183   92   93 2    
   184   92   94 am   BACKBONE|DICT|INTERRES
   185   94   95 1    
   186   94  215 1    
   187   95   96 1    
   188   95   97 1    
   189   95  216 1    
   190   96  217 1    
   191   96  218 1    
   192   96  219 1    
   193   97   98 2    
   194   97   99 am   BACKBONE|DICT|INTERRES
   195   99  100 1    
   196   99  220 1    
   197  100  101 1    
   198  100  102 1    
   199  100  221 1    
   200  101  222 1    
   201  101  223 1    
   202  101  224 1    
   203  102  103 2    
   204  102  104 am   BACKBONE|DICT|INTERRES
   205  104  105 1    
   206  104  225 1    
   207  105  106 1    
   208  105  107 1    
   209  105  226 1    
   210  106  227 1    
   211  106  228 1    
   212  106  229 1    
   213  107  108 2    
   214  107  109 am   BACKBONE|DICT|INTERRES
   215  109  110 1    
   216  109  230 1    
   217  110  111 1    
   218  110  112 1    
   219  110  231 1    
   220  111  232 1    
   221  111  233 1    
   222  111  234 1    
   223  112  113 2    
   224  112  114 am   BACKBONE|DICT|INTERRES
   225  114  115 1    
   226  114  235 1    
   227  115  116 1    
   228  115  117 1    
   229  115  236 1    
   230  116  237 1    
   231  116  238 1    
   232  116  239 1    
   233  117  118 2    
   234  117  119 am   BACKBONE|DICT|INTERRES
   235  119  120 1    
   236  119  240 1    
   237  120  121 1    
   238  120  124 1    
   239  120  241 1    
   240  121  122 am   BACKBONE|DICT|INTERRES
   241  121  123 2    
   242  122  242 1    
   243  122  243 1    
   244  124  125 1    
   245  124  244 1    
   246  124  245 1    
   247  125  126 1    
   248  126  246 1    
   249  126  247 1    
@<TRIPOS>SUBSTRUCTURE
     1 UNK         1 GROUP             0       ****    0 ROOT    
