@<TRIPOS>MOLECULE
3R540
247   249    1
SMALL
USER_CHARGES


@<TRIPOS>ATOM
      1 CA          7.9887  -10.7541  -48.0997 C.3       0 UNK        -0.1800 
      2 C           6.7794  -11.6529  -47.8820 C.2       0 UNK         0.5000 
      3 O           5.8394  -11.2579  -47.1917 O.2       0 UNK        -0.5000 
      4 N           6.8040  -12.8606  -48.4593 N.am      1 UNK        -0.5000 
      5 CA          5.7046  -13.8282  -48.4192 C.3       1 UNK         0.1400 
      6 C6          6.2003  -15.2459  -48.7963 C.3       23 UNK        -0.0398 
      7 S7          4.9881  -16.5628  -48.4243 S.3       23 UNK        -0.2404 
      8 C8          4.6384  -17.1495  -50.1094 C.3       23 UNK        -0.0205 
      9 C9          3.4486  -18.0937  -50.1487 C.ar      23 UNK        -0.0193 
     10 C10         2.2070  -17.6338  -50.5958 C.ar      23 UNK        -0.1150 
     11 C11         1.1186  -18.5049  -50.6855 C.ar      23 UNK        -0.0193 
     12 C12         1.2756  -19.8407  -50.3017 C.ar      23 UNK        -0.1150 
     13 C13         2.5141  -20.3184  -49.8566 C.ar      23 UNK        -0.0193 
     14 C14         3.5978  -19.4359  -49.7853 C.ar      23 UNK        -0.1150 
     15 C15         2.6834  -21.8039  -49.5436 C.3       23 UNK        -0.0205 
     16 S16         3.6160  -22.1774  -48.0179 S.3       23 UNK        -0.2404 
     17 C17         2.5299  -21.5259  -46.7083 C.3       23 UNK        -0.0398 
     18 CA          1.5671  -22.5853  -46.1072 C.3       11 UNK         0.1400 
     19 N           1.3178  -22.3355  -44.6836 N.am      11 UNK        -0.5000 
     20 C           0.6886  -23.1644  -43.8386 C.2       10 UNK         0.5000 
     21 O           0.3429  -24.3058  -44.1453 O.2       10 UNK        -0.5000 
     22 CA          0.3167  -22.5899  -42.4534 C.3       10 UNK         0.1400 
     23 CB          0.3461  -23.6514  -41.3347 C.3       10 UNK        -0.1800 
     24 N           1.0837  -21.3903  -42.0925 N.am      10 UNK        -0.5000 
     25 C           2.3905  -21.3062  -41.8024 C.2       9 UNK         0.5000 
     26 O           3.1406  -22.2790  -41.7213 O.2       9 UNK        -0.5000 
     27 CA          2.9779  -19.8931  -41.6137 C.3       9 UNK         0.1400 
     28 CB          3.8775  -19.5342  -42.8079 C.3       9 UNK        -0.1800 
     29 N           1.9676  -18.8429  -41.4626 N.am      9 UNK        -0.5000 
     30 C           1.2573  -18.6070  -40.3518 C.2       8 UNK         0.5000 
     31 O           1.3629  -19.2684  -39.3186 O.2       8 UNK        -0.5000 
     32 CA          0.2491  -17.4439  -40.4143 C.3       8 UNK         0.1400 
     33 CB          0.9517  -16.0957  -40.1913 C.3       8 UNK        -0.1800 
     34 N          -0.4834  -17.4048  -41.6809 N.am      8 UNK        -0.5000 
     35 C          -1.4423  -18.2743  -42.0277 C.2       7 UNK         0.5000 
     36 O          -1.8258  -19.1947  -41.3057 O.2       7 UNK        -0.5000 
     37 CA         -2.0542  -18.1082  -43.4308 C.3       7 UNK         0.1400 
     38 CB         -3.1501  -17.0325  -43.4309 C.3       7 UNK        -0.1800 
     39 N          -1.0517  -17.7836  -44.4442 N.am      7 UNK        -0.5000 
     40 C          -0.0749  -18.6131  -44.8327 C.2       6 UNK         0.5000 
     41 O           0.0357  -19.7739  -44.4395 O.2       6 UNK        -0.5000 
     42 CA          0.9667  -18.0567  -45.8138 C.3       6 UNK         0.1400 
     43 CB          0.4720  -18.2185  -47.2548 C.3       6 UNK        -0.1800 
     44 N           1.2976  -16.6551  -45.5710 N.am      6 UNK        -0.5000 
     45 C           1.8318  -16.1679  -44.4433 C.2       5 UNK         0.5000 
     46 O           2.1280  -16.8596  -43.4713 O.2       5 UNK        -0.5000 
     47 CA          2.0101  -14.6435  -44.3720 C.3       5 UNK         0.1400 
     48 CB          3.3028  -14.2119  -45.0807 C.3       5 UNK        -0.1800 
     49 N           0.8629  -13.9475  -44.9560 N.am      5 UNK        -0.5000 
     50 C          -0.3479  -13.8844  -44.3836 C.2       4 UNK         0.5000 
     51 O          -0.6040  -14.3563  -43.2752 O.2       4 UNK        -0.5000 
     52 CA         -1.4654  -13.2106  -45.2030 C.3       4 UNK         0.1400 
     53 CB         -1.4222  -11.6855  -45.0258 C.3       4 UNK        -0.1800 
     54 N          -1.3951  -13.5347  -46.6300 N.am      4 UNK        -0.5000 
     55 C          -1.6426  -14.7491  -47.1415 C.2       3 UNK         0.5000 
     56 O          -1.9935  -15.7135  -46.4618 O.2       3 UNK        -0.5000 
     57 CA         -1.4135  -14.9286  -48.6582 C.3       3 UNK         0.1400 
     58 CB         -2.6883  -14.5881  -49.4421 C.3       3 UNK        -0.1800 
     59 N          -0.2911  -14.1489  -49.1966 N.am      3 UNK        -0.5000 
     60 C           0.9741  -14.2420  -48.7677 C.2       2 UNK         0.5000 
     61 O           1.3199  -14.9807  -47.8419 O.2       2 UNK        -0.5000 
     62 CA          2.0197  -13.3424  -49.4466 C.3       2 UNK         0.1400 
     63 CB          1.6950  -11.8497  -49.2425 C.3       2 UNK        -0.1800 
     64 N           3.3083  -13.6580  -48.8449 N.am      2 UNK        -0.5000 
     65 C           4.5248  -13.3557  -49.3010 C.2       1 UNK         0.5000 
     66 O           4.7365  -12.7535  -50.3568 O.2       1 UNK        -0.5000 
     67 C           0.2369  -22.6372  -46.8896 C.2       11 UNK         0.5000 
     68 O           0.1007  -23.4191  -47.8305 O.2       11 UNK        -0.5000 
     69 N          -0.7455  -21.8394  -46.4440 N.am      12 UNK        -0.5000 
     70 CA         -2.0899  -21.7426  -47.0115 C.3       12 UNK         0.1400 
     71 CB         -2.8597  -20.6348  -46.2761 C.3       12 UNK        -0.1800 
     72 C          -2.8972  -23.0560  -46.9909 C.2       12 UNK         0.5000 
     73 O          -3.8118  -23.2061  -47.7993 O.2       12 UNK        -0.5000 
     74 N          -2.5473  -23.9758  -46.0806 N.am      13 UNK        -0.5000 
     75 CA         -3.1368  -25.3110  -45.9892 C.3       13 UNK         0.1400 
     76 CB         -2.9203  -25.8549  -44.5686 C.3       13 UNK        -0.1800 
     77 C          -2.5619  -26.2872  -47.0346 C.2       13 UNK         0.5000 
     78 O          -3.2522  -27.2344  -47.4131 O.2       13 UNK        -0.5000 
     79 N          -1.3159  -26.0549  -47.4722 N.am      14 UNK        -0.5000 
     80 CA         -0.6455  -26.8371  -48.5117 C.3       14 UNK         0.1400 
     81 CB          0.8728  -26.8057  -48.2730 C.3       14 UNK        -0.1800 
     82 C          -0.9893  -26.3091  -49.9149 C.2       14 UNK         0.5000 
     83 O          -1.1791  -27.1029  -50.8378 O.2       14 UNK        -0.5000 
     84 N          -1.0680  -24.9789  -50.0433 N.am      15 UNK        -0.5000 
     85 CA         -1.4911  -24.2660  -51.2465 C.3       15 UNK         0.1400 
     86 CB         -0.9995  -22.8143  -51.1326 C.3       15 UNK        -0.1800 
     87 C          -3.0179  -24.3261  -51.4639 C.2       15 UNK         0.5000 
     88 O          -3.7533  -24.8742  -50.6403 O.2       15 UNK        -0.5000 
     89 N          -3.4787  -23.7248  -52.5685 N.am      16 UNK        -0.5000 
     90 CA         -4.8991  -23.5841  -52.9039 C.3       16 UNK         0.1400 
     91 CB         -5.0432  -23.4036  -54.4236 C.3       16 UNK        -0.1800 
     92 C          -5.5879  -22.4290  -52.1481 C.2       16 UNK         0.5000 
     93 O          -6.8006  -22.2676  -52.2829 O.2       16 UNK        -0.5000 
     94 N          -4.8196  -21.6562  -51.3653 N.am      17 UNK        -0.5000 
     95 CA         -5.2095  -20.4598  -50.6077 C.3       17 UNK         0.1400 
     96 CB         -3.9790  -19.9553  -49.8403 C.3       17 UNK        -0.1800 
     97 C          -6.3899  -20.6393  -49.6270 C.2       17 UNK         0.5000 
     98 O          -6.9620  -19.6463  -49.1781 O.2       17 UNK        -0.5000 
     99 N          -6.7360  -21.8917  -49.3045 N.am      18 UNK        -0.5000 
    100 CA        -7.9297  -22.2649  -48.5484 C.3       18 UNK         0.1400 
    101 CB        -7.8131  -23.7443  -48.1507 C.3       18 UNK        -0.1800 
    102 C         -9.2482  -22.0102  -49.3139 C.2       18 UNK         0.5000 
    103 O        -10.2917  -21.8851  -48.6711 O.2       18 UNK        -0.5000 
    104 N         -9.1883  -21.9440  -50.6522 N.am      19 UNK        -0.5000 
    105 CA       -10.3306  -21.6975  -51.5351 C.3       19 UNK         0.1400 
    106 CB       -10.7018  -23.0019  -52.2592 C.3       19 UNK        -0.1800 
    107 C        -10.0421  -20.5753  -52.5474 C.2       19 UNK         0.5000 
    108 O        -10.9092  -19.7308  -52.7777 O.2       19 UNK        -0.5000 
    109 N         -8.8387  -20.5798  -53.1332 N.am      20 UNK        -0.5000 
    110 CA        -8.3366  -19.5557  -54.0486 C.3       20 UNK         0.1400 
    111 CB        -7.3162  -20.2178  -54.9937 C.3       20 UNK        -0.1800 
    112 C         -7.6894  -18.3914  -53.2732 C.2       20 UNK         0.5000 
    113 O         -7.6342  -18.4168  -52.0430 O.2       20 UNK        -0.5000 
    114 N         -7.1734  -17.3952  -54.0059 N.am      21 UNK        -0.5000 
    115 CA        -6.3676  -16.3052  -53.4434 C.3       21 UNK         0.1400 
    116 CB        -6.2143  -15.1928  -54.4918 C.3       21 UNK        -0.1800 
    117 C         -4.9845  -16.7861  -52.9569 C.2       21 UNK         0.5000 
    118 O         -4.4786  -16.2791  -51.9567 O.2       21 UNK        -0.5000 
    119 N         -4.4187  -17.7705  -53.6644 N.am      22 UNK        -0.5000 
    120 CA        -3.1678  -18.4678  -53.3454 C.3       22 UNK         0.1400 
    121 C         -3.0606  -19.7740  -54.1774 C.2       22 UNK         0.5000 
    122 N         -3.3745  -19.7511  -55.4683 N.am      22 UNK        -0.7600 
    123 O         -2.7326  -20.8276  -53.6412 O.2       22 UNK        -0.5000 
    124 C124       -1.9143  -17.5553  -53.4606 C.3       23 UNK        -0.0398 
    125 S125       -0.3370  -18.3611  -53.0094 S.3       23 UNK        -0.2404 
    126 C126       -0.2133  -18.0090  -51.2286 C.3       23 UNK        -0.0205 
    127 H127        7.6849   -9.8295  -48.5907 H         1 UNK         0.0600 
    128 H128        8.7458  -11.2352  -48.7195 H         1 UNK         0.0600 
    129 H129        8.4445  -10.4995  -47.1428 H         1 UNK         0.0600 
    130 H130        7.5910  -13.1121  -49.0401 H         1 UNK         0.3000 
    131 H131        5.3575  -13.8667  -47.3842 H         1 UNK         0.0600 
    132 H132        7.1002  -15.4799  -48.2257 H         1 UNK         0.0800 
    133 H133        6.4987  -15.2841  -49.8454 H         1 UNK         0.0800 
    134 H134        5.5206  -17.6540  -50.5064 H         1 UNK         0.0800 
    135 H135        4.4542  -16.2932  -50.7604 H         1 UNK         0.0800 
    136 H136        2.0921  -16.6014  -50.8942 H         1 UNK         0.1150 
    137 H137        0.4347  -20.5129  -50.3822 H         1 UNK         0.1150 
    138 H138        4.5645  -19.7960  -49.4624 H         1 UNK         0.1150 
    139 H139        1.7148  -22.2958  -49.4857 H         1 UNK         0.0800 
    140 H140        3.2039  -22.2670  -50.3826 H         1 UNK         0.0800 
    141 H141        2.0035  -20.6456  -47.0726 H         1 UNK         0.0800 
    142 H142        3.2013  -21.1561  -45.9319 H         1 UNK         0.0800 
    143 H143        2.0319  -23.5710  -46.1794 H         1 UNK         0.0600 
    144 H144        1.4632  -21.3882  -44.3606 H         1 UNK         0.3000 
    145 H145       -0.7163  -22.2518  -42.5477 H         1 UNK         0.0600 
    146 H146        0.0882  -23.2148  -40.3698 H         1 UNK         0.0600 
    147 H147       -0.3743  -24.4458  -41.5332 H         1 UNK         0.0600 
    148 H148        1.3258  -24.1203  -41.2419 H         1 UNK         0.0600 
    149 H149        0.5755  -20.5190  -42.1695 H         1 UNK         0.3000 
    150 H150        3.5954  -19.9128  -40.7133 H         1 UNK         0.0600 
    151 H151        4.6721  -20.2697  -42.9392 H         1 UNK         0.0600 
    152 H152        4.3546  -18.5645  -42.6640 H         1 UNK         0.0600 
    153 H153        3.3107  -19.4919  -43.7386 H         1 UNK         0.0600 
    154 H154        1.8683  -18.1991  -42.2453 H         1 UNK         0.3000 
    155 H155       -0.4721  -17.5844  -39.6062 H         1 UNK         0.0600 
    156 H156        1.4769  -16.0832  -39.2355 H         1 UNK         0.0600 
    157 H157        0.2341  -15.2751  -40.1796 H         1 UNK         0.0600 
    158 H158        1.6846  -15.8859  -40.9709 H         1 UNK         0.0600 
    159 H159       -0.2212  -16.6821  -42.3380 H         1 UNK         0.3000 
    160 H160       -2.5157  -19.0586  -43.7018 H         1 UNK         0.0600 
    161 H161       -2.7503  -16.0481  -43.1870 H         1 UNK         0.0600 
    162 H162       -3.9250  -17.2639  -42.6992 H         1 UNK         0.0600 
    163 H163       -3.6328  -16.9642  -44.4061 H         1 UNK         0.0600 
    164 H164       -1.1198  -16.8722  -44.8822 H         1 UNK         0.3000 
    165 H165        1.8839  -18.6352  -45.6929 H         1 UNK         0.0600 
    166 H166        1.2278  -17.8721  -47.9574 H         1 UNK         0.0600 
    167 H167        0.2484  -19.2582  -47.4917 H         1 UNK         0.0600 
    168 H168       -0.4388  -17.6510  -47.4333 H         1 UNK         0.0600 
    169 H169        1.1400  -16.0145  -46.3458 H         1 UNK         0.3000 
    170 H170        2.0876  -14.3597  -43.3201 H         1 UNK         0.0600 
    171 H171        4.1752  -14.6451  -44.5899 H         1 UNK         0.0600 
    172 H172        3.3216  -14.5393  -46.1189 H         1 UNK         0.0600 
    173 H173        3.4244  -13.1286  -45.0648 H         1 UNK         0.0600 
    174 H174        0.9749  -13.5934  -45.8942 H         1 UNK         0.3000 
    175 H175       -2.4218  -13.5714  -44.8181 H         1 UNK         0.0600 
    176 H176       -1.4896  -11.4135  -43.9716 H         1 UNK         0.0600 
    177 H177       -0.4975  -11.2589  -45.4166 H         1 UNK         0.0600 
    178 H178       -2.2564  -11.2056  -45.5379 H         1 UNK         0.0600 
    179 H179       -1.1146  -12.7951  -47.2566 H         1 UNK         0.3000 
    180 H180       -1.1883  -15.9817  -48.8321 H         1 UNK         0.0600 
    181 H181       -2.9592  -13.5370  -49.3364 H         1 UNK         0.0600 
    182 H182       -3.5333  -15.1832  -49.0925 H         1 UNK         0.0600 
    183 H183       -2.5657  -14.7991  -50.5047 H         1 UNK         0.0600 
    184 H184       -0.5080  -13.5140  -49.9513 H         1 UNK         0.3000 
    185 H185        2.0479  -13.5830  -50.5109 H         1 UNK         0.0600 
    186 H186        0.7401  -11.5835  -49.6964 H         1 UNK         0.0600 
    187 H187        1.6414  -11.5924  -48.1838 H         1 UNK         0.0600 
    188 H188        2.4520  -11.2127  -49.7000 H         1 UNK         0.0600 
    189 H189        3.2149  -14.2473  -48.0261 H         1 UNK         0.3000 
    190 H190       -0.5481  -21.2354  -45.6526 H         1 UNK         0.3000 
    191 H191       -1.9680  -21.4542  -48.0557 H         1 UNK         0.0600 
    192 H192       -2.8950  -20.8247  -45.2033 H         1 UNK         0.0600 
    193 H193       -3.8909  -20.5641  -46.6243 H         1 UNK         0.0600 
    194 H194       -2.3995  -19.6600  -46.4358 H         1 UNK         0.0600 
    195 H195       -1.7798  -23.7760  -45.4553 H         1 UNK         0.3000 
    196 H196       -4.2125  -25.2341  -46.1624 H         1 UNK         0.0600 
    197 H197       -3.3869  -26.8337  -44.4507 H         1 UNK         0.0600 
    198 H198       -3.3592  -25.1939  -43.8210 H         1 UNK         0.0600 
    199 H199       -1.8605  -25.9674  -44.3370 H         1 UNK         0.0600 
    200 H200       -0.8314  -25.2268  -47.1515 H         1 UNK         0.3000 
    201 H201       -0.9726  -27.8774  -48.4520 H         1 UNK         0.0600 
    202 H202        1.1251  -27.2058  -47.2909 H         1 UNK         0.0600 
    203 H203        1.2747  -25.7938  -48.3351 H         1 UNK         0.0600 
    204 H204        1.3950  -27.4108  -49.0150 H         1 UNK         0.0600 
    205 H205       -0.8606  -24.4080  -49.2308 H         1 UNK         0.3000 
    206 H206       -1.0127  -24.7280  -52.1125 H         1 UNK         0.0600 
    207 H207        0.0825  -22.7876  -51.0171 H         1 UNK         0.0600 
    208 H208       -1.2300  -22.2356  -52.0261 H         1 UNK         0.0600 
    209 H209       -1.4449  -22.3020  -50.2795 H         1 UNK         0.0600 
    210 H210       -2.8325  -23.2410  -53.1791 H         1 UNK         0.3000 
    211 H211       -5.4205  -24.5027  -52.6271 H         1 UNK         0.0600 
    212 H212       -6.0932  -23.3494  -54.7143 H         1 UNK         0.0600 
    213 H213       -4.6017  -24.2412  -54.9637 H         1 UNK         0.0600 
    214 H214       -4.5619  -22.4896  -54.7703 H         1 UNK         0.0600 
    215 H215       -3.8364  -21.8803  -51.3503 H         1 UNK         0.3000 
    216 H216       -5.4924  -19.7034  -51.3397 H         1 UNK         0.0600 
    217 H217       -4.1289  -18.9337  -49.4887 H         1 UNK         0.0600 
    218 H218       -3.0731  -19.9707  -50.4444 H         1 UNK         0.0600 
    219 H219       -3.7989  -20.5780  -48.9691 H         1 UNK         0.0600 
    220 H220       -6.1793  -22.6475  -49.6769 H         1 UNK         0.3000 
    221 H221       -7.9560  -21.6654  -47.6362 H         1 UNK         0.0600 
    222 H222       -7.7726  -24.3934  -49.0264 H         1 UNK         0.0600 
    223 H223       -6.9150  -23.9237  -47.5585 H         1 UNK         0.0600 
    224 H224       -8.6674  -24.0564  -47.5486 H         1 UNK         0.0600 
    225 H225       -8.2831  -22.0444  -51.1018 H         1 UNK         0.3000 
    226 H226      -11.1962  -21.3772  -50.9515 H         1 UNK         0.0600 
    227 H227      -10.9935  -23.7755  -51.5487 H         1 UNK         0.0600 
    228 H228      -11.5426  -22.8483  -52.9369 H         1 UNK         0.0600 
    229 H229       -9.8681  -23.3860  -52.8485 H         1 UNK         0.0600 
    230 H230       -8.1577  -21.2829  -52.8567 H         1 UNK         0.3000 
    231 H231       -9.1623  -19.1590  -54.6427 H         1 UNK         0.0600 
    232 H232       -7.7375  -21.1022  -55.4722 H         1 UNK         0.0600 
    233 H233       -6.4145  -20.5252  -54.4629 H         1 UNK         0.0600 
    234 H234       -7.0114  -19.5394  -55.7909 H         1 UNK         0.0600 
    235 H235       -7.2776  -17.4124  -55.0102 H         1 UNK         0.3000 
    236 H236       -6.8977  -15.8909  -52.5829 H         1 UNK         0.0600 
    237 H237       -5.6343  -14.3593  -54.0931 H         1 UNK         0.0600 
    238 H238       -5.7041  -15.5485  -55.3877 H         1 UNK         0.0600 
    239 H239       -7.1849  -14.7974  -54.7919 H         1 UNK         0.0600 
    240 H240       -4.9313  -18.1532  -54.4450 H         1 UNK         0.3000 
    241 H241       -3.2456  -18.7724  -52.3042 H         1 UNK         0.0600 
    242 H242       -3.3061  -20.6074  -55.9947 H         1 UNK         0.3800 
    243 H243       -3.5739  -18.8921  -55.9548 H         1 UNK         0.3800 
    244 H244       -1.8199  -17.1885  -54.4836 H         1 UNK         0.0800 
    245 H245       -2.0308  -16.6667  -52.8400 H         1 UNK         0.0800 
    246 H246       -0.3138  -16.9360  -51.0583 H         1 UNK         0.0800 
    247 H247       -1.0372  -18.4891  -50.6990 H         1 UNK         0.0800 
@<TRIPOS>BOND
     1    1    2 1    
     2    1  127 1    
     3    1  128 1    
     4    1  129 1    
     5    2    3 2    
     6    2    4 am   BACKBONE|DICT|INTERRES
     7    4    5 1    
     8    4  130 1    
     9    5    6 1    
    10    5   65 1    
    11    5  131 1    
    12    6    7 1    
    13    6  132 1    
    14    6  133 1    
    15    7    8 1    
    16    8    9 1    
    17    8  134 1    
    18    8  135 1    
    19    9   10 ar   
    20    9   14 ar   
    21   10   11 ar   
    22   10  136 1    
    23   11   12 ar   
    24   11  126 1    
    25   12   13 ar   
    26   12  137 1    
    27   13   14 ar   
    28   13   15 1    
    29   14  138 1    
    30   15   16 1    
    31   15  139 1    
    32   15  140 1    
    33   16   17 1    
    34   17   18 1    
    35   17  141 1    
    36   17  142 1    
    37   18   19 1    
    38   18   67 1    
    39   18  143 1    
    40   19   20 am   BACKBONE|DICT|INTERRES
    41   19  144 1    
    42   20   21 2    
    43   20   22 1    
    44   22   23 1    
    45   22   24 1    
    46   22  145 1    
    47   23  146 1    
    48   23  147 1    
    49   23  148 1    
    50   24   25 am   BACKBONE|DICT|INTERRES
    51   24  149 1    
    52   25   26 2    
    53   25   27 1    
    54   27   28 1    
    55   27   29 1    
    56   27  150 1    
    57   28  151 1    
    58   28  152 1    
    59   28  153 1    
    60   29   30 am   BACKBONE|DICT|INTERRES
    61   29  154 1    
    62   30   31 2    
    63   30   32 1    
    64   32   33 1    
    65   32   34 1    
    66   32  155 1    
    67   33  156 1    
    68   33  157 1    
    69   33  158 1    
    70   34   35 am   BACKBONE|DICT|INTERRES
    71   34  159 1    
    72   35   36 2    
    73   35   37 1    
    74   37   38 1    
    75   37   39 1    
    76   37  160 1    
    77   38  161 1    
    78   38  162 1    
    79   38  163 1    
    80   39   40 am   BACKBONE|DICT|INTERRES
    81   39  164 1    
    82   40   41 2    
    83   40   42 1    
    84   42   43 1    
    85   42   44 1    
    86   42  165 1    
    87   43  166 1    
    88   43  167 1    
    89   43  168 1    
    90   44   45 am   BACKBONE|DICT|INTERRES
    91   44  169 1    
    92   45   46 2    
    93   45   47 1    
    94   47   48 1    
    95   47   49 1    
    96   47  170 1    
    97   48  171 1    
    98   48  172 1    
    99   48  173 1    
   100   49   50 am   BACKBONE|DICT|INTERRES
   101   49  174 1    
   102   50   51 2    
   103   50   52 1    
   104   52   53 1    
   105   52   54 1    
   106   52  175 1    
   107   53  176 1    
   108   53  177 1    
   109   53  178 1    
   110   54   55 am   BACKBONE|DICT|INTERRES
   111   54  179 1    
   112   55   56 2    
   113   55   57 1    
   114   57   58 1    
   115   57   59 1    
   116   57  180 1    
   117   58  181 1    
   118   58  182 1    
   119   58  183 1    
   120   59   60 am   BACKBONE|DICT|INTERRES
   121   59  184 1    
   122   60   61 2    
   123   60   62 1    
   124   62   63 1    
   125   62   64 1    
   126   62  185 1    
   127   63  186 1    
   128   63  187 1    
   129   63  188 1    
   130   64   65 am   BACKBONE|DICT|INTERRES
   131   64  189 1    
   132   65   66 2    
   133   67   68 2    
   134   67   69 am   BACKBONE|DICT|INTERRES
   135   69   70 1    
   136   69  190 1    
   137   70   71 1    
   138   70   72 1    
   139   70  191 1    
   140   71  192 1    
   141   71  193 1    
   142   71  194 1    
   143   72   73 2    
   144   72   74 am   BACKBONE|DICT|INTERRES
   145   74   75 1    
   146   74  195 1    
   147   75   76 1    
   148   75   77 1    
   149   75  196 1    
   150   76  197 1    
   151   76  198 1    
   152   76  199 1    
   153   77   78 2    
   154   77   79 am   BACKBONE|DICT|INTERRES
   155   79   80 1    
   156   79  200 1    
   157   80   81 1    
   158   80   82 1    
   159   80  201 1    
   160   81  202 1    
   161   81  203 1    
   162   81  204 1    
   163   82   83 2    
   164   82   84 am   BACKBONE|DICT|INTERRES
   165   84   85 1    
   166   84  205 1    
   167   85   86 1    
   168   85   87 1    
   169   85  206 1    
   170   86  207 1    
   171   86  208 1    
   172   86  209 1    
   173   87   88 2    
   174   87   89 am   BACKBONE|DICT|INTERRES
   175   89   90 1    
   176   89  210 1    
   177   90   91 1    
   178   90   92 1    
   179   90  211 1    
   180   91  212 1    
   181   91  213 1    
   182   91  214 1    
   183   92   93 2    
   184   92   94 am   BACKBONE|DICT|INTERRES
   185   94   95 1    
   186   94  215 1    
   187   95   96 1    
   188   95   97 1    
   189   95  216 1    
   190   96  217 1    
   191   96  218 1    
   192   96  219 1    
   193   97   98 2    
   194   97   99 am   BACKBONE|DICT|INTERRES
   195   99  100 1    
   196   99  220 1    
   197  100  101 1    
   198  100  102 1    
   199  100  221 1    
   200  101  222 1    
   201  101  223 1    
   202  101  224 1    
   203  102  103 2    
   204  102  104 am   BACKBONE|DICT|INTERRES
   205  104  105 1    
   206  104  225 1    
   207  105  106 1    
   208  105  107 1    
   209  105  226 1    
   210  106  227 1    
   211  106  228 1    
   212  106  229 1    
   213  107  108 2    
   214  107  109 am   BACKBONE|DICT|INTERRES
   215  109  110 1    
   216  109  230 1    
   217  110  111 1    
   218  110  112 1    
   219  110  231 1    
   220  111  232 1    
   221  111  233 1    
   222  111  234 1    
   223  112  113 2    
   224  112  114 am   BACKBONE|DICT|INTERRES
   225  114  115 1    
   226  114  235 1    
   227  115  116 1    
   228  115  117 1    
   229  115  236 1    
   230  116  237 1    
   231  116  238 1    
   232  116  239 1    
   233  117  118 2    
   234  117  119 am   BACKBONE|DICT|INTERRES
   235  119  120 1    
   236  119  240 1    
   237  120  121 1    
   238  120  124 1    
   239  120  241 1    
   240  121  122 am   BACKBONE|DICT|INTERRES
   241  121  123 2    
   242  122  242 1    
   243  122  243 1    
   244  124  125 1    
   245  124  244 1    
   246  124  245 1    
   247  125  126 1    
   248  126  246 1    
   249  126  247 1    
@<TRIPOS>SUBSTRUCTURE
     1 UNK         1 GROUP             0       ****    0 ROOT    
