@<TRIPOS>MOLECULE
3R540
247   249    1
SMALL
USER_CHARGES


@<TRIPOS>ATOM
      1 CA          0.5208  -15.0950  -42.1481 C.3       0 UNK        -0.1800 
      2 C          -0.5934  -14.3814  -42.8970 C.2       0 UNK         0.5000 
      3 O          -1.7210  -14.3253  -42.4073 O.2       0 UNK        -0.5000 
      4 N          -0.2753  -13.8330  -44.0710 N.am      1 UNK        -0.5000 
      5 CA         -1.1500  -12.9669  -44.8619 C.3       1 UNK         0.1400 
      6 C6         -1.8172  -13.7190  -46.0489 C.3       23 UNK        -0.0398 
      7 S7         -0.6603  -14.3707  -47.3098 S.3       23 UNK        -0.2404 
      8 C8         -1.2147  -16.0911  -47.4790 C.3       23 UNK        -0.0205 
      9 C9         -0.5290  -16.7578  -48.6610 C.ar      23 UNK        -0.0193 
     10 C10        -1.1805  -16.8658  -49.8932 C.ar      23 UNK        -0.1150 
     11 C11        -0.5384  -17.4594  -50.9845 C.ar      23 UNK        -0.0193 
     12 C12         0.7558  -17.9644  -50.8314 C.ar      23 UNK        -0.1150 
     13 C13         1.4151  -17.8668  -49.6037 C.ar      23 UNK        -0.0193 
     14 C14         0.7696  -17.2519  -48.5270 C.ar      23 UNK        -0.1150 
     15 C15         2.8331  -18.3992  -49.4546 C.3       23 UNK        -0.0205 
     16 S16         2.8678  -20.1963  -49.1520 S.3       23 UNK        -0.2404 
     17 C17         2.2518  -20.2824  -47.4364 C.3       23 UNK        -0.0398 
     18 CA          1.2901  -21.4547  -47.1290 C.3       11 UNK         0.1400 
     19 N           0.9369  -21.4409  -45.7080 N.am      11 UNK        -0.5000 
     20 C           0.3257  -22.4297  -45.0456 C.2       10 UNK         0.5000 
     21 O           0.0207  -23.5073  -45.5519 O.2       10 UNK        -0.5000 
     22 CA         -0.0493  -22.1348  -43.5818 C.3       10 UNK         0.1400 
     23 CB          1.1039  -22.5150  -42.6420 C.3       10 UNK        -0.1800 
     24 N          -0.4174  -20.7339  -43.3550 N.am      10 UNK        -0.5000 
     25 C          -1.4814  -20.1239  -43.9009 C.2       9 UNK         0.5000 
     26 O          -2.2304  -20.6755  -44.7081 O.2       9 UNK        -0.5000 
     27 CA         -1.7185  -18.6495  -43.5078 C.3       9 UNK         0.1400 
     28 CB         -3.1616  -18.1737  -43.7696 C.3       9 UNK        -0.1800 
     29 N          -1.3045  -18.3496  -42.1334 N.am      9 UNK        -0.5000 
     30 C          -1.8030  -18.8544  -40.9943 C.2       8 UNK         0.5000 
     31 O          -2.7452  -19.6459  -40.9433 O.2       8 UNK        -0.5000 
     32 CA         -1.0894  -18.4117  -39.7034 C.3       8 UNK         0.1400 
     33 CB         -1.3359  -19.3618  -38.5165 C.3       8 UNK        -0.1800 
     34 N           0.3466  -18.2985  -39.9504 N.am      8 UNK        -0.5000 
     35 C           1.1761  -17.3929  -39.4300 C.2       7 UNK         0.5000 
     36 O           0.8237  -16.5120  -38.6455 O.2       7 UNK        -0.5000 
     37 CA          2.6519  -17.4819  -39.8654 C.3       7 UNK         0.1400 
     38 CB          3.3402  -18.7105  -39.2406 C.3       7 UNK        -0.1800 
     39 N           2.8879  -17.4310  -41.3161 N.am      7 UNK        -0.5000 
     40 C           2.5355  -18.3031  -42.2760 C.2       6 UNK         0.5000 
     41 O           1.7946  -19.2703  -42.0904 O.2       6 UNK        -0.5000 
     42 CA          3.0791  -18.0573  -43.7000 C.3       6 UNK         0.1400 
     43 CB          1.9477  -17.6730  -44.6632 C.3       6 UNK        -0.1800 
     44 N           4.1168  -17.0288  -43.7672 N.am      6 UNK        -0.5000 
     45 C           5.3727  -17.1733  -43.3181 C.2       5 UNK         0.5000 
     46 O           5.8139  -18.2299  -42.8657 O.2       5 UNK        -0.5000 
     47 CA          6.2866  -15.9303  -43.3551 C.3       5 UNK         0.1400 
     48 CB          7.3251  -16.0633  -44.4798 C.3       5 UNK        -0.1800 
     49 N           5.5763  -14.6593  -43.5235 N.am      5 UNK        -0.5000 
     50 C           4.6779  -14.1327  -42.6781 C.2       4 UNK         0.5000 
     51 O           4.3316  -14.6710  -41.6256 O.2       4 UNK        -0.5000 
     52 CA          4.0192  -12.8092  -43.1163 C.3       4 UNK         0.1400 
     53 CB          4.7478  -11.6115  -42.4900 C.3       4 UNK        -0.1800 
     54 N           3.9773  -12.6391  -44.5737 N.am      4 UNK        -0.5000 
     55 C           3.2477  -13.3970  -45.4014 C.2       3 UNK         0.5000 
     56 O           2.5070  -14.3047  -45.0161 O.2       3 UNK        -0.5000 
     57 CA          3.3212  -13.0555  -46.8985 C.3       3 UNK         0.1400 
     58 CB          3.3261  -14.3249  -47.7678 C.3       3 UNK        -0.1800 
     59 N           2.1512  -12.2543  -47.2296 N.am      3 UNK        -0.5000 
     60 C           2.0513  -10.9295  -47.0483 C.2       2 UNK         0.5000 
     61 O           3.0101  -10.1940  -46.8112 O.2       2 UNK        -0.5000 
     62 CA          0.6213  -10.3481  -47.0663 C.3       2 UNK         0.1400 
     63 CB          0.1992   -9.9809  -48.4966 C.3       2 UNK        -0.1800 
     64 N          -0.3490  -11.2911  -46.5000 N.am      2 UNK        -0.5000 
     65 C          -0.3356  -11.7064  -45.2246 C.2       1 UNK         0.5000 
     66 O           0.3327  -11.1529  -44.3476 O.2       1 UNK        -0.5000 
     67 C           0.0311  -21.4815  -48.0310 C.2       11 UNK         0.5000 
     68 O           0.0113  -22.2152  -49.0197 O.2       11 UNK        -0.5000 
     69 N          -1.0205  -20.7417  -47.6433 N.am      12 UNK        -0.5000 
     70 CA         -2.3203  -20.7662  -48.3175 C.3       12 UNK         0.1400 
     71 CB         -3.1634  -19.5547  -47.8970 C.3       12 UNK        -0.1800 
     72 C          -3.0812  -22.0721  -48.0381 C.2       12 UNK         0.5000 
     73 O          -3.6856  -22.6261  -48.9559 O.2       12 UNK        -0.5000 
     74 N          -3.0177  -22.5622  -46.7913 N.am      13 UNK        -0.5000 
     75 CA         -3.6057  -23.8346  -46.3643 C.3       13 UNK         0.1400 
     76 CB         -3.4706  -23.9884  -44.8430 C.3       13 UNK        -0.1800 
     77 C          -2.9975  -25.0451  -47.0978 C.2       13 UNK         0.5000 
     78 O          -3.7401  -25.9304  -47.5218 O.2       13 UNK        -0.5000 
     79 N          -1.6720  -25.0268  -47.3004 N.am      14 UNK        -0.5000 
     80 CA         -0.9252  -25.9994  -48.1043 C.3       14 UNK         0.1400 
     81 CB          0.5806  -25.7510  -47.9312 C.3       14 UNK        -0.1800 
     82 C          -1.3083  -25.9826  -49.5986 C.2       14 UNK         0.5000 
     83 O          -1.2032  -27.0141  -50.2621 O.2       14 UNK        -0.5000 
     84 N          -1.7924  -24.8326  -50.0859 N.am      15 UNK        -0.5000 
     85 CA         -2.3728  -24.6419  -51.4156 C.3       15 UNK         0.1400 
     86 CB         -2.0265  -23.2257  -51.9134 C.3       15 UNK        -0.1800 
     87 C          -3.8958  -24.9074  -51.4326 C.2       15 UNK         0.5000 
     88 O          -4.5794  -24.4250  -52.3343 O.2       15 UNK        -0.5000 
     89 N          -4.4087  -25.6517  -50.4394 N.am      16 UNK        -0.5000 
     90 CA         -5.8051  -26.0622  -50.2547 C.3       16 UNK         0.1400 
     91 CB         -6.2418  -27.0348  -51.3698 C.3       16 UNK        -0.1800 
     92 C          -6.7595  -24.8646  -50.0746 C.2       16 UNK         0.5000 
     93 O          -7.8210  -24.8159  -50.6972 O.2       16 UNK        -0.5000 
     94 N          -6.3390  -23.9160  -49.2253 N.am      17 UNK        -0.5000 
     95 CA         -6.9694  -22.6187  -48.9558 C.3       17 UNK         0.1400 
     96 CB         -8.3826  -22.7814  -48.3573 C.3       17 UNK        -0.1800 
     97 C          -6.9183  -21.7026  -50.1949 C.2       17 UNK         0.5000 
     98 O          -7.9203  -21.0858  -50.5610 O.2       17 UNK        -0.5000 
     99 N          -5.7278  -21.6503  -50.8097 N.am      18 UNK        -0.5000 
    100 CA        -5.3716  -20.8999  -52.0157 C.3       18 UNK         0.1400 
    101 CB        -5.3531  -19.3851  -51.7250 C.3       18 UNK        -0.1800 
    102 C         -6.2281  -21.2728  -53.2464 C.2       18 UNK         0.5000 
    103 O         -6.6709  -20.3906  -53.9867 O.2       18 UNK        -0.5000 
    104 N         -6.4327  -22.5790  -53.4585 N.am      19 UNK        -0.5000 
    105 CA        -7.1867  -23.1393  -54.5801 C.3       19 UNK         0.1400 
    106 CB        -7.3446  -24.6525  -54.3765 C.3       19 UNK        -0.1800 
    107 C         -6.5144  -22.8519  -55.9345 C.2       19 UNK         0.5000 
    108 O         -5.2845  -22.7915  -56.0089 O.2       19 UNK        -0.5000 
    109 N         -7.3405  -22.6785  -56.9765 N.am      20 UNK        -0.5000 
    110 CA        -6.9534  -22.3621  -58.3590 C.3       20 UNK         0.1400 
    111 CB        -6.2409  -23.5667  -59.0098 C.3       20 UNK        -0.1800 
    112 C         -6.1454  -21.0494  -58.4727 C.2       20 UNK         0.5000 
    113 O         -5.1987  -20.9721  -59.2574 O.2       20 UNK        -0.5000 
    114 N         -6.5363  -20.0516  -57.6634 N.am      21 UNK        -0.5000 
    115 CA        -5.8731  -18.7578  -57.4658 C.3       21 UNK         0.1400 
    116 CB        -5.9151  -17.9041  -58.7513 C.3       21 UNK        -0.1800 
    117 C         -4.4543  -18.9211  -56.8803 C.2       21 UNK         0.5000 
    118 O         -3.4971  -18.3292  -57.3830 O.2       21 UNK        -0.5000 
    119 N         -4.3611  -19.7249  -55.8133 N.am      22 UNK        -0.5000 
    120 CA        -3.1266  -20.0656  -55.0906 C.3       22 UNK         0.1400 
    121 C         -2.1410  -20.9369  -55.9246 C.2       22 UNK         0.5000 
    122 N         -2.6281  -21.9861  -56.5736 N.am      22 UNK        -0.7600 
    123 O         -0.9419  -20.6786  -55.9897 O.2       22 UNK        -0.5000 
    124 C124       -2.4830  -18.8224  -54.4137 C.3       23 UNK        -0.0398 
    125 S125       -1.7702  -19.1868  -52.7763 S.3       23 UNK        -0.2404 
    126 C126       -1.2175  -17.5105  -52.3428 C.3       23 UNK        -0.0205 
    127 H127        1.4944  -14.9256  -42.6065 H         1 UNK         0.0600 
    128 H128        0.5695  -14.7407  -41.1184 H         1 UNK         0.0600 
    129 H129        0.3328  -16.1647  -42.1335 H         1 UNK         0.0600 
    130 H130        0.6757  -13.9198  -44.4201 H         1 UNK         0.3000 
    131 H131       -1.9573  -12.5953  -44.2276 H         1 UNK         0.0600 
    132 H132       -2.4060  -14.5453  -45.6482 H         1 UNK         0.0800 
    133 H133       -2.5404  -13.0717  -46.5472 H         1 UNK         0.0800 
    134 H134       -2.2978  -16.1150  -47.6088 H         1 UNK         0.0800 
    135 H135       -0.9960  -16.6372  -46.5601 H         1 UNK         0.0800 
    136 H136       -2.1799  -16.4700  -50.0071 H         1 UNK         0.1150 
    137 H137        1.2534  -18.4259  -51.6729 H         1 UNK         0.1150 
    138 H138        1.2790  -17.1406  -47.5831 H         1 UNK         0.1150 
    139 H139        3.3963  -18.1864  -50.3644 H         1 UNK         0.0800 
    140 H140        3.3558  -17.8815  -48.6486 H         1 UNK         0.0800 
    141 H141        3.1269  -20.3518  -46.7885 H         1 UNK         0.0800 
    142 H142        1.7689  -19.3447  -47.1736 H         1 UNK         0.0800 
    143 H143        1.8330  -22.3837  -47.3172 H         1 UNK         0.0600 
    144 H144        1.1528  -20.6023  -45.1932 H         1 UNK         0.3000 
    145 H145       -0.9131  -22.7505  -43.3261 H         1 UNK         0.0600 
    146 H146        0.8320  -22.3540  -41.5986 H         1 UNK         0.0600 
    147 H147        1.3653  -23.5683  -42.7515 H         1 UNK         0.0600 
    148 H148        2.0018  -21.9307  -42.8473 H         1 UNK         0.0600 
    149 H149        0.1900  -20.2079  -42.7354 H         1 UNK         0.3000 
    150 H150       -1.0691  -18.0583  -44.1536 H         1 UNK         0.0600 
    151 H151       -3.4089  -18.2364  -44.8292 H         1 UNK         0.0600 
    152 H152       -3.2931  -17.1336  -43.4702 H         1 UNK         0.0600 
    153 H153       -3.8922  -18.7750  -43.2280 H         1 UNK         0.0600 
    154 H154       -0.5240  -17.7177  -42.0422 H         1 UNK         0.3000 
    155 H155       -1.4940  -17.4294  -39.4510 H         1 UNK         0.0600 
    156 H156       -2.3989  -19.4336  -38.2834 H         1 UNK         0.0600 
    157 H157       -0.8317  -19.0079  -37.6172 H         1 UNK         0.0600 
    158 H158       -0.9742  -20.3684  -38.7294 H         1 UNK         0.0600 
    159 H159        0.7446  -18.9531  -40.6204 H         1 UNK         0.3000 
    160 H160        3.1460  -16.5961  -39.4627 H         1 UNK         0.0600 
    161 H161        2.9204  -19.6473  -39.6082 H         1 UNK         0.0600 
    162 H162        4.4079  -18.7150  -39.4602 H         1 UNK         0.0600 
    163 H163        3.2316  -18.7083  -38.1553 H         1 UNK         0.0600 
    164 H164        3.4475  -16.6369  -41.6066 H         1 UNK         0.3000 
    165 H165        3.5113  -18.9989  -44.0452 H         1 UNK         0.0600 
    166 H166        1.4260  -16.7713  -44.3442 H         1 UNK         0.0600 
    167 H167        2.3454  -17.4861  -45.6592 H         1 UNK         0.0600 
    168 H168        1.2125  -18.4716  -44.7477 H         1 UNK         0.0600 
    169 H169        3.8331  -16.1269  -44.1268 H         1 UNK         0.3000 
    170 H170        6.8149  -15.8907  -42.4005 H         1 UNK         0.0600 
    171 H171        7.9033  -16.9822  -44.3734 H         1 UNK         0.0600 
    172 H172        6.8523  -16.0849  -45.4625 H         1 UNK         0.0600 
    173 H173        8.0328  -15.2342  -44.4645 H         1 UNK         0.0600 
    174 H174        5.7858  -14.1412  -44.3638 H         1 UNK         0.3000 
    175 H175        2.9914  -12.8144  -42.7470 H         1 UNK         0.0600 
    176 H176        5.7786  -11.5389  -42.8390 H         1 UNK         0.0600 
    177 H177        4.2441  -10.6749  -42.7304 H         1 UNK         0.0600 
    178 H178        4.7737  -11.6952  -41.4027 H         1 UNK         0.0600 
    179 H179        4.5180  -11.8761  -44.9566 H         1 UNK         0.3000 
    180 H180        4.2358  -12.4947  -47.1022 H         1 UNK         0.0600 
    181 H181        2.4217  -14.9175  -47.6277 H         1 UNK         0.0600 
    182 H182        3.3979  -14.0761  -48.8266 H         1 UNK         0.0600 
    183 H183        4.1766  -14.9624  -47.5235 H         1 UNK         0.0600 
    184 H184        1.3010  -12.7762  -47.3914 H         1 UNK         0.3000 
    185 H185        0.6169   -9.4404  -46.4592 H         1 UNK         0.0600 
    186 H186       -0.7889   -9.5207  -48.5101 H         1 UNK         0.0600 
    187 H187        0.8961   -9.2664  -48.9368 H         1 UNK         0.0600 
    188 H188        0.1715  -10.8562  -49.1470 H         1 UNK         0.0600 
    189 H189       -0.9190  -11.7960  -47.1639 H         1 UNK         0.3000 
    190 H190       -0.9658  -20.2158  -46.7849 H         1 UNK         0.3000 
    191 H191       -2.1514  -20.6979  -49.3948 H         1 UNK         0.0600 
    192 H192       -3.3898  -19.5661  -46.8316 H         1 UNK         0.0600 
    193 H193       -4.1141  -19.5403  -48.4315 H         1 UNK         0.0600 
    194 H194       -2.6524  -18.6212  -48.1229 H         1 UNK         0.0600 
    195 H195       -2.5579  -22.0075  -46.0750 H         1 UNK         0.3000 
    196 H196       -4.6702  -23.7999  -46.6040 H         1 UNK         0.0600 
    197 H197       -4.0008  -24.8755  -44.4948 H         1 UNK         0.0600 
    198 H198       -3.8906  -23.1298  -44.3185 H         1 UNK         0.0600 
    199 H199       -2.4299  -24.0921  -44.5391 H         1 UNK         0.0600 
    200 H200       -1.1227  -24.2979  -46.8522 H         1 UNK         0.3000 
    201 H201       -1.1536  -26.9950  -47.7188 H         1 UNK         0.0600 
    202 H202        0.8785  -25.8479  -46.8870 H         1 UNK         0.0600 
    203 H203        0.8644  -24.7539  -48.2690 H         1 UNK         0.0600 
    204 H204        1.1655  -26.4718  -48.5039 H         1 UNK         0.0600 
    205 H205       -1.8509  -24.0369  -49.4642 H         1 UNK         0.3000 
    206 H206       -1.9234  -25.3534  -52.1107 H         1 UNK         0.0600 
    207 H207       -0.9484  -23.0641  -51.9181 H         1 UNK         0.0600 
    208 H208       -2.3799  -23.0654  -52.9329 H         1 UNK         0.0600 
    209 H209       -2.4712  -22.4541  -51.2865 H         1 UNK         0.0600 
    210 H210       -3.7816  -25.9472  -49.7019 H         1 UNK         0.3000 
    211 H211       -5.8378  -26.6140  -49.3142 H         1 UNK         0.0600 
    212 H212       -6.2521  -26.5549  -52.3476 H         1 UNK         0.0600 
    213 H213       -7.2453  -27.4190  -51.1836 H         1 UNK         0.0600 
    214 H214       -5.5722  -27.8930  -51.4265 H         1 UNK         0.0600 
    215 H215       -5.4100  -24.0248  -48.8392 H         1 UNK         0.3000 
    216 H216       -6.3541  -22.1343  -48.1961 H         1 UNK         0.0600 
    217 H217       -8.3699  -23.4418  -47.4903 H         1 UNK         0.0600 
    218 H218       -9.0906  -23.1880  -49.0796 H         1 UNK         0.0600 
    219 H219       -8.7753  -21.8193  -48.0267 H         1 UNK         0.0600 
    220 H220       -4.9761  -22.1908  -50.3931 H         1 UNK         0.3000 
    221 H221       -4.3515  -21.1986  -52.2541 H         1 UNK         0.0600 
    222 H222       -6.3437  -19.0093  -51.4681 H         1 UNK         0.0600 
    223 H223       -4.6789  -19.1512  -50.9011 H         1 UNK         0.0600 
    224 H224       -5.0061  -18.8232  -52.5924 H         1 UNK         0.0600 
    225 H225       -5.9389  -23.2498  -52.8743 H         1 UNK         0.3000 
    226 H226       -8.1778  -22.6814  -54.5743 H         1 UNK         0.0600 
    227 H227       -7.8500  -24.8736  -53.4367 H         1 UNK         0.0600 
    228 H228       -7.9377  -25.0973  -55.1765 H         1 UNK         0.0600 
    229 H229       -6.3773  -25.1564  -54.3662 H         1 UNK         0.0600 
    230 H230       -8.3357  -22.7482  -56.8140 H         1 UNK         0.3000 
    231 H231       -7.8807  -22.1939  -58.9084 H         1 UNK         0.0600 
    232 H232       -5.2710  -23.7610  -58.5508 H         1 UNK         0.0600 
    233 H233       -6.8401  -24.4730  -58.9232 H         1 UNK         0.0600 
    234 H234       -6.0700  -23.3929  -60.0728 H         1 UNK         0.0600 
    235 H235       -7.3179  -20.2332  -57.0493 H         1 UNK         0.3000 
    236 H236       -6.4537  -18.2304  -56.7074 H         1 UNK         0.0600 
    237 H237       -6.9342  -17.8031  -59.1241 H         1 UNK         0.0600 
    238 H238       -5.5383  -16.8985  -58.5613 H         1 UNK         0.0600 
    239 H239       -5.3070  -18.3329  -59.5481 H         1 UNK         0.0600 
    240 H240       -5.2066  -20.1650  -55.4696 H         1 UNK         0.3000 
    241 H241       -3.4571  -20.7337  -54.2980 H         1 UNK         0.0600 
    242 H242       -2.0122  -22.5619  -57.1240 H         1 UNK         0.3800 
    243 H243       -3.6103  -22.2419  -56.4792 H         1 UNK         0.3800 
    244 H244       -3.2387  -18.0515  -54.2562 H         1 UNK         0.0800 
    245 H245       -1.7291  -18.3629  -55.0552 H         1 UNK         0.0800 
    246 H246       -0.5222  -17.1519  -53.1033 H         1 UNK         0.0800 
    247 H247       -2.0732  -16.8338  -52.3647 H         1 UNK         0.0800 
@<TRIPOS>BOND
     1    1    2 1    
     2    1  127 1    
     3    1  128 1    
     4    1  129 1    
     5    2    3 2    
     6    2    4 am   BACKBONE|DICT|INTERRES
     7    4    5 1    
     8    4  130 1    
     9    5    6 1    
    10    5   65 1    
    11    5  131 1    
    12    6    7 1    
    13    6  132 1    
    14    6  133 1    
    15    7    8 1    
    16    8    9 1    
    17    8  134 1    
    18    8  135 1    
    19    9   10 ar   
    20    9   14 ar   
    21   10   11 ar   
    22   10  136 1    
    23   11   12 ar   
    24   11  126 1    
    25   12   13 ar   
    26   12  137 1    
    27   13   14 ar   
    28   13   15 1    
    29   14  138 1    
    30   15   16 1    
    31   15  139 1    
    32   15  140 1    
    33   16   17 1    
    34   17   18 1    
    35   17  141 1    
    36   17  142 1    
    37   18   19 1    
    38   18   67 1    
    39   18  143 1    
    40   19   20 am   BACKBONE|DICT|INTERRES
    41   19  144 1    
    42   20   21 2    
    43   20   22 1    
    44   22   23 1    
    45   22   24 1    
    46   22  145 1    
    47   23  146 1    
    48   23  147 1    
    49   23  148 1    
    50   24   25 am   BACKBONE|DICT|INTERRES
    51   24  149 1    
    52   25   26 2    
    53   25   27 1    
    54   27   28 1    
    55   27   29 1    
    56   27  150 1    
    57   28  151 1    
    58   28  152 1    
    59   28  153 1    
    60   29   30 am   BACKBONE|DICT|INTERRES
    61   29  154 1    
    62   30   31 2    
    63   30   32 1    
    64   32   33 1    
    65   32   34 1    
    66   32  155 1    
    67   33  156 1    
    68   33  157 1    
    69   33  158 1    
    70   34   35 am   BACKBONE|DICT|INTERRES
    71   34  159 1    
    72   35   36 2    
    73   35   37 1    
    74   37   38 1    
    75   37   39 1    
    76   37  160 1    
    77   38  161 1    
    78   38  162 1    
    79   38  163 1    
    80   39   40 am   BACKBONE|DICT|INTERRES
    81   39  164 1    
    82   40   41 2    
    83   40   42 1    
    84   42   43 1    
    85   42   44 1    
    86   42  165 1    
    87   43  166 1    
    88   43  167 1    
    89   43  168 1    
    90   44   45 am   BACKBONE|DICT|INTERRES
    91   44  169 1    
    92   45   46 2    
    93   45   47 1    
    94   47   48 1    
    95   47   49 1    
    96   47  170 1    
    97   48  171 1    
    98   48  172 1    
    99   48  173 1    
   100   49   50 am   BACKBONE|DICT|INTERRES
   101   49  174 1    
   102   50   51 2    
   103   50   52 1    
   104   52   53 1    
   105   52   54 1    
   106   52  175 1    
   107   53  176 1    
   108   53  177 1    
   109   53  178 1    
   110   54   55 am   BACKBONE|DICT|INTERRES
   111   54  179 1    
   112   55   56 2    
   113   55   57 1    
   114   57   58 1    
   115   57   59 1    
   116   57  180 1    
   117   58  181 1    
   118   58  182 1    
   119   58  183 1    
   120   59   60 am   BACKBONE|DICT|INTERRES
   121   59  184 1    
   122   60   61 2    
   123   60   62 1    
   124   62   63 1    
   125   62   64 1    
   126   62  185 1    
   127   63  186 1    
   128   63  187 1    
   129   63  188 1    
   130   64   65 am   BACKBONE|DICT|INTERRES
   131   64  189 1    
   132   65   66 2    
   133   67   68 2    
   134   67   69 am   BACKBONE|DICT|INTERRES
   135   69   70 1    
   136   69  190 1    
   137   70   71 1    
   138   70   72 1    
   139   70  191 1    
   140   71  192 1    
   141   71  193 1    
   142   71  194 1    
   143   72   73 2    
   144   72   74 am   BACKBONE|DICT|INTERRES
   145   74   75 1    
   146   74  195 1    
   147   75   76 1    
   148   75   77 1    
   149   75  196 1    
   150   76  197 1    
   151   76  198 1    
   152   76  199 1    
   153   77   78 2    
   154   77   79 am   BACKBONE|DICT|INTERRES
   155   79   80 1    
   156   79  200 1    
   157   80   81 1    
   158   80   82 1    
   159   80  201 1    
   160   81  202 1    
   161   81  203 1    
   162   81  204 1    
   163   82   83 2    
   164   82   84 am   BACKBONE|DICT|INTERRES
   165   84   85 1    
   166   84  205 1    
   167   85   86 1    
   168   85   87 1    
   169   85  206 1    
   170   86  207 1    
   171   86  208 1    
   172   86  209 1    
   173   87   88 2    
   174   87   89 am   BACKBONE|DICT|INTERRES
   175   89   90 1    
   176   89  210 1    
   177   90   91 1    
   178   90   92 1    
   179   90  211 1    
   180   91  212 1    
   181   91  213 1    
   182   91  214 1    
   183   92   93 2    
   184   92   94 am   BACKBONE|DICT|INTERRES
   185   94   95 1    
   186   94  215 1    
   187   95   96 1    
   188   95   97 1    
   189   95  216 1    
   190   96  217 1    
   191   96  218 1    
   192   96  219 1    
   193   97   98 2    
   194   97   99 am   BACKBONE|DICT|INTERRES
   195   99  100 1    
   196   99  220 1    
   197  100  101 1    
   198  100  102 1    
   199  100  221 1    
   200  101  222 1    
   201  101  223 1    
   202  101  224 1    
   203  102  103 2    
   204  102  104 am   BACKBONE|DICT|INTERRES
   205  104  105 1    
   206  104  225 1    
   207  105  106 1    
   208  105  107 1    
   209  105  226 1    
   210  106  227 1    
   211  106  228 1    
   212  106  229 1    
   213  107  108 2    
   214  107  109 am   BACKBONE|DICT|INTERRES
   215  109  110 1    
   216  109  230 1    
   217  110  111 1    
   218  110  112 1    
   219  110  231 1    
   220  111  232 1    
   221  111  233 1    
   222  111  234 1    
   223  112  113 2    
   224  112  114 am   BACKBONE|DICT|INTERRES
   225  114  115 1    
   226  114  235 1    
   227  115  116 1    
   228  115  117 1    
   229  115  236 1    
   230  116  237 1    
   231  116  238 1    
   232  116  239 1    
   233  117  118 2    
   234  117  119 am   BACKBONE|DICT|INTERRES
   235  119  120 1    
   236  119  240 1    
   237  120  121 1    
   238  120  124 1    
   239  120  241 1    
   240  121  122 am   BACKBONE|DICT|INTERRES
   241  121  123 2    
   242  122  242 1    
   243  122  243 1    
   244  124  125 1    
   245  124  244 1    
   246  124  245 1    
   247  125  126 1    
   248  126  246 1    
   249  126  247 1    
@<TRIPOS>SUBSTRUCTURE
     1 UNK         1 GROUP             0       ****    0 ROOT    
