@<TRIPOS>MOLECULE
3R540
247   249    1
SMALL
USER_CHARGES


@<TRIPOS>ATOM
      1 CA          5.8577  -10.2570  -48.4481 C.3       0 UNK        -0.1800 
      2 C           5.2827  -11.2341  -47.4340 C.2       0 UNK         0.5000 
      3 O           5.6561  -11.1910  -46.2620 O.2       0 UNK        -0.5000 
      4 N           4.3625  -12.1043  -47.8704 N.am      1 UNK        -0.5000 
      5 CA          3.6953  -13.1151  -47.0388 C.3       1 UNK         0.1400 
      6 C6          2.8508  -14.1091  -47.8741 C.3       23 UNK        -0.0398 
      7 S7          1.6252  -13.3205  -48.9813 S.3       23 UNK        -0.2404 
      8 C8          1.8094  -14.3053  -50.5026 C.3       23 UNK        -0.0205 
      9 C9          1.2061  -15.6945  -50.3520 C.ar      23 UNK        -0.0193 
     10 C10        -0.1463  -15.9086  -50.6343 C.ar      23 UNK        -0.1150 
     11 C11        -0.7097  -17.1814  -50.4997 C.ar      23 UNK        -0.0193 
     12 C12         0.0886  -18.2414  -50.0576 C.ar      23 UNK        -0.1150 
     13 C13         1.4478  -18.0441  -49.7938 C.ar      23 UNK        -0.0193 
     14 C14         2.0005  -16.7703  -49.9466 C.ar      23 UNK        -0.1150 
     15 C15         2.3333  -19.2122  -49.3860 C.3       23 UNK        -0.0205 
     16 S16         2.8409  -19.1459  -47.6360 S.3       23 UNK        -0.2404 
     17 C17         1.2628  -19.3639  -46.7473 C.3       23 UNK        -0.0398 
     18 CA          0.9768  -20.8340  -46.3484 C.3       11 UNK         0.1400 
     19 N           0.0871  -20.9029  -45.1856 N.am      11 UNK        -0.5000 
     20 C          -0.1306  -22.0022  -44.4494 C.2       10 UNK         0.5000 
     21 O           0.4484  -23.0729  -44.6301 O.2       10 UNK        -0.5000 
     22 CA         -1.2077  -21.8888  -43.3567 C.3       10 UNK         0.1400 
     23 CB         -0.6826  -21.0854  -42.1563 C.3       10 UNK        -0.1800 
     24 N          -2.4254  -21.2558  -43.8636 N.am      10 UNK        -0.5000 
     25 C          -3.3054  -21.8395  -44.6920 C.2       9 UNK         0.5000 
     26 O          -3.2246  -23.0047  -45.0755 O.2       9 UNK        -0.5000 
     27 CA         -4.4237  -20.9403  -45.2329 C.3       9 UNK         0.1400 
     28 CB         -5.5081  -20.6835  -44.1724 C.3       9 UNK        -0.1800 
     29 N          -3.8248  -19.6921  -45.6899 N.am      9 UNK        -0.5000 
     30 C          -4.3457  -18.8032  -46.5359 C.2       8 UNK         0.5000 
     31 O          -5.4808  -18.8888  -47.0030 O.2       8 UNK        -0.5000 
     32 CA         -3.4169  -17.6274  -46.9186 C.3       8 UNK         0.1400 
     33 CB         -4.1097  -16.5983  -47.8293 C.3       8 UNK        -0.1800 
     34 N          -2.8599  -16.9277  -45.7556 N.am      8 UNK        -0.5000 
     35 C          -1.9077  -17.3812  -44.9300 C.2       7 UNK         0.5000 
     36 O          -1.3973  -18.5031  -45.0193 O.2       7 UNK        -0.5000 
     37 CA         -1.5203  -16.4531  -43.7651 C.3       7 UNK         0.1400 
     38 CB         -2.3818  -16.7733  -42.5342 C.3       7 UNK        -0.1800 
     39 N          -0.1105  -16.5558  -43.3876 N.am      7 UNK        -0.5000 
     40 C           0.9288  -16.2915  -44.1889 C.2       6 UNK         0.5000 
     41 O           0.8201  -15.9277  -45.3603 O.2       6 UNK        -0.5000 
     42 CA          2.3151  -16.3772  -43.5316 C.3       6 UNK         0.1400 
     43 CB          3.4445  -16.6348  -44.5445 C.3       6 UNK        -0.1800 
     44 N           2.5749  -15.1091  -42.8654 N.am      6 UNK        -0.5000 
     45 C           2.2667  -14.8088  -41.5989 C.2       5 UNK         0.5000 
     46 O           1.7616  -15.6137  -40.8139 O.2       5 UNK        -0.5000 
     47 CA          2.5621  -13.3591  -41.1551 C.3       5 UNK         0.1400 
     48 CB          2.6630  -13.1981  -39.6240 C.3       5 UNK        -0.1800 
     49 N           3.7330  -12.7881  -41.8306 N.am      5 UNK        -0.5000 
     50 C           5.0109  -13.1899  -41.7445 C.2       4 UNK         0.5000 
     51 O           5.4032  -14.0784  -40.9874 O.2       4 UNK        -0.5000 
     52 CA          6.0276  -12.5041  -42.6824 C.3       4 UNK         0.1400 
     53 CB          6.4706  -13.4776  -43.7864 C.3       4 UNK        -0.1800 
     54 N           5.5156  -11.2862  -43.3143 N.am      4 UNK        -0.5000 
     55 C           5.3305  -10.1131  -42.6938 C.2       3 UNK         0.5000 
     56 O           5.6345   -9.9032  -41.5193 O.2       3 UNK        -0.5000 
     57 CA          4.6534   -9.0024  -43.5171 C.3       3 UNK         0.1400 
     58 CB          5.6903   -8.2095  -44.3276 C.3       3 UNK        -0.1800 
     59 N           3.6277   -9.5321  -44.4191 N.am      3 UNK        -0.5000 
     60 C           2.4302   -9.9873  -44.0228 C.2       2 UNK         0.5000 
     61 O           2.0508   -9.9836  -42.8518 O.2       2 UNK        -0.5000 
     62 CA          1.5165  -10.5800  -45.1121 C.3       2 UNK         0.1400 
     63 CB          0.7137   -9.4719  -45.8095 C.3       2 UNK        -0.1800 
     64 N           2.2549  -11.3462  -46.1161 N.am      2 UNK        -0.5000 
     65 C           2.8873  -12.5032  -45.8745 C.2       1 UNK         0.5000 
     66 O           2.9006  -13.0536  -44.7738 O.2       1 UNK        -0.5000 
     67 C           0.3808  -21.6201  -47.5325 C.2       11 UNK         0.5000 
     68 O           1.0966  -22.3322  -48.2359 O.2       11 UNK        -0.5000 
     69 N          -0.9407  -21.4926  -47.7048 N.am      12 UNK        -0.5000 
     70 CA         -1.7206  -22.0842  -48.7883 C.3       12 UNK         0.1400 
     71 CB         -2.9423  -21.1941  -49.0459 C.3       12 UNK        -0.1800 
     72 C          -2.1426  -23.5417  -48.5233 C.2       12 UNK         0.5000 
     73 O          -3.0670  -24.0228  -49.1802 O.2       12 UNK        -0.5000 
     74 N          -1.4787  -24.2355  -47.5888 N.am      13 UNK        -0.5000 
     75 CA         -1.7269  -25.6395  -47.2470 C.3       13 UNK         0.1400 
     76 CB         -0.8334  -26.0397  -46.0651 C.3       13 UNK        -0.1800 
     77 C          -1.5221  -26.5963  -48.4388 C.2       13 UNK         0.5000 
     78 O          -2.2749  -27.5591  -48.5842 O.2       13 UNK        -0.5000 
     79 N          -0.5596  -26.2658  -49.3125 N.am      14 UNK        -0.5000 
     80 CA         -0.2994  -26.9472  -50.5847 C.3       14 UNK         0.1400 
     81 CB          1.0447  -26.4546  -51.1421 C.3       14 UNK        -0.1800 
     82 C          -1.4190  -26.7531  -51.6307 C.2       14 UNK         0.5000 
     83 O          -1.5324  -27.5618  -52.5516 O.2       14 UNK        -0.5000 
     84 N          -2.2351  -25.7051  -51.4572 N.am      15 UNK        -0.5000 
     85 CA         -3.4230  -25.3916  -52.2518 C.3       15 UNK         0.1400 
     86 CB         -3.4025  -23.8886  -52.5826 C.3       15 UNK        -0.1800 
     87 C          -4.7139  -25.8030  -51.5097 C.2       15 UNK         0.5000 
     88 O          -5.7841  -25.2640  -51.8016 O.2       15 UNK        -0.5000 
     89 N          -4.5841  -26.7319  -50.5476 N.am      16 UNK        -0.5000 
     90 CA         -5.6292  -27.2883  -49.6840 C.3       16 UNK         0.1400 
     91 CB         -6.6028  -28.1624  -50.4996 C.3       16 UNK        -0.1800 
     92 C          -6.3213  -26.2146  -48.8201 C.2       16 UNK         0.5000 
     93 O          -7.5486  -26.1817  -48.7292 O.2       16 UNK        -0.5000 
     94 N          -5.4958  -25.3474  -48.2162 N.am      17 UNK        -0.5000 
     95 CA         -5.8582  -24.1859  -47.3981 C.3       17 UNK         0.1400 
     96 CB         -6.6084  -24.6028  -46.1164 C.3       17 UNK        -0.1800 
     97 C          -6.5894  -23.1125  -48.2268 C.2       17 UNK         0.5000 
     98 O          -7.6230  -22.5927  -47.8042 O.2       17 UNK        -0.5000 
     99 N          -6.0193  -22.8207  -49.4051 N.am      18 UNK        -0.5000 
    100 CA        -6.5006  -21.8718  -50.4151 C.3       18 UNK         0.1400 
    101 CB        -6.4527  -20.4205  -49.8902 C.3       18 UNK        -0.1800 
    102 C         -7.8767  -22.2450  -51.0080 C.2       18 UNK         0.5000 
    103 O         -8.6730  -21.3583  -51.3249 O.2       18 UNK        -0.5000 
    104 N         -8.1301  -23.5508  -51.1732 N.am      19 UNK        -0.5000 
    105 CA        -9.2558  -24.0612  -51.9579 C.3       19 UNK         0.1400 
    106 CB        -9.5521  -25.5136  -51.5621 C.3       19 UNK        -0.1800 
    107 C         -8.9504  -23.9499  -53.4629 C.2       19 UNK         0.5000 
    108 O         -9.8267  -23.5705  -54.2410 O.2       19 UNK        -0.5000 
    109 N         -7.6944  -24.2366  -53.8269 N.am      20 UNK        -0.5000 
    110 CA        -7.0926  -23.8954  -55.1121 C.3       20 UNK         0.1400 
    111 CB        -6.1124  -25.0154  -55.5001 C.3       20 UNK        -0.1800 
    112 C         -6.3691  -22.5389  -54.9977 C.2       20 UNK         0.5000 
    113 O         -6.2289  -21.9991  -53.8970 O.2       20 UNK        -0.5000 
    114 N         -5.8994  -22.0091  -56.1330 N.am      21 UNK        -0.5000 
    115 CA        -5.0677  -20.8055  -56.1810 C.3       21 UNK         0.1400 
    116 CB        -4.9456  -20.3313  -57.6374 C.3       21 UNK        -0.1800 
    117 C         -3.6768  -21.0713  -55.5726 C.2       21 UNK         0.5000 
    118 O         -3.0390  -22.0638  -55.9317 O.2       21 UNK        -0.5000 
    119 N         -3.2349  -20.1843  -54.6738 N.am      22 UNK        -0.5000 
    120 CA        -1.9291  -20.2634  -53.9970 C.3       22 UNK         0.1400 
    121 C         -0.7166  -19.7671  -54.8410 C.2       22 UNK         0.5000 
    122 N         -0.9163  -19.1669  -56.0084 N.am      22 UNK        -0.7600 
    123 O          0.4287  -19.9494  -54.4379 O.2       22 UNK        -0.5000 
    124 C124       -1.9704  -19.6179  -52.5871 C.3       23 UNK        -0.0398 
    125 S125       -2.4348  -17.8492  -52.5804 S.3       23 UNK        -0.2404 
    126 C126       -2.1794  -17.4005  -50.8324 C.3       23 UNK        -0.0205 
    127 H127        5.6675   -9.2322  -48.1297 H         1 UNK         0.0600 
    128 H128        5.4196  -10.3941  -49.4370 H         1 UNK         0.0600 
    129 H129        6.9356  -10.3950  -48.5302 H         1 UNK         0.0600 
    130 H130        4.0785  -12.0838  -48.8397 H         1 UNK         0.3000 
    131 H131        4.4917  -13.6987  -46.5725 H         1 UNK         0.0600 
    132 H132        2.3303  -14.8199  -47.2309 H         1 UNK         0.0800 
    133 H133        3.5334  -14.7101  -48.4744 H         1 UNK         0.0800 
    134 H134        2.8626  -14.3707  -50.7801 H         1 UNK         0.0800 
    135 H135        1.3151  -13.7797  -51.3210 H         1 UNK         0.0800 
    136 H136       -0.7608  -15.0826  -50.9640 H         1 UNK         0.1150 
    137 H137       -0.3415  -19.2254  -49.9389 H         1 UNK         0.1150 
    138 H138        3.0520  -16.6215  -49.7474 H         1 UNK         0.1150 
    139 H139        1.8417  -20.1615  -49.5969 H         1 UNK         0.0800 
    140 H140        3.2320  -19.2031  -50.0043 H         1 UNK         0.0800 
    141 H141        0.4367  -18.9186  -47.3035 H         1 UNK         0.0800 
    142 H142        1.3477  -18.7597  -45.8446 H         1 UNK         0.0800 
    143 H143        1.9185  -21.3107  -46.0671 H         1 UNK         0.0600 
    144 H144       -0.4297  -20.0533  -44.9703 H         1 UNK         0.3000 
    145 H145       -1.4531  -22.8971  -43.0158 H         1 UNK         0.0600 
    146 H146       -1.4158  -21.0590  -41.3500 H         1 UNK         0.0600 
    147 H147        0.2260  -21.5350  -41.7535 H         1 UNK         0.0600 
    148 H148       -0.4470  -20.0554  -42.4282 H         1 UNK         0.0600 
    149 H149       -2.5799  -20.3002  -43.5788 H         1 UNK         0.3000 
    150 H150       -4.8802  -21.4435  -46.0869 H         1 UNK         0.0600 
    151 H151       -5.9184  -21.6228  -43.7996 H         1 UNK         0.0600 
    152 H152       -6.3379  -20.1112  -44.5873 H         1 UNK         0.0600 
    153 H153       -5.1160  -20.1310  -43.3179 H         1 UNK         0.0600 
    154 H154       -2.8821  -19.4989  -45.3624 H         1 UNK         0.3000 
    155 H155       -2.5855  -18.0556  -47.4827 H         1 UNK         0.0600 
    156 H156       -4.9429  -16.1101  -47.3225 H         1 UNK         0.0600 
    157 H157       -4.5054  -17.0714  -48.7290 H         1 UNK         0.0600 
    158 H158       -3.4121  -15.8249  -48.1515 H         1 UNK         0.0600 
    159 H159       -3.2541  -16.0164  -45.5721 H         1 UNK         0.3000 
    160 H160       -1.7061  -15.4202  -44.0661 H         1 UNK         0.0600 
    161 H161       -2.2062  -17.7877  -42.1733 H         1 UNK         0.0600 
    162 H162       -3.4448  -16.6860  -42.7634 H         1 UNK         0.0600 
    163 H163       -2.1710  -16.0852  -41.7151 H         1 UNK         0.0600 
    164 H164        0.0788  -16.8134  -42.4292 H         1 UNK         0.3000 
    165 H165        2.3154  -17.1953  -42.8081 H         1 UNK         0.0600 
    166 H166        4.4132  -16.6803  -44.0465 H         1 UNK         0.0600 
    167 H167        3.3002  -17.5850  -45.0572 H         1 UNK         0.0600 
    168 H168        3.5002  -15.8541  -45.3030 H         1 UNK         0.0600 
    169 H169        2.8817  -14.3519  -43.4730 H         1 UNK         0.3000 
    170 H170        1.7094  -12.7661  -41.4891 H         1 UNK         0.0600 
    171 H171        1.7252  -13.4744  -39.1407 H         1 UNK         0.0600 
    172 H172        3.4451  -13.8272  -39.1986 H         1 UNK         0.0600 
    173 H173        2.8759  -12.1648  -39.3501 H         1 UNK         0.0600 
    174 H174        3.5267  -12.0712  -42.5127 H         1 UNK         0.3000 
    175 H175        6.9025  -12.2410  -42.0845 H         1 UNK         0.0600 
    176 H176        5.6277  -13.7979  -44.3991 H         1 UNK         0.0600 
    177 H177        7.2092  -13.0202  -44.4449 H         1 UNK         0.0600 
    178 H178        6.9244  -14.3733  -43.3607 H         1 UNK         0.0600 
    179 H179        5.3067  -11.3443  -44.3065 H         1 UNK         0.3000 
    180 H180        4.1740   -8.3142  -42.8175 H         1 UNK         0.0600 
    181 H181        6.2096   -8.8396  -45.0502 H         1 UNK         0.0600 
    182 H182        6.4453   -7.7738  -43.6720 H         1 UNK         0.0600 
    183 H183        5.2218   -7.3899  -44.8727 H         1 UNK         0.0600 
    184 H184        3.8825   -9.6199  -45.3920 H         1 UNK         0.3000 
    185 H185        0.8116  -11.2559  -44.6230 H         1 UNK         0.0600 
    186 H186        0.1348   -8.8956  -45.0866 H         1 UNK         0.0600 
    187 H187        1.3635   -8.7752  -46.3405 H         1 UNK         0.0600 
    188 H188        0.0093   -9.8895  -46.5293 H         1 UNK         0.0600 
    189 H189        2.2962  -10.9629  -47.0492 H         1 UNK         0.3000 
    190 H190       -1.4511  -20.9350  -47.0383 H         1 UNK         0.3000 
    191 H191       -1.1125  -22.0879  -49.6953 H         1 UNK         0.0600 
    192 H192       -3.4417  -21.4776  -49.9721 H         1 UNK         0.0600 
    193 H193       -2.6584  -20.1484  -49.1394 H         1 UNK         0.0600 
    194 H194       -3.6721  -21.2732  -48.2404 H         1 UNK         0.0600 
    195 H195       -0.7426  -23.7700  -47.0775 H         1 UNK         0.3000 
    196 H196       -2.7677  -25.7244  -46.9285 H         1 UNK         0.0600 
    197 H197       -0.9952  -27.0816  -45.7860 H         1 UNK         0.0600 
    198 H198       -1.0521  -25.4313  -45.1870 H         1 UNK         0.0600 
    199 H199        0.2249  -25.9202  -46.3003 H         1 UNK         0.0600 
    200 H200        0.0077  -25.4547  -49.1113 H         1 UNK         0.3000 
    201 H201       -0.2181  -28.0180  -50.3863 H         1 UNK         0.0600 
    202 H202        1.8582  -26.6529  -50.4440 H         1 UNK         0.0600 
    203 H203        1.0280  -25.3827  -51.3438 H         1 UNK         0.0600 
    204 H204        1.2902  -26.9608  -52.0767 H         1 UNK         0.0600 
    205 H205       -2.1096  -25.1252  -50.6369 H         1 UNK         0.3000 
    206 H206       -3.4045  -25.9453  -53.1922 H         1 UNK         0.0600 
    207 H207       -2.4810  -23.6118  -53.0944 H         1 UNK         0.0600 
    208 H208       -4.2248  -23.6198  -53.2425 H         1 UNK         0.0600 
    209 H209       -3.4884  -23.2718  -51.6890 H         1 UNK         0.0600 
    210 H210       -3.6526  -27.0787  -50.3597 H         1 UNK         0.3000 
    211 H211       -5.1220  -27.9478  -48.9783 H         1 UNK         0.0600 
    212 H212       -7.0985  -27.5958  -51.2847 H         1 UNK         0.0600 
    213 H213       -7.3760  -28.5947  -49.8636 H         1 UNK         0.0600 
    214 H214       -6.0763  -28.9902  -50.9745 H         1 UNK         0.0600 
    215 H215       -4.5121  -25.4083  -48.4472 H         1 UNK         0.3000 
    216 H216       -4.9166  -23.7351  -47.0848 H         1 UNK         0.0600 
    217 H217       -6.7543  -23.7459  -45.4577 H         1 UNK         0.0600 
    218 H218       -6.0443  -25.3486  -45.5564 H         1 UNK         0.0600 
    219 H219       -7.5927  -25.0175  -46.3344 H         1 UNK         0.0600 
    220 H220       -5.1766  -23.3273  -49.6469 H         1 UNK         0.3000 
    221 H221       -5.7935  -21.9389  -51.2426 H         1 UNK         0.0600 
    222 H222       -7.1692  -20.2558  -49.0852 H         1 UNK         0.0600 
    223 H223       -5.4662  -20.1598  -49.5132 H         1 UNK         0.0600 
    224 H224       -6.6853  -19.7101  -50.6842 H         1 UNK         0.0600 
    225 H225       -7.4089  -24.2182  -50.9260 H         1 UNK         0.3000 
    226 H226      -10.1441  -23.4642  -51.7410 H         1 UNK         0.0600 
    227 H227       -9.7393  -25.6027  -50.4919 H         1 UNK         0.0600 
    228 H228      -10.4356  -25.8854  -52.0820 H         1 UNK         0.0600 
    229 H229       -8.7231  -26.1719  -51.8151 H         1 UNK         0.0600 
    230 H230       -7.0401  -24.5073  -53.0984 H         1 UNK         0.3000 
    231 H231       -7.8615  -23.8148  -55.8831 H         1 UNK         0.0600 
    232 H232       -6.6233  -25.9760  -55.5684 H         1 UNK         0.0600 
    233 H233       -5.3078  -25.1192  -54.7726 H         1 UNK         0.0600 
    234 H234       -5.6543  -24.8239  -56.4709 H         1 UNK         0.0600 
    235 H235       -6.0143  -22.5130  -57.0000 H         1 UNK         0.3000 
    236 H236       -5.5656  -20.0206  -55.6071 H         1 UNK         0.0600 
    237 H237       -4.3501  -19.4198  -57.7022 H         1 UNK         0.0600 
    238 H238       -4.4664  -21.0820  -58.2673 H         1 UNK         0.0600 
    239 H239       -5.9242  -20.1100  -58.0638 H         1 UNK         0.0600 
    240 H240       -3.8068  -19.3883  -54.4304 H         1 UNK         0.3000 
    241 H241       -1.7241  -21.3224  -53.8290 H         1 UNK         0.0600 
    242 H242       -0.1239  -18.8573  -56.5489 H         1 UNK         0.3800 
    243 H243       -1.8498  -19.0092  -56.3509 H         1 UNK         0.3800 
    244 H244       -2.6884  -20.1554  -51.9670 H         1 UNK         0.0800 
    245 H245       -1.0043  -19.7413  -52.0986 H         1 UNK         0.0800 
    246 H246       -2.7376  -16.4856  -50.6288 H         1 UNK         0.0800 
    247 H247       -2.6126  -18.1630  -50.1876 H         1 UNK         0.0800 
@<TRIPOS>BOND
     1    1    2 1    
     2    1  127 1    
     3    1  128 1    
     4    1  129 1    
     5    2    3 2    
     6    2    4 am   BACKBONE|DICT|INTERRES
     7    4    5 1    
     8    4  130 1    
     9    5    6 1    
    10    5   65 1    
    11    5  131 1    
    12    6    7 1    
    13    6  132 1    
    14    6  133 1    
    15    7    8 1    
    16    8    9 1    
    17    8  134 1    
    18    8  135 1    
    19    9   10 ar   
    20    9   14 ar   
    21   10   11 ar   
    22   10  136 1    
    23   11   12 ar   
    24   11  126 1    
    25   12   13 ar   
    26   12  137 1    
    27   13   14 ar   
    28   13   15 1    
    29   14  138 1    
    30   15   16 1    
    31   15  139 1    
    32   15  140 1    
    33   16   17 1    
    34   17   18 1    
    35   17  141 1    
    36   17  142 1    
    37   18   19 1    
    38   18   67 1    
    39   18  143 1    
    40   19   20 am   BACKBONE|DICT|INTERRES
    41   19  144 1    
    42   20   21 2    
    43   20   22 1    
    44   22   23 1    
    45   22   24 1    
    46   22  145 1    
    47   23  146 1    
    48   23  147 1    
    49   23  148 1    
    50   24   25 am   BACKBONE|DICT|INTERRES
    51   24  149 1    
    52   25   26 2    
    53   25   27 1    
    54   27   28 1    
    55   27   29 1    
    56   27  150 1    
    57   28  151 1    
    58   28  152 1    
    59   28  153 1    
    60   29   30 am   BACKBONE|DICT|INTERRES
    61   29  154 1    
    62   30   31 2    
    63   30   32 1    
    64   32   33 1    
    65   32   34 1    
    66   32  155 1    
    67   33  156 1    
    68   33  157 1    
    69   33  158 1    
    70   34   35 am   BACKBONE|DICT|INTERRES
    71   34  159 1    
    72   35   36 2    
    73   35   37 1    
    74   37   38 1    
    75   37   39 1    
    76   37  160 1    
    77   38  161 1    
    78   38  162 1    
    79   38  163 1    
    80   39   40 am   BACKBONE|DICT|INTERRES
    81   39  164 1    
    82   40   41 2    
    83   40   42 1    
    84   42   43 1    
    85   42   44 1    
    86   42  165 1    
    87   43  166 1    
    88   43  167 1    
    89   43  168 1    
    90   44   45 am   BACKBONE|DICT|INTERRES
    91   44  169 1    
    92   45   46 2    
    93   45   47 1    
    94   47   48 1    
    95   47   49 1    
    96   47  170 1    
    97   48  171 1    
    98   48  172 1    
    99   48  173 1    
   100   49   50 am   BACKBONE|DICT|INTERRES
   101   49  174 1    
   102   50   51 2    
   103   50   52 1    
   104   52   53 1    
   105   52   54 1    
   106   52  175 1    
   107   53  176 1    
   108   53  177 1    
   109   53  178 1    
   110   54   55 am   BACKBONE|DICT|INTERRES
   111   54  179 1    
   112   55   56 2    
   113   55   57 1    
   114   57   58 1    
   115   57   59 1    
   116   57  180 1    
   117   58  181 1    
   118   58  182 1    
   119   58  183 1    
   120   59   60 am   BACKBONE|DICT|INTERRES
   121   59  184 1    
   122   60   61 2    
   123   60   62 1    
   124   62   63 1    
   125   62   64 1    
   126   62  185 1    
   127   63  186 1    
   128   63  187 1    
   129   63  188 1    
   130   64   65 am   BACKBONE|DICT|INTERRES
   131   64  189 1    
   132   65   66 2    
   133   67   68 2    
   134   67   69 am   BACKBONE|DICT|INTERRES
   135   69   70 1    
   136   69  190 1    
   137   70   71 1    
   138   70   72 1    
   139   70  191 1    
   140   71  192 1    
   141   71  193 1    
   142   71  194 1    
   143   72   73 2    
   144   72   74 am   BACKBONE|DICT|INTERRES
   145   74   75 1    
   146   74  195 1    
   147   75   76 1    
   148   75   77 1    
   149   75  196 1    
   150   76  197 1    
   151   76  198 1    
   152   76  199 1    
   153   77   78 2    
   154   77   79 am   BACKBONE|DICT|INTERRES
   155   79   80 1    
   156   79  200 1    
   157   80   81 1    
   158   80   82 1    
   159   80  201 1    
   160   81  202 1    
   161   81  203 1    
   162   81  204 1    
   163   82   83 2    
   164   82   84 am   BACKBONE|DICT|INTERRES
   165   84   85 1    
   166   84  205 1    
   167   85   86 1    
   168   85   87 1    
   169   85  206 1    
   170   86  207 1    
   171   86  208 1    
   172   86  209 1    
   173   87   88 2    
   174   87   89 am   BACKBONE|DICT|INTERRES
   175   89   90 1    
   176   89  210 1    
   177   90   91 1    
   178   90   92 1    
   179   90  211 1    
   180   91  212 1    
   181   91  213 1    
   182   91  214 1    
   183   92   93 2    
   184   92   94 am   BACKBONE|DICT|INTERRES
   185   94   95 1    
   186   94  215 1    
   187   95   96 1    
   188   95   97 1    
   189   95  216 1    
   190   96  217 1    
   191   96  218 1    
   192   96  219 1    
   193   97   98 2    
   194   97   99 am   BACKBONE|DICT|INTERRES
   195   99  100 1    
   196   99  220 1    
   197  100  101 1    
   198  100  102 1    
   199  100  221 1    
   200  101  222 1    
   201  101  223 1    
   202  101  224 1    
   203  102  103 2    
   204  102  104 am   BACKBONE|DICT|INTERRES
   205  104  105 1    
   206  104  225 1    
   207  105  106 1    
   208  105  107 1    
   209  105  226 1    
   210  106  227 1    
   211  106  228 1    
   212  106  229 1    
   213  107  108 2    
   214  107  109 am   BACKBONE|DICT|INTERRES
   215  109  110 1    
   216  109  230 1    
   217  110  111 1    
   218  110  112 1    
   219  110  231 1    
   220  111  232 1    
   221  111  233 1    
   222  111  234 1    
   223  112  113 2    
   224  112  114 am   BACKBONE|DICT|INTERRES
   225  114  115 1    
   226  114  235 1    
   227  115  116 1    
   228  115  117 1    
   229  115  236 1    
   230  116  237 1    
   231  116  238 1    
   232  116  239 1    
   233  117  118 2    
   234  117  119 am   BACKBONE|DICT|INTERRES
   235  119  120 1    
   236  119  240 1    
   237  120  121 1    
   238  120  124 1    
   239  120  241 1    
   240  121  122 am   BACKBONE|DICT|INTERRES
   241  121  123 2    
   242  122  242 1    
   243  122  243 1    
   244  124  125 1    
   245  124  244 1    
   246  124  245 1    
   247  125  126 1    
   248  126  246 1    
   249  126  247 1    
@<TRIPOS>SUBSTRUCTURE
     1 UNK         1 GROUP             0       ****    0 ROOT    
