@<TRIPOS>MOLECULE
3R540
247   249    1
SMALL
USER_CHARGES


@<TRIPOS>ATOM
      1 CA          0.3682  -10.5498  -49.4914 C.3       0 UNK        -0.1800 
      2 C           0.0673  -11.8089  -48.6929 C.2       0 UNK         0.5000 
      3 O          -0.6491  -11.7439  -47.6940 O.2       0 UNK        -0.5000 
      4 N           0.5906  -12.9605  -49.1368 N.am      1 UNK        -0.5000 
      5 CA          0.4453  -14.2697  -48.4817 C.3       1 UNK         0.1400 
      6 C6          1.3351  -15.3433  -49.1557 C.3       23 UNK        -0.0398 
      7 S7          1.8122  -16.6557  -47.9861 S.3       23 UNK        -0.2404 
      8 C8          3.2577  -17.3814  -48.8113 C.3       23 UNK        -0.0205 
      9 C9          2.8606  -18.1762  -50.0449 C.ar      23 UNK        -0.0193 
     10 C10         3.0793  -17.6614  -51.3245 C.ar      23 UNK        -0.1150 
     11 C11         2.7348  -18.4070  -52.4556 C.ar      23 UNK        -0.0193 
     12 C12         2.1743  -19.6786  -52.3007 C.ar      23 UNK        -0.1150 
     13 C13         1.9469  -20.2034  -51.0248 C.ar      23 UNK        -0.0193 
     14 C14         2.2848  -19.4400  -49.9030 C.ar      23 UNK        -0.1150 
     15 C15         1.3342  -21.5883  -50.8629 C.3       23 UNK        -0.0205 
     16 S16         2.5828  -22.8266  -50.3803 S.3       23 UNK        -0.2404 
     17 C17         2.7456  -22.4822  -48.5917 C.3       23 UNK        -0.0398 
     18 CA          2.9506  -23.7171  -47.6804 C.3       11 UNK         0.1400 
     19 N           3.0030  -23.3061  -46.2779 N.am      11 UNK        -0.5000 
     20 C           3.7983  -23.8343  -45.3401 C.2       10 UNK         0.5000 
     21 O           4.5904  -24.7520  -45.5563 O.2       10 UNK        -0.5000 
     22 CA          3.7159  -23.2284  -43.9239 C.3       10 UNK         0.1400 
     23 CB          4.8948  -22.2738  -43.6798 C.3       10 UNK        -0.1800 
     24 N           2.4659  -22.5034  -43.6893 N.am      10 UNK        -0.5000 
     25 C           1.3097  -23.0866  -43.3417 C.2       9 UNK         0.5000 
     26 O           1.2040  -24.2907  -43.1059 O.2       9 UNK        -0.5000 
     27 CA          0.0620  -22.1831  -43.2367 C.3       9 UNK         0.1400 
     28 CB         -0.1879  -21.7890  -41.7731 C.3       9 UNK        -0.1800 
     29 N           0.1133  -20.9632  -44.0464 N.am      9 UNK        -0.5000 
     30 C           0.2948  -20.8954  -45.3727 C.2       8 UNK         0.5000 
     31 O           0.4554  -21.8741  -46.1011 O.2       8 UNK        -0.5000 
     32 CA          0.3700  -19.4853  -45.9810 C.3       8 UNK         0.1400 
     33 CB         -1.0359  -18.9798  -46.3259 C.3       8 UNK        -0.1800 
     34 N           1.0447  -18.5218  -45.1081 N.am      8 UNK        -0.5000 
     35 C           2.3250  -18.6115  -44.7162 C.2       7 UNK         0.5000 
     36 O           3.0779  -19.5288  -45.0451 O.2       7 UNK        -0.5000 
     37 CA          2.8346  -17.5171  -43.7636 C.3       7 UNK         0.1400 
     38 CB          3.3128  -16.2842  -44.5457 C.3       7 UNK        -0.1800 
     39 N           1.7983  -17.1256  -42.8080 N.am      7 UNK        -0.5000 
     40 C           1.5141  -17.8125  -41.6913 C.2       6 UNK         0.5000 
     41 O           2.1647  -18.7840  -41.3056 O.2       6 UNK        -0.5000 
     42 CA          0.2854  -17.3600  -40.8755 C.3       6 UNK         0.1400 
     43 CB          0.6970  -16.3395  -39.8038 C.3       6 UNK        -0.1800 
     44 N          -0.7801  -16.7854  -41.6984 N.am      6 UNK        -0.5000 
     45 C          -1.4673  -17.4521  -42.6361 C.2       5 UNK         0.5000 
     46 O          -1.3243  -18.6551  -42.8531 O.2       5 UNK        -0.5000 
     47 CA         -2.4422  -16.6358  -43.5103 C.3       5 UNK         0.1400 
     48 CB         -3.8802  -16.7828  -42.9935 C.3       5 UNK        -0.1800 
     49 N          -2.1222  -15.2103  -43.6349 N.am      5 UNK        -0.5000 
     50 C          -0.9722  -14.6942  -44.0885 C.2       4 UNK         0.5000 
     51 O           0.0125  -15.3774  -44.3767 O.2       4 UNK        -0.5000 
     52 CA         -0.9290  -13.1585  -44.2229 C.3       4 UNK         0.1400 
     53 CB          0.4849  -12.6291  -44.5206 C.3       4 UNK        -0.1800 
     54 N          -1.8451  -12.6805  -45.2592 N.am      4 UNK        -0.5000 
     55 C          -3.1744  -12.5612  -45.1331 C.2       3 UNK         0.5000 
     56 O          -3.7868  -12.8389  -44.1006 O.2       3 UNK        -0.5000 
     57 CA         -3.9488  -12.0714  -46.3683 C.3       3 UNK         0.1400 
     58 CB         -3.7892  -10.5533  -46.5469 C.3       3 UNK        -0.1800 
     59 N          -3.4865  -12.7549  -47.5749 N.am      3 UNK        -0.5000 
     60 C          -4.0417  -13.8661  -48.0800 C.2       2 UNK         0.5000 
     61 O          -5.0702  -14.3800  -47.6391 O.2       2 UNK        -0.5000 
     62 CA         -3.3222  -14.5348  -49.2700 C.3       2 UNK         0.1400 
     63 CB         -3.9301  -14.0857  -50.6068 C.3       2 UNK        -0.1800 
     64 N          -1.8801  -14.2914  -49.2938 N.am      2 UNK        -0.5000 
     65 C          -1.0239  -14.7374  -48.3633 C.2       1 UNK         0.5000 
     66 O          -1.3667  -15.4477  -47.4200 O.2       1 UNK        -0.5000 
     67 C           1.8567  -24.7850  -47.8695 C.2       11 UNK         0.5000 
     68 O           2.1316  -25.8392  -48.4456 O.2       11 UNK        -0.5000 
     69 N           0.6465  -24.4998  -47.3757 N.am      12 UNK        -0.5000 
     70 CA         -0.5248  -25.3604  -47.4873 C.3       12 UNK         0.1400 
     71 CB         -1.4822  -24.7639  -48.5331 C.3       12 UNK        -0.1800 
     72 C          -1.2042  -25.4547  -46.1181 C.2       12 UNK         0.5000 
     73 O          -1.2809  -24.4542  -45.4076 O.2       12 UNK        -0.5000 
     74 N          -1.7198  -26.6422  -45.7815 N.am      13 UNK        -0.5000 
     75 CA         -2.4120  -26.9008  -44.5152 C.3       13 UNK         0.1400 
     76 CB         -2.4515  -28.4179  -44.2732 C.3       13 UNK        -0.1800 
     77 C          -3.8360  -26.3107  -44.4609 C.2       13 UNK         0.5000 
     78 O          -4.3695  -26.1294  -43.3660 O.2       13 UNK        -0.5000 
     79 N          -4.4297  -26.0523  -45.6353 N.am      14 UNK        -0.5000 
     80 CA         -5.7866  -25.5350  -45.8111 C.3       14 UNK         0.1400 
     81 CB         -6.1877  -25.5853  -47.2947 C.3       14 UNK        -0.1800 
     82 C          -6.0620  -24.1608  -45.1516 C.2       14 UNK         0.5000 
     83 O          -6.9976  -24.0820  -44.3576 O.2       14 UNK        -0.5000 
     84 N          -5.3031  -23.0806  -45.4066 N.am      15 UNK        -0.5000 
     85 CA         -4.2615  -22.8761  -46.4214 C.3       15 UNK         0.1400 
     86 CB         -3.2372  -21.8764  -45.8644 C.3       15 UNK        -0.1800 
     87 C          -4.8245  -22.3592  -47.7622 C.2       15 UNK         0.5000 
     88 O          -4.0526  -22.1431  -48.6988 O.2       15 UNK        -0.5000 
     89 N          -6.1511  -22.1604  -47.8270 N.am      16 UNK        -0.5000 
     90 CA         -6.9344  -21.7565  -49.0007 C.3       16 UNK         0.1400 
     91 CB         -6.9603  -22.8943  -50.0439 C.3       16 UNK        -0.1800 
     92 C          -6.4787  -20.4109  -49.5995 C.2       16 UNK         0.5000 
     93 O          -6.4311  -20.2707  -50.8211 O.2       16 UNK        -0.5000 
     94 N          -6.1215  -19.4594  -48.7224 N.am      17 UNK        -0.5000 
     95 CA         -5.5756  -18.1349  -49.0419 C.3       17 UNK         0.1400 
     96 CB         -6.6548  -17.2428  -49.6906 C.3       17 UNK        -0.1800 
     97 C          -4.2891  -18.2334  -49.8871 C.2       17 UNK         0.5000 
     98 O          -4.2173  -17.6610  -50.9752 O.2       17 UNK        -0.5000 
     99 N          -3.3114  -18.9945  -49.3721 N.am      18 UNK        -0.5000 
    100 CA        -2.0191  -19.2965  -49.9993 C.3       18 UNK         0.1400 
    101 CB        -1.1543  -18.0247  -50.1215 C.3       18 UNK        -0.1800 
    102 C         -2.1877  -20.0459  -51.3321 C.2       18 UNK         0.5000 
    103 O         -1.6163  -19.6420  -52.3458 O.2       18 UNK        -0.5000 
    104 N         -2.9997  -21.1139  -51.2958 N.am      19 UNK        -0.5000 
    105 CA        -3.3709  -21.9670  -52.4283 C.3       19 UNK         0.1400 
    106 CB        -2.1605  -22.8120  -52.8787 C.3       19 UNK        -0.1800 
    107 C         -4.0092  -21.1601  -53.5794 C.2       19 UNK         0.5000 
    108 O         -3.5270  -21.2050  -54.7123 O.2       19 UNK        -0.5000 
    109 N         -5.0644  -20.4036  -53.2461 N.am      20 UNK        -0.5000 
    110 CA        -5.8127  -19.4898  -54.1133 C.3       20 UNK         0.1400 
    111 CB        -6.6042  -20.2771  -55.1785 C.3       20 UNK        -0.1800 
    112 C         -4.9219  -18.3796  -54.7081 C.2       20 UNK         0.5000 
    113 O         -4.9830  -18.1155  -55.9103 O.2       20 UNK        -0.5000 
    114 N         -4.1076  -17.7618  -53.8399 N.am      21 UNK        -0.5000 
    115 CA        -3.1203  -16.7205  -54.1254 C.3       21 UNK         0.1400 
    116 CB        -3.8197  -15.4036  -54.5220 C.3       21 UNK        -0.1800 
    117 C         -2.0587  -17.1815  -55.1447 C.2       21 UNK         0.5000 
    118 O         -1.9397  -16.5990  -56.2252 O.2       21 UNK        -0.5000 
    119 N         -1.3038  -18.2198  -54.7646 N.am      22 UNK        -0.5000 
    120 CA        -0.1854  -18.8046  -55.5237 C.3       22 UNK         0.1400 
    121 C         -0.6271  -19.6132  -56.7820 C.2       22 UNK         0.5000 
    122 N         -1.7936  -20.2446  -56.7869 N.am      22 UNK        -0.7600 
    123 O          0.0992  -19.6923  -57.7700 O.2       22 UNK        -0.5000 
    124 C124        0.9573  -17.7917  -55.8392 C.3       23 UNK        -0.0398 
    125 S125        1.5519  -16.8464  -54.3923 S.3       23 UNK        -0.2404 
    126 C126        2.9767  -17.8357  -53.8419 C.3       23 UNK        -0.0205 
    127 H127       -0.5597  -10.1010  -49.8460 H         1 UNK         0.0600 
    128 H128        0.9990  -10.7579  -50.3559 H         1 UNK         0.0600 
    129 H129        0.8810   -9.8224  -48.8623 H         1 UNK         0.0600 
    130 H130        1.1608  -12.9467  -49.9706 H         1 UNK         0.3000 
    131 H131        0.8063  -14.1293  -47.4616 H         1 UNK         0.0600 
    132 H132        0.8521  -15.7838  -50.0300 H         1 UNK         0.0800 
    133 H133        2.2567  -14.8869  -49.5191 H         1 UNK         0.0800 
    134 H134        3.9736  -16.5975  -49.0626 H         1 UNK         0.0800 
    135 H135        3.7647  -18.0421  -48.1064 H         1 UNK         0.0800 
    136 H136        3.5172  -16.6802  -51.4422 H         1 UNK         0.1150 
    137 H137        1.9120  -20.2582  -53.1741 H         1 UNK         0.1150 
    138 H138        2.1055  -19.8215  -48.9109 H         1 UNK         0.1150 
    139 H139        0.5247  -21.5598  -50.1324 H         1 UNK         0.0800 
    140 H140        0.8763  -21.9060  -51.8009 H         1 UNK         0.0800 
    141 H141        1.8579  -21.9439  -48.2628 H         1 UNK         0.0800 
    142 H142        3.5812  -21.7933  -48.4609 H         1 UNK         0.0800 
    143 H143        3.9039  -24.1716  -47.9592 H         1 UNK         0.0600 
    144 H144        2.3246  -22.6073  -45.9973 H         1 UNK         0.3000 
    145 H145        3.7937  -24.0490  -43.2074 H         1 UNK         0.0600 
    146 H146        4.8642  -21.8570  -42.6730 H         1 UNK         0.0600 
    147 H147        5.8472  -22.7946  -43.7872 H         1 UNK         0.0600 
    148 H148        4.8946  -21.4438  -44.3871 H         1 UNK         0.0600 
    149 H149        2.4762  -21.5084  -43.8733 H         1 UNK         0.3000 
    150 H150       -0.7948  -22.7640  -43.5767 H         1 UNK         0.0600 
    151 H151       -0.2621  -22.6714  -41.1361 H         1 UNK         0.0600 
    152 H152       -1.1204  -21.2341  -41.6676 H         1 UNK         0.0600 
    153 H153        0.6184  -21.1671  -41.3826 H         1 UNK         0.0600 
    154 H154       -0.0768  -20.0957  -43.5552 H         1 UNK         0.3000 
    155 H155        0.9462  -19.5480  -46.9050 H         1 UNK         0.0600 
    156 H156       -1.0109  -17.9600  -46.7072 H         1 UNK         0.0600 
    157 H157       -1.6980  -19.0062  -45.4621 H         1 UNK         0.0600 
    158 H158       -1.4905  -19.6054  -47.0908 H         1 UNK         0.0600 
    159 H159        0.5083  -17.7174  -44.8132 H         1 UNK         0.3000 
    160 H160        3.6920  -17.9194  -43.2197 H         1 UNK         0.0600 
    161 H161        2.5045  -15.8235  -45.1137 H         1 UNK         0.0600 
    162 H162        3.7234  -15.5281  -43.8765 H         1 UNK         0.0600 
    163 H163        4.0962  -16.5534  -45.2552 H         1 UNK         0.0600 
    164 H164        1.1870  -16.3682  -43.0958 H         1 UNK         0.3000 
    165 H165       -0.1185  -18.2417  -40.3732 H         1 UNK         0.0600 
    166 H166       -0.1471  -16.0726  -39.1677 H         1 UNK         0.0600 
    167 H167        1.4748  -16.7462  -39.1559 H         1 UNK         0.0600 
    168 H168        1.0865  -15.4231  -40.2492 H         1 UNK         0.0600 
    169 H169       -0.9603  -15.7987  -41.5877 H         1 UNK         0.3000 
    170 H170       -2.4022  -17.0510  -44.5175 H         1 UNK         0.0600 
    171 H171       -4.1657  -17.8334  -42.9234 H         1 UNK         0.0600 
    172 H172       -3.9972  -16.3427  -42.0025 H         1 UNK         0.0600 
    173 H173       -4.5914  -16.2981  -43.6629 H         1 UNK         0.0600 
    174 H174       -2.8824  -14.5598  -43.4670 H         1 UNK         0.3000 
    175 H175       -1.2378  -12.7400  -43.2628 H         1 UNK         0.0600 
    176 H176        0.8618  -12.9937  -45.4753 H         1 UNK         0.0600 
    177 H177        0.4985  -11.5396  -44.5523 H         1 UNK         0.0600 
    178 H178        1.1901  -12.9413  -43.7493 H         1 UNK         0.0600 
    179 H179       -1.4173  -12.4206  -46.1443 H         1 UNK         0.3000 
    180 H180       -5.0088  -12.2776  -46.2048 H         1 UNK         0.0600 
    181 H181       -2.7496  -10.2691  -46.7139 H         1 UNK         0.0600 
    182 H182       -4.1374  -10.0186  -45.6624 H         1 UNK         0.0600 
    183 H183       -4.3733  -10.1946  -47.3945 H         1 UNK         0.0600 
    184 H184       -2.6096  -12.4289  -47.9630 H         1 UNK         0.3000 
    185 H185       -3.4717  -15.6098  -49.1706 H         1 UNK         0.0600 
    186 H186       -5.0058  -14.2636  -50.6282 H         1 UNK         0.0600 
    187 H187       -3.7689  -13.0222  -50.7865 H         1 UNK         0.0600 
    188 H188       -3.4961  -14.6401  -51.4391 H         1 UNK         0.0600 
    189 H189       -1.5271  -13.7008  -50.0323 H         1 UNK         0.3000 
    190 H190        0.5014  -23.6392  -46.8510 H         1 UNK         0.3000 
    191 H191       -0.2390  -26.3667  -47.8001 H         1 UNK         0.0600 
    192 H192       -1.0192  -24.7403  -49.5198 H         1 UNK         0.0600 
    193 H193       -2.3965  -25.3524  -48.6160 H         1 UNK         0.0600 
    194 H194       -1.7674  -23.7423  -48.2786 H         1 UNK         0.0600 
    195 H195       -1.6228  -27.4252  -46.4123 H         1 UNK         0.3000 
    196 H196       -1.8377  -26.4433  -43.7063 H         1 UNK         0.0600 
    197 H197       -2.9325  -28.6500  -43.3221 H         1 UNK         0.0600 
    198 H198       -1.4461  -28.8380  -44.2372 H         1 UNK         0.0600 
    199 H199       -3.0057  -28.9368  -45.0563 H         1 UNK         0.0600 
    200 H200       -3.9107  -26.2563  -46.4753 H         1 UNK         0.3000 
    201 H201       -6.4429  -26.2414  -45.2978 H         1 UNK         0.0600 
    202 H202       -6.3044  -26.6169  -47.6274 H         1 UNK         0.0600 
    203 H203       -5.4473  -25.1199  -47.9431 H         1 UNK         0.0600 
    204 H204       -7.1426  -25.0857  -47.4626 H         1 UNK         0.0600 
    205 H205       -5.5209  -22.2504  -44.8757 H         1 UNK         0.3000 
    206 H206       -3.7386  -23.8062  -46.6291 H         1 UNK         0.0600 
    207 H207       -2.8397  -22.2109  -44.9062 H         1 UNK         0.0600 
    208 H208       -2.3897  -21.7787  -46.5430 H         1 UNK         0.0600 
    209 H209       -3.6674  -20.8846  -45.7207 H         1 UNK         0.0600 
    210 H210       -6.6859  -22.3331  -46.9876 H         1 UNK         0.3000 
    211 H211       -7.9576  -21.6020  -48.6557 H         1 UNK         0.0600 
    212 H212       -5.9687  -23.0953  -50.4493 H         1 UNK         0.0600 
    213 H213       -7.6127  -22.6458  -50.8819 H         1 UNK         0.0600 
    214 H214       -7.3370  -23.8194  -49.6091 H         1 UNK         0.0600 
    215 H215       -6.1923  -19.6811  -47.7397 H         1 UNK         0.3000 
    216 H216       -5.2914  -17.6712  -48.0958 H         1 UNK         0.0600 
    217 H217       -6.2842  -16.2273  -49.8322 H         1 UNK         0.0600 
    218 H218       -7.5423  -17.1779  -49.0615 H         1 UNK         0.0600 
    219 H219       -6.9623  -17.6173  -50.6675 H         1 UNK         0.0600 
    220 H220       -3.4988  -19.4776  -48.5060 H         1 UNK         0.3000 
    221 H221       -1.4946  -19.9888  -49.3406 H         1 UNK         0.0600 
    222 H222       -1.6254  -17.2597  -50.7385 H         1 UNK         0.0600 
    223 H223       -0.9609  -17.5950  -49.1407 H         1 UNK         0.0600 
    224 H224       -0.1872  -18.2458  -50.5714 H         1 UNK         0.0600 
    225 H225       -3.4245  -21.3629  -50.4063 H         1 UNK         0.3000 
    226 H226       -4.1372  -22.6527  -52.0648 H         1 UNK         0.0600 
    227 H227       -1.7508  -23.3869  -52.0480 H         1 UNK         0.0600 
    228 H228       -2.4487  -23.5215  -53.6550 H         1 UNK         0.0600 
    229 H229       -1.3599  -22.1923  -53.2841 H         1 UNK         0.0600 
    230 H230       -5.3905  -20.4186  -52.2805 H         1 UNK         0.3000 
    231 H231       -6.5369  -18.9872  -53.4705 H         1 UNK         0.0600 
    232 H232       -5.9443  -20.7787  -55.8870 H         1 UNK         0.0600 
    233 H233       -7.2543  -19.6140  -55.7503 H         1 UNK         0.0600 
    234 H234       -7.2387  -21.0338  -54.7172 H         1 UNK         0.0600 
    235 H235       -4.1551  -18.0315  -52.8604 H         1 UNK         0.3000 
    236 H236       -2.5917  -16.5391  -53.1881 H         1 UNK         0.0600 
    237 H237       -4.5307  -15.0905  -53.7575 H         1 UNK         0.0600 
    238 H238       -3.0931  -14.5989  -54.6396 H         1 UNK         0.0600 
    239 H239       -4.3606  -15.4962  -55.4642 H         1 UNK         0.0600 
    240 H240       -1.4907  -18.6658  -53.8672 H         1 UNK         0.3000 
    241 H241        0.2407  -19.5546  -54.8575 H         1 UNK         0.0600 
    242 H242       -2.0636  -20.7638  -57.6062 H         1 UNK         0.3800 
    243 H243       -2.3868  -20.2840  -55.9625 H         1 UNK         0.3800 
    244 H244        1.8037  -18.3036  -56.2987 H         1 UNK         0.0800 
    245 H245        0.6224  -17.0705  -56.5857 H         1 UNK         0.0800 
    246 H246        3.1946  -18.6418  -54.5432 H         1 UNK         0.0800 
    247 H247        3.8631  -17.1997  -53.8315 H         1 UNK         0.0800 
@<TRIPOS>BOND
     1    1    2 1    
     2    1  127 1    
     3    1  128 1    
     4    1  129 1    
     5    2    3 2    
     6    2    4 am   BACKBONE|DICT|INTERRES
     7    4    5 1    
     8    4  130 1    
     9    5    6 1    
    10    5   65 1    
    11    5  131 1    
    12    6    7 1    
    13    6  132 1    
    14    6  133 1    
    15    7    8 1    
    16    8    9 1    
    17    8  134 1    
    18    8  135 1    
    19    9   10 ar   
    20    9   14 ar   
    21   10   11 ar   
    22   10  136 1    
    23   11   12 ar   
    24   11  126 1    
    25   12   13 ar   
    26   12  137 1    
    27   13   14 ar   
    28   13   15 1    
    29   14  138 1    
    30   15   16 1    
    31   15  139 1    
    32   15  140 1    
    33   16   17 1    
    34   17   18 1    
    35   17  141 1    
    36   17  142 1    
    37   18   19 1    
    38   18   67 1    
    39   18  143 1    
    40   19   20 am   BACKBONE|DICT|INTERRES
    41   19  144 1    
    42   20   21 2    
    43   20   22 1    
    44   22   23 1    
    45   22   24 1    
    46   22  145 1    
    47   23  146 1    
    48   23  147 1    
    49   23  148 1    
    50   24   25 am   BACKBONE|DICT|INTERRES
    51   24  149 1    
    52   25   26 2    
    53   25   27 1    
    54   27   28 1    
    55   27   29 1    
    56   27  150 1    
    57   28  151 1    
    58   28  152 1    
    59   28  153 1    
    60   29   30 am   BACKBONE|DICT|INTERRES
    61   29  154 1    
    62   30   31 2    
    63   30   32 1    
    64   32   33 1    
    65   32   34 1    
    66   32  155 1    
    67   33  156 1    
    68   33  157 1    
    69   33  158 1    
    70   34   35 am   BACKBONE|DICT|INTERRES
    71   34  159 1    
    72   35   36 2    
    73   35   37 1    
    74   37   38 1    
    75   37   39 1    
    76   37  160 1    
    77   38  161 1    
    78   38  162 1    
    79   38  163 1    
    80   39   40 am   BACKBONE|DICT|INTERRES
    81   39  164 1    
    82   40   41 2    
    83   40   42 1    
    84   42   43 1    
    85   42   44 1    
    86   42  165 1    
    87   43  166 1    
    88   43  167 1    
    89   43  168 1    
    90   44   45 am   BACKBONE|DICT|INTERRES
    91   44  169 1    
    92   45   46 2    
    93   45   47 1    
    94   47   48 1    
    95   47   49 1    
    96   47  170 1    
    97   48  171 1    
    98   48  172 1    
    99   48  173 1    
   100   49   50 am   BACKBONE|DICT|INTERRES
   101   49  174 1    
   102   50   51 2    
   103   50   52 1    
   104   52   53 1    
   105   52   54 1    
   106   52  175 1    
   107   53  176 1    
   108   53  177 1    
   109   53  178 1    
   110   54   55 am   BACKBONE|DICT|INTERRES
   111   54  179 1    
   112   55   56 2    
   113   55   57 1    
   114   57   58 1    
   115   57   59 1    
   116   57  180 1    
   117   58  181 1    
   118   58  182 1    
   119   58  183 1    
   120   59   60 am   BACKBONE|DICT|INTERRES
   121   59  184 1    
   122   60   61 2    
   123   60   62 1    
   124   62   63 1    
   125   62   64 1    
   126   62  185 1    
   127   63  186 1    
   128   63  187 1    
   129   63  188 1    
   130   64   65 am   BACKBONE|DICT|INTERRES
   131   64  189 1    
   132   65   66 2    
   133   67   68 2    
   134   67   69 am   BACKBONE|DICT|INTERRES
   135   69   70 1    
   136   69  190 1    
   137   70   71 1    
   138   70   72 1    
   139   70  191 1    
   140   71  192 1    
   141   71  193 1    
   142   71  194 1    
   143   72   73 2    
   144   72   74 am   BACKBONE|DICT|INTERRES
   145   74   75 1    
   146   74  195 1    
   147   75   76 1    
   148   75   77 1    
   149   75  196 1    
   150   76  197 1    
   151   76  198 1    
   152   76  199 1    
   153   77   78 2    
   154   77   79 am   BACKBONE|DICT|INTERRES
   155   79   80 1    
   156   79  200 1    
   157   80   81 1    
   158   80   82 1    
   159   80  201 1    
   160   81  202 1    
   161   81  203 1    
   162   81  204 1    
   163   82   83 2    
   164   82   84 am   BACKBONE|DICT|INTERRES
   165   84   85 1    
   166   84  205 1    
   167   85   86 1    
   168   85   87 1    
   169   85  206 1    
   170   86  207 1    
   171   86  208 1    
   172   86  209 1    
   173   87   88 2    
   174   87   89 am   BACKBONE|DICT|INTERRES
   175   89   90 1    
   176   89  210 1    
   177   90   91 1    
   178   90   92 1    
   179   90  211 1    
   180   91  212 1    
   181   91  213 1    
   182   91  214 1    
   183   92   93 2    
   184   92   94 am   BACKBONE|DICT|INTERRES
   185   94   95 1    
   186   94  215 1    
   187   95   96 1    
   188   95   97 1    
   189   95  216 1    
   190   96  217 1    
   191   96  218 1    
   192   96  219 1    
   193   97   98 2    
   194   97   99 am   BACKBONE|DICT|INTERRES
   195   99  100 1    
   196   99  220 1    
   197  100  101 1    
   198  100  102 1    
   199  100  221 1    
   200  101  222 1    
   201  101  223 1    
   202  101  224 1    
   203  102  103 2    
   204  102  104 am   BACKBONE|DICT|INTERRES
   205  104  105 1    
   206  104  225 1    
   207  105  106 1    
   208  105  107 1    
   209  105  226 1    
   210  106  227 1    
   211  106  228 1    
   212  106  229 1    
   213  107  108 2    
   214  107  109 am   BACKBONE|DICT|INTERRES
   215  109  110 1    
   216  109  230 1    
   217  110  111 1    
   218  110  112 1    
   219  110  231 1    
   220  111  232 1    
   221  111  233 1    
   222  111  234 1    
   223  112  113 2    
   224  112  114 am   BACKBONE|DICT|INTERRES
   225  114  115 1    
   226  114  235 1    
   227  115  116 1    
   228  115  117 1    
   229  115  236 1    
   230  116  237 1    
   231  116  238 1    
   232  116  239 1    
   233  117  118 2    
   234  117  119 am   BACKBONE|DICT|INTERRES
   235  119  120 1    
   236  119  240 1    
   237  120  121 1    
   238  120  124 1    
   239  120  241 1    
   240  121  122 am   BACKBONE|DICT|INTERRES
   241  121  123 2    
   242  122  242 1    
   243  122  243 1    
   244  124  125 1    
   245  124  244 1    
   246  124  245 1    
   247  125  126 1    
   248  126  246 1    
   249  126  247 1    
@<TRIPOS>SUBSTRUCTURE
     1 UNK         1 GROUP             0       ****    0 ROOT    
