@<TRIPOS>MOLECULE
3R540
247   249    1
SMALL
USER_CHARGES


@<TRIPOS>ATOM
      1 CA         -3.8876  -16.3681  -47.0642 C.3       0 UNK        -0.1800 
      2 C          -2.4023  -16.0482  -47.1449 C.2       0 UNK         0.5000 
      3 O          -1.7131  -16.0870  -46.1257 O.2       0 UNK        -0.5000 
      4 N          -1.9055  -15.7326  -48.3502 N.am      1 UNK        -0.5000 
      5 CA         -0.5133  -15.3580  -48.6279 C.3       1 UNK         0.1400 
      6 C6          0.4564  -16.5493  -48.3808 C.3       23 UNK        -0.0398 
      7 S7          2.1060  -16.3490  -49.1415 S.3       23 UNK        -0.2404 
      8 C8          1.8362  -16.9073  -50.8555 C.3       23 UNK        -0.0205 
      9 C9          1.3224  -18.3371  -50.9364 C.ar      23 UNK        -0.0193 
     10 C10         0.0271  -18.5888  -51.3985 C.ar      23 UNK        -0.1150 
     11 C11        -0.4538  -19.8973  -51.4789 C.ar      23 UNK        -0.0193 
     12 C12         0.3629  -20.9528  -51.0679 C.ar      23 UNK        -0.1150 
     13 C13         1.6606  -20.7201  -50.6044 C.ar      23 UNK        -0.0193 
     14 C14         2.1406  -19.4064  -50.5575 C.ar      23 UNK        -0.1150 
     15 C15         2.5302  -21.9088  -50.2012 C.3       23 UNK        -0.0205 
     16 S16         3.5100  -21.6824  -48.6752 S.3       23 UNK        -0.2404 
     17 C17         2.3002  -21.0651  -47.4576 C.3       23 UNK        -0.0398 
     18 CA          1.3497  -22.1516  -46.8848 C.3       11 UNK         0.1400 
     19 N           1.0720  -21.9339  -45.4621 N.am      11 UNK        -0.5000 
     20 C           0.4469  -22.8011  -44.6519 C.2       10 UNK         0.5000 
     21 O           0.0822  -23.9226  -45.0025 O.2       10 UNK        -0.5000 
     22 CA          0.1369  -22.3175  -43.2210 C.3       10 UNK         0.1400 
     23 CB          1.3065  -22.6390  -42.2794 C.3       10 UNK        -0.1800 
     24 N          -0.1522  -20.8842  -43.1538 N.am      10 UNK        -0.5000 
     25 C          -1.2053  -20.2871  -43.7324 C.2       9 UNK         0.5000 
     26 O          -2.0941  -20.8989  -44.3217 O.2       9 UNK        -0.5000 
     27 CA         -1.2377  -18.7462  -43.7066 C.3       9 UNK         0.1400 
     28 CB         -2.0686  -18.2409  -42.5187 C.3       9 UNK        -0.1800 
     29 N           0.0974  -18.1434  -43.6623 N.am      9 UNK        -0.5000 
     30 C           1.0389  -18.3030  -44.6037 C.2       8 UNK         0.5000 
     31 O           0.8569  -18.9379  -45.6428 O.2       8 UNK        -0.5000 
     32 CA          2.4282  -17.7105  -44.3187 C.3       8 UNK         0.1400 
     33 CB          2.6920  -16.4856  -45.1977 C.3       8 UNK        -0.1800 
     34 N           2.6017  -17.3207  -42.9213 N.am      8 UNK        -0.5000 
     35 C           3.0226  -18.1327  -41.9427 C.2       7 UNK         0.5000 
     36 O           3.1940  -19.3423  -42.1001 O.2       7 UNK        -0.5000 
     37 CA          3.2770  -17.4877  -40.5607 C.3       7 UNK         0.1400 
     38 CB          4.4358  -18.1594  -39.7964 C.3       7 UNK        -0.1800 
     39 N           3.4572  -16.0304  -40.6211 N.am      7 UNK        -0.5000 
     40 C           4.4216  -15.3396  -41.2527 C.2       6 UNK         0.5000 
     41 O           5.3983  -15.8635  -41.7888 O.2       6 UNK        -0.5000 
     42 CA          4.2415  -13.8105  -41.3545 C.3       6 UNK         0.1400 
     43 CB          4.1829  -13.3809  -42.8290 C.3       6 UNK        -0.1800 
     44 N           3.0104  -13.3579  -40.7055 N.am      6 UNK        -0.5000 
     45 C           2.9326  -12.8294  -39.4771 C.2       5 UNK         0.5000 
     46 O           3.9111  -12.5912  -38.7687 O.2       5 UNK        -0.5000 
     47 CA          1.5156  -12.5497  -38.9343 C.3       5 UNK         0.1400 
     48 CB          1.0908  -11.1099  -39.2603 C.3       5 UNK        -0.1800 
     49 N           0.5030  -13.4738  -39.4533 N.am      5 UNK        -0.5000 
     50 C           0.4892  -14.7987  -39.2475 C.2       4 UNK         0.5000 
     51 O           1.3074  -15.3871  -38.5422 O.2       4 UNK        -0.5000 
     52 CA         -0.5711  -15.6184  -40.0053 C.3       4 UNK         0.1400 
     53 CB         -1.7682  -15.9296  -39.0957 C.3       4 UNK        -0.1800 
     54 N          -1.0544  -14.9743  -41.2288 N.am      4 UNK        -0.5000 
     55 C          -0.3180  -14.7136  -42.3174 C.2       3 UNK         0.5000 
     56 O           0.8838  -14.9843  -42.4044 O.2       3 UNK        -0.5000 
     57 CA         -1.0868  -14.0787  -43.4914 C.3       3 UNK         0.1400 
     58 CB         -1.8310  -12.7902  -43.0774 C.3       3 UNK        -0.1800 
     59 N          -0.2684  -13.8578  -44.6861 N.am      3 UNK        -0.5000 
     60 C           0.6981  -12.9461  -44.8813 C.2       2 UNK         0.5000 
     61 O           1.0663  -12.1458  -44.0205 O.2       2 UNK        -0.5000 
     62 CA          1.3576  -12.8984  -46.2812 C.3       2 UNK         0.1400 
     63 CB          2.8933  -12.8652  -46.1984 C.3       2 UNK        -0.1800 
     64 N           0.9540  -14.0048  -47.1552 N.am      2 UNK        -0.5000 
     65 C          -0.1658  -14.0395  -47.8886 C.2       1 UNK         0.5000 
     66 O          -0.9425  -13.0856  -47.9736 O.2       1 UNK        -0.5000 
     67 C           0.0308  -22.2103  -47.6776 C.2       11 UNK         0.5000 
     68 O          -0.1893  -23.1475  -48.4456 O.2       11 UNK        -0.5000 
     69 N          -0.8439  -21.2243  -47.4296 N.am      12 UNK        -0.5000 
     70 CA         -2.1726  -21.1373  -48.0285 C.3       12 UNK         0.1400 
     71 CB         -2.8048  -19.7793  -47.6983 C.3       12 UNK        -0.1800 
     72 C          -3.0852  -22.3034  -47.6132 C.2       12 UNK         0.5000 
     73 O          -3.7729  -22.8574  -48.4687 O.2       12 UNK        -0.5000 
     74 N          -3.0399  -22.6899  -46.3305 N.am      13 UNK        -0.5000 
     75 CA         -3.7590  -23.8398  -45.7800 C.3       13 UNK         0.1400 
     76 CB         -3.6006  -23.8712  -44.2532 C.3       13 UNK        -0.1800 
     77 C          -3.3172  -25.1773  -46.4013 C.2       13 UNK         0.5000 
     78 O          -4.1740  -25.9940  -46.7400 O.2       13 UNK        -0.5000 
     79 N          -2.0020  -25.3610  -46.5933 N.am      14 UNK        -0.5000 
     80 CA         -1.4172  -26.5232  -47.2716 C.3       14 UNK         0.1400 
     81 CB          0.1117  -26.4890  -47.1271 C.3       14 UNK        -0.1800 
     82 C          -1.8234  -26.6243  -48.7558 C.2       14 UNK         0.5000 
     83 O          -1.9846  -27.7314  -49.2696 O.2       14 UNK        -0.5000 
     84 N          -2.0264  -25.4681  -49.3993 N.am      15 UNK        -0.5000 
     85 CA         -2.5498  -25.3301  -50.7590 C.3       15 UNK         0.1400 
     86 CB         -1.9844  -24.0372  -51.3653 C.3       15 UNK        -0.1800 
     87 C          -4.0932  -25.3522  -50.8291 C.2       15 UNK         0.5000 
     88 O          -4.6438  -25.1162  -51.9046 O.2       15 UNK        -0.5000 
     89 N          -4.7710  -25.6107  -49.6991 N.am      16 UNK        -0.5000 
     90 CA         -6.2277  -25.6876  -49.5303 C.3       16 UNK         0.1400 
     91 CB         -6.7984  -26.9031  -50.2902 C.3       16 UNK        -0.1800 
     92 C          -6.9619  -24.3703  -49.8656 C.2       16 UNK         0.5000 
     93 O          -8.1062  -24.4010  -50.3218 O.2       16 UNK        -0.5000 
     94 N          -6.2829  -23.2376  -49.6313 N.am      17 UNK        -0.5000 
     95 CA         -6.7173  -21.8587  -49.8712 C.3       17 UNK         0.1400 
     96 CB         -7.8984  -21.4874  -48.9512 C.3       17 UNK        -0.1800 
     97 C          -6.9867  -21.5325  -51.3561 C.2       17 UNK         0.5000 
     98 O          -7.7343  -20.5970  -51.6498 O.2       17 UNK        -0.5000 
     99 N          -6.3562  -22.2769  -52.2765 N.am      18 UNK        -0.5000 
    100 CA        -6.4703  -22.1156  -53.7280 C.3       18 UNK         0.1400 
    101 CB        -6.0626  -23.4346  -54.4078 C.3       18 UNK        -0.1800 
    102 C         -5.6593  -20.9110  -54.2518 C.2       18 UNK         0.5000 
    103 O         -4.8083  -21.0687  -55.1273 O.2       18 UNK        -0.5000 
    104 N         -5.9399  -19.7153  -53.7171 N.am      19 UNK        -0.5000 
    105 CA        -5.2421  -18.4576  -54.0050 C.3       19 UNK         0.1400 
    106 CB        -5.8541  -17.3362  -53.1539 C.3       19 UNK        -0.1800 
    107 C         -5.2233  -18.0637  -55.4957 C.2       19 UNK         0.5000 
    108 O         -4.2497  -17.4640  -55.9531 O.2       19 UNK        -0.5000 
    109 N         -6.2715  -18.4533  -56.2342 N.am      20 UNK        -0.5000 
    110 CA        -6.3831  -18.2891  -57.6843 C.3       20 UNK         0.1400 
    111 CB        -7.8186  -18.6261  -58.1153 C.3       20 UNK        -0.1800 
    112 C         -5.3680  -19.1353  -58.4807 C.2       20 UNK         0.5000 
    113 O         -4.9854  -18.7322  -59.5799 O.2       20 UNK        -0.5000 
    114 N         -4.9450  -20.2777  -57.9203 N.am      21 UNK        -0.5000 
    115 CA        -3.8903  -21.1253  -58.4750 C.3       21 UNK         0.1400 
    116 CB        -4.1336  -22.5887  -58.0721 C.3       21 UNK        -0.1800 
    117 C         -2.5005  -20.6523  -58.0149 C.2       21 UNK         0.5000 
    118 O         -1.5551  -20.7135  -58.8023 O.2       21 UNK        -0.5000 
    119 N         -2.4016  -20.1820  -56.7627 N.am      22 UNK        -0.5000 
    120 CA        -1.1783  -19.6015  -56.1830 C.3       22 UNK         0.1400 
    121 C         -0.7272  -18.2874  -56.8806 C.2       22 UNK         0.5000 
    122 N         -1.6408  -17.3760  -57.1930 N.am      22 UNK        -0.7600 
    123 O          0.4576  -18.0945  -57.1388 O.2       22 UNK        -0.5000 
    124 C124       -1.2900  -19.3653  -54.6560 C.3       23 UNK        -0.0398 
    125 S125       -1.7702  -20.8519  -53.7161 S.3       23 UNK        -0.2404 
    126 C126       -1.8449  -20.1780  -52.0275 C.3       23 UNK        -0.0205 
    127 H127       -4.3293  -16.4918  -48.0532 H         1 UNK         0.0600 
    128 H128       -4.4146  -15.5647  -46.5498 H         1 UNK         0.0600 
    129 H129       -4.0438  -17.2903  -46.5049 H         1 UNK         0.0600 
    130 H130       -2.5326  -15.6775  -49.1401 H         1 UNK         0.3000 
    131 H131       -0.4813  -15.1202  -49.6920 H         1 UNK         0.0600 
    132 H132        0.5814  -16.7316  -47.3138 H         1 UNK         0.0800 
    133 H133        0.0118  -17.4694  -48.7597 H         1 UNK         0.0800 
    134 H134        1.1500  -16.2188  -51.3507 H         1 UNK         0.0800 
    135 H135        2.7793  -16.8385  -51.3993 H         1 UNK         0.0800 
    136 H136       -0.6035  -17.7669  -51.7072 H         1 UNK         0.1150 
    137 H137       -0.0106  -21.9639  -51.1268 H         1 UNK         0.1150 
    138 H138        3.1457  -19.2116  -50.2109 H         1 UNK         0.1150 
    139 H139        1.9195  -22.8048  -50.0821 H         1 UNK         0.0800 
    140 H140        3.2169  -22.1221  -51.0211 H         1 UNK         0.0800 
    141 H141        2.9035  -20.6475  -46.6503 H         1 UNK         0.0800 
    142 H142        1.7607  -20.2080  -47.8645 H         1 UNK         0.0800 
    143 H143        1.8338  -23.1272  -46.9680 H         1 UNK         0.0600 
    144 H144        1.2651  -21.0045  -45.1142 H         1 UNK         0.3000 
    145 H145       -0.7441  -22.8567  -42.8683 H         1 UNK         0.0600 
    146 H146        1.0696  -22.3702  -41.2499 H         1 UNK         0.0600 
    147 H147        1.5361  -23.7054  -42.2918 H         1 UNK         0.0600 
    148 H148        2.2131  -22.1037  -42.5653 H         1 UNK         0.0600 
    149 H149        0.5372  -20.3059  -42.6958 H         1 UNK         0.3000 
    150 H150       -1.7222  -18.4172  -44.6282 H         1 UNK         0.0600 
    151 H151       -3.0528  -18.7112  -42.5017 H         1 UNK         0.0600 
    152 H152       -2.2311  -17.1661  -42.5840 H         1 UNK         0.0600 
    153 H153       -1.5852  -18.4554  -41.5650 H         1 UNK         0.0600 
    154 H154        0.3324  -17.5973  -42.8475 H         1 UNK         0.3000 
    155 H155        3.1687  -18.4722  -44.5722 H         1 UNK         0.0600 
    156 H156        3.6652  -16.0471  -44.9760 H         1 UNK         0.0600 
    157 H157        1.9322  -15.7204  -45.0453 H         1 UNK         0.0600 
    158 H158        2.6967  -16.7595  -46.2516 H         1 UNK         0.0600 
    159 H159        2.3935  -16.3539  -42.6957 H         1 UNK         0.3000 
    160 H160        2.3667  -17.6533  -39.9833 H         1 UNK         0.0600 
    161 H161        5.3723  -18.1110  -40.3525 H         1 UNK         0.0600 
    162 H162        4.2229  -19.2127  -39.6102 H         1 UNK         0.0600 
    163 H163        4.5949  -17.6862  -38.8275 H         1 UNK         0.0600 
    164 H164        2.7293  -15.4951  -40.1658 H         1 UNK         0.3000 
    165 H165        5.1128  -13.3422  -40.8925 H         1 UNK         0.0600 
    166 H166        3.3498  -13.8581  -43.3457 H         1 UNK         0.0600 
    167 H167        4.0585  -12.3019  -42.9226 H         1 UNK         0.0600 
    168 H168        5.0974  -13.6500  -43.3587 H         1 UNK         0.0600 
    169 H169        2.1548  -13.5284  -41.2202 H         1 UNK         0.3000 
    170 H170        1.5489  -12.6624  -37.8487 H         1 UNK         0.0600 
    171 H171        1.8122  -10.3915  -38.8687 H         1 UNK         0.0600 
    172 H172        1.0156  -10.9467  -40.3364 H         1 UNK         0.0600 
    173 H173        0.1241  -10.8729  -38.8155 H         1 UNK         0.0600 
    174 H174       -0.2074  -13.0772  -40.0503 H         1 UNK         0.3000 
    175 H175       -0.1058  -16.5643  -40.2900 H         1 UNK         0.0600 
    176 H176       -2.2938  -15.0217  -38.7972 H         1 UNK         0.0600 
    177 H177       -2.4832  -16.5842  -39.5946 H         1 UNK         0.0600 
    178 H178       -1.4463  -16.4373  -38.1853 H         1 UNK         0.0600 
    179 H179       -2.0334  -14.7269  -41.2372 H         1 UNK         0.3000 
    180 H180       -1.8396  -14.8097  -43.7882 H         1 UNK         0.0600 
    181 H181       -1.1608  -12.0568  -42.6281 H         1 UNK         0.0600 
    182 H182       -2.6165  -12.9989  -42.3508 H         1 UNK         0.0600 
    183 H183       -2.3115  -12.3212  -43.9362 H         1 UNK         0.0600 
    184 H184       -0.4805  -14.4927  -45.4465 H         1 UNK         0.3000 
    185 H185        1.0396  -11.9583  -46.7364 H         1 UNK         0.0600 
    186 H186        3.3356  -12.7406  -47.1869 H         1 UNK         0.0600 
    187 H187        3.2383  -12.0315  -45.5857 H         1 UNK         0.0600 
    188 H188        3.2990  -13.7782  -45.7669 H         1 UNK         0.0600 
    189 H189        1.5633  -14.8102  -47.1695 H         1 UNK         0.3000 
    190 H190       -0.5849  -20.4987  -46.7742 H         1 UNK         0.3000 
    191 H191       -2.0461  -21.1939  -49.1098 H         1 UNK         0.0600 
    192 H192       -2.1893  -18.9623  -48.0749 H         1 UNK         0.0600 
    193 H193       -3.7893  -19.6840  -48.1581 H         1 UNK         0.0600 
    194 H194       -2.9279  -19.6405  -46.6240 H         1 UNK         0.0600 
    195 H195       -2.5018  -22.1330  -45.6713 H         1 UNK         0.3000 
    196 H196       -4.8184  -23.7036  -46.0074 H         1 UNK         0.0600 
    197 H197       -4.1673  -24.6957  -43.8191 H         1 UNK         0.0600 
    198 H198       -3.9664  -22.9502  -43.7989 H         1 UNK         0.0600 
    199 H199       -2.5589  -23.9995  -43.9603 H         1 UNK         0.0600 
    200 H200       -1.3501  -24.6625  -46.2509 H         1 UNK         0.3000 
    201 H201       -1.7845  -27.4205  -46.7695 H         1 UNK         0.0600 
    202 H202        0.4084  -26.5090  -46.0784 H         1 UNK         0.0600 
    203 H203        0.5400  -25.5939  -47.5785 H         1 UNK         0.0600 
    204 H204        0.5699  -27.3525  -47.6108 H         1 UNK         0.0600 
    205 H205       -1.8288  -24.6052  -48.9061 H         1 UNK         0.3000 
    206 H206       -2.1944  -26.1659  -51.3647 H         1 UNK         0.0600 
    207 H207       -0.8958  -24.0716  -51.3997 H         1 UNK         0.0600 
    208 H208       -2.3346  -23.8840  -52.3870 H         1 UNK         0.0600 
    209 H209       -2.2763  -23.1652  -50.7813 H         1 UNK         0.0600 
    210 H210       -4.2381  -25.7535  -48.8496 H         1 UNK         0.3000 
    211 H211       -6.3974  -25.8587  -48.4666 H         1 UNK         0.0600 
    212 H212       -6.7269  -26.7754  -51.3708 H         1 UNK         0.0600 
    213 H213       -7.8505  -27.0579  -50.0486 H         1 UNK         0.0600 
    214 H214       -6.2686  -27.8179  -50.0243 H         1 UNK         0.0600 
    215 H215       -5.3397  -23.3180  -49.2530 H         1 UNK         0.3000 
    216 H216       -5.8733  -21.2307  -49.5830 H         1 UNK         0.0600 
    217 H217       -7.6712  -21.7120  -47.9091 H         1 UNK         0.0600 
    218 H218       -8.8072  -22.0258  -49.2211 H         1 UNK         0.0600 
    219 H219       -8.1214  -20.4214  -49.0096 H         1 UNK         0.0600 
    220 H220       -5.7581  -23.0298  -51.9601 H         1 UNK         0.3000 
    221 H221       -7.5174  -21.9290  -53.9748 H         1 UNK         0.0600 
    222 H222       -5.0114  -23.6677  -54.2325 H         1 UNK         0.0600 
    223 H223       -6.6563  -24.2706  -54.0374 H         1 UNK         0.0600 
    224 H224       -6.2118  -23.3825  -55.4870 H         1 UNK         0.0600 
    225 H225       -6.6582  -19.6889  -52.9993 H         1 UNK         0.3000 
    226 H226       -4.2063  -18.5898  -53.6923 H         1 UNK         0.0600 
    227 H227       -5.7766  -17.5616  -52.0900 H         1 UNK         0.0600 
    228 H228       -5.3383  -16.3900  -53.3234 H         1 UNK         0.0600 
    229 H229       -6.9081  -17.1837  -53.3890 H         1 UNK         0.0600 
    230 H230       -7.0234  -18.9434  -55.7725 H         1 UNK         0.3000 
    231 H231       -6.1925  -17.2399  -57.9198 H         1 UNK         0.0600 
    232 H232       -7.9465  -18.4877  -59.1898 H         1 UNK         0.0600 
    233 H233       -8.5424  -17.9804  -57.6177 H         1 UNK         0.0600 
    234 H234       -8.0754  -19.6609  -57.8848 H         1 UNK         0.0600 
    235 H235       -5.2536  -20.5132  -56.9837 H         1 UNK         0.3000 
    236 H236       -3.9205  -21.0730  -59.5656 H         1 UNK         0.0600 
    237 H237       -5.1216  -22.9257  -58.3856 H         1 UNK         0.0600 
    238 H238       -3.4010  -23.2455  -58.5424 H         1 UNK         0.0600 
    239 H239       -4.0551  -22.7353  -56.9948 H         1 UNK         0.0600 
    240 H240       -3.2095  -20.2408  -56.1540 H         1 UNK         0.3000 
    241 H241       -0.3813  -20.3314  -56.3386 H         1 UNK         0.0600 
    242 H242       -1.3565  -16.5243  -57.6494 H         1 UNK         0.3800 
    243 H243       -2.6095  -17.4929  -56.9065 H         1 UNK         0.3800 
    244 H244       -2.0081  -18.5724  -54.4455 H         1 UNK         0.0800 
    245 H245       -0.3309  -19.0193  -54.2666 H         1 UNK         0.0800 
    246 H246       -2.4583  -19.2762  -52.0163 H         1 UNK         0.0800 
    247 H247       -2.3556  -20.8973  -51.3889 H         1 UNK         0.0800 
@<TRIPOS>BOND
     1    1    2 1    
     2    1  127 1    
     3    1  128 1    
     4    1  129 1    
     5    2    3 2    
     6    2    4 am   BACKBONE|DICT|INTERRES
     7    4    5 1    
     8    4  130 1    
     9    5    6 1    
    10    5   65 1    
    11    5  131 1    
    12    6    7 1    
    13    6  132 1    
    14    6  133 1    
    15    7    8 1    
    16    8    9 1    
    17    8  134 1    
    18    8  135 1    
    19    9   10 ar   
    20    9   14 ar   
    21   10   11 ar   
    22   10  136 1    
    23   11   12 ar   
    24   11  126 1    
    25   12   13 ar   
    26   12  137 1    
    27   13   14 ar   
    28   13   15 1    
    29   14  138 1    
    30   15   16 1    
    31   15  139 1    
    32   15  140 1    
    33   16   17 1    
    34   17   18 1    
    35   17  141 1    
    36   17  142 1    
    37   18   19 1    
    38   18   67 1    
    39   18  143 1    
    40   19   20 am   BACKBONE|DICT|INTERRES
    41   19  144 1    
    42   20   21 2    
    43   20   22 1    
    44   22   23 1    
    45   22   24 1    
    46   22  145 1    
    47   23  146 1    
    48   23  147 1    
    49   23  148 1    
    50   24   25 am   BACKBONE|DICT|INTERRES
    51   24  149 1    
    52   25   26 2    
    53   25   27 1    
    54   27   28 1    
    55   27   29 1    
    56   27  150 1    
    57   28  151 1    
    58   28  152 1    
    59   28  153 1    
    60   29   30 am   BACKBONE|DICT|INTERRES
    61   29  154 1    
    62   30   31 2    
    63   30   32 1    
    64   32   33 1    
    65   32   34 1    
    66   32  155 1    
    67   33  156 1    
    68   33  157 1    
    69   33  158 1    
    70   34   35 am   BACKBONE|DICT|INTERRES
    71   34  159 1    
    72   35   36 2    
    73   35   37 1    
    74   37   38 1    
    75   37   39 1    
    76   37  160 1    
    77   38  161 1    
    78   38  162 1    
    79   38  163 1    
    80   39   40 am   BACKBONE|DICT|INTERRES
    81   39  164 1    
    82   40   41 2    
    83   40   42 1    
    84   42   43 1    
    85   42   44 1    
    86   42  165 1    
    87   43  166 1    
    88   43  167 1    
    89   43  168 1    
    90   44   45 am   BACKBONE|DICT|INTERRES
    91   44  169 1    
    92   45   46 2    
    93   45   47 1    
    94   47   48 1    
    95   47   49 1    
    96   47  170 1    
    97   48  171 1    
    98   48  172 1    
    99   48  173 1    
   100   49   50 am   BACKBONE|DICT|INTERRES
   101   49  174 1    
   102   50   51 2    
   103   50   52 1    
   104   52   53 1    
   105   52   54 1    
   106   52  175 1    
   107   53  176 1    
   108   53  177 1    
   109   53  178 1    
   110   54   55 am   BACKBONE|DICT|INTERRES
   111   54  179 1    
   112   55   56 2    
   113   55   57 1    
   114   57   58 1    
   115   57   59 1    
   116   57  180 1    
   117   58  181 1    
   118   58  182 1    
   119   58  183 1    
   120   59   60 am   BACKBONE|DICT|INTERRES
   121   59  184 1    
   122   60   61 2    
   123   60   62 1    
   124   62   63 1    
   125   62   64 1    
   126   62  185 1    
   127   63  186 1    
   128   63  187 1    
   129   63  188 1    
   130   64   65 am   BACKBONE|DICT|INTERRES
   131   64  189 1    
   132   65   66 2    
   133   67   68 2    
   134   67   69 am   BACKBONE|DICT|INTERRES
   135   69   70 1    
   136   69  190 1    
   137   70   71 1    
   138   70   72 1    
   139   70  191 1    
   140   71  192 1    
   141   71  193 1    
   142   71  194 1    
   143   72   73 2    
   144   72   74 am   BACKBONE|DICT|INTERRES
   145   74   75 1    
   146   74  195 1    
   147   75   76 1    
   148   75   77 1    
   149   75  196 1    
   150   76  197 1    
   151   76  198 1    
   152   76  199 1    
   153   77   78 2    
   154   77   79 am   BACKBONE|DICT|INTERRES
   155   79   80 1    
   156   79  200 1    
   157   80   81 1    
   158   80   82 1    
   159   80  201 1    
   160   81  202 1    
   161   81  203 1    
   162   81  204 1    
   163   82   83 2    
   164   82   84 am   BACKBONE|DICT|INTERRES
   165   84   85 1    
   166   84  205 1    
   167   85   86 1    
   168   85   87 1    
   169   85  206 1    
   170   86  207 1    
   171   86  208 1    
   172   86  209 1    
   173   87   88 2    
   174   87   89 am   BACKBONE|DICT|INTERRES
   175   89   90 1    
   176   89  210 1    
   177   90   91 1    
   178   90   92 1    
   179   90  211 1    
   180   91  212 1    
   181   91  213 1    
   182   91  214 1    
   183   92   93 2    
   184   92   94 am   BACKBONE|DICT|INTERRES
   185   94   95 1    
   186   94  215 1    
   187   95   96 1    
   188   95   97 1    
   189   95  216 1    
   190   96  217 1    
   191   96  218 1    
   192   96  219 1    
   193   97   98 2    
   194   97   99 am   BACKBONE|DICT|INTERRES
   195   99  100 1    
   196   99  220 1    
   197  100  101 1    
   198  100  102 1    
   199  100  221 1    
   200  101  222 1    
   201  101  223 1    
   202  101  224 1    
   203  102  103 2    
   204  102  104 am   BACKBONE|DICT|INTERRES
   205  104  105 1    
   206  104  225 1    
   207  105  106 1    
   208  105  107 1    
   209  105  226 1    
   210  106  227 1    
   211  106  228 1    
   212  106  229 1    
   213  107  108 2    
   214  107  109 am   BACKBONE|DICT|INTERRES
   215  109  110 1    
   216  109  230 1    
   217  110  111 1    
   218  110  112 1    
   219  110  231 1    
   220  111  232 1    
   221  111  233 1    
   222  111  234 1    
   223  112  113 2    
   224  112  114 am   BACKBONE|DICT|INTERRES
   225  114  115 1    
   226  114  235 1    
   227  115  116 1    
   228  115  117 1    
   229  115  236 1    
   230  116  237 1    
   231  116  238 1    
   232  116  239 1    
   233  117  118 2    
   234  117  119 am   BACKBONE|DICT|INTERRES
   235  119  120 1    
   236  119  240 1    
   237  120  121 1    
   238  120  124 1    
   239  120  241 1    
   240  121  122 am   BACKBONE|DICT|INTERRES
   241  121  123 2    
   242  122  242 1    
   243  122  243 1    
   244  124  125 1    
   245  124  244 1    
   246  124  245 1    
   247  125  126 1    
   248  126  246 1    
   249  126  247 1    
@<TRIPOS>SUBSTRUCTURE
     1 UNK         1 GROUP             0       ****    0 ROOT    
