@<TRIPOS>MOLECULE
3R540
247   249    1
SMALL
USER_CHARGES


@<TRIPOS>ATOM
      1 CA         -1.3868   -9.1801  -48.5263 C.3       0 UNK        -0.1800 
      2 C          -1.3033  -10.6709  -48.2317 C.2       0 UNK         0.5000 
      3 O          -2.0837  -11.1763  -47.4271 O.2       0 UNK        -0.5000 
      4 N          -0.3436  -11.3628  -48.8609 N.am      1 UNK        -0.5000 
      5 CA         -0.0582  -12.8074  -48.8110 C.3       1 UNK         0.1400 
      6 C6         -1.2137  -13.6926  -49.3777 C.3       23 UNK        -0.0398 
      7 S7         -2.3471  -14.4820  -48.1699 S.3       23 UNK        -0.2404 
      8 C8         -3.2667  -15.6641  -49.2141 C.3       23 UNK        -0.0205 
      9 C9         -2.3968  -16.6666  -49.9700 C.ar      23 UNK        -0.0193 
     10 C10        -2.7778  -17.0658  -51.2537 C.ar      23 UNK        -0.1150 
     11 C11        -2.0085  -17.9809  -51.9770 C.ar      23 UNK        -0.0193 
     12 C12        -0.8391  -18.4953  -51.4117 C.ar      23 UNK        -0.1150 
     13 C13        -0.4465  -18.1095  -50.1270 C.ar      23 UNK        -0.0193 
     14 C14        -1.2351  -17.2076  -49.4071 C.ar      23 UNK        -0.1150 
     15 C15         0.8238  -18.6732  -49.5060 C.3       23 UNK        -0.0205 
     16 S16         0.7109  -20.4631  -49.1900 S.3       23 UNK        -0.2404 
     17 C17        -0.8984  -20.5796  -48.3429 C.3       23 UNK        -0.0398 
     18 CA         -0.9940  -21.8414  -47.4628 C.3       11 UNK         0.1400 
     19 N          -0.1910  -21.7403  -46.2418 N.am      11 UNK        -0.5000 
     20 C           0.1053  -22.7861  -45.4586 C.2       10 UNK         0.5000 
     21 O          -0.2734  -23.9346  -45.6850 O.2       10 UNK        -0.5000 
     22 CA          0.9209  -22.5008  -44.1881 C.3       10 UNK         0.1400 
     23 CB          2.3988  -22.2614  -44.5310 C.3       10 UNK        -0.1800 
     24 N           0.3958  -21.3661  -43.4309 N.am      10 UNK        -0.5000 
     25 C          -0.8182  -21.3215  -42.8641 C.2       9 UNK         0.5000 
     26 O          -1.6230  -22.2533  -42.8943 O.2       9 UNK        -0.5000 
     27 CA         -1.2213  -19.9916  -42.1991 C.3       9 UNK         0.1400 
     28 CB         -0.5548  -19.8344  -40.8244 C.3       9 UNK        -0.1800 
     29 N          -0.9095  -18.8305  -43.0344 N.am      9 UNK        -0.5000 
     30 C          -1.4441  -18.6100  -44.2443 C.2       8 UNK         0.5000 
     31 O          -2.2813  -19.3413  -44.7684 O.2       8 UNK        -0.5000 
     32 CA         -0.9238  -17.3958  -45.0254 C.3       8 UNK         0.1400 
     33 CB         -1.6647  -16.1180  -44.6085 C.3       8 UNK        -0.1800 
     34 N           0.5222  -17.2259  -44.8791 N.am      8 UNK        -0.5000 
     35 C           1.4214  -18.0773  -45.3933 C.2       7 UNK         0.5000 
     36 O           1.1196  -19.0741  -46.0491 O.2       7 UNK        -0.5000 
     37 CA          2.9008  -17.8004  -45.0728 C.3       7 UNK         0.1400 
     38 CB          3.4424  -16.6618  -45.9460 C.3       7 UNK        -0.1800 
     39 N           3.1279  -17.4904  -43.6596 N.am      7 UNK        -0.5000 
     40 C           2.8823  -18.3498  -42.6594 C.2       6 UNK         0.5000 
     41 O           2.4565  -19.4907  -42.8304 O.2       6 UNK        -0.5000 
     42 CA          3.1167  -17.8573  -41.2225 C.3       6 UNK         0.1400 
     43 CB          4.5736  -18.1037  -40.8041 C.3       6 UNK        -0.1800 
     44 N           2.7933  -16.4502  -41.0036 N.am      6 UNK        -0.5000 
     45 C           1.6315  -15.8332  -41.2474 C.2       5 UNK         0.5000 
     46 O           0.6623  -16.3836  -41.7739 O.2       5 UNK        -0.5000 
     47 CA          1.5422  -14.3416  -40.8577 C.3       5 UNK         0.1400 
     48 CB          1.0874  -14.1777  -39.3962 C.3       5 UNK        -0.1800 
     49 N           2.7577  -13.5596  -41.1377 N.am      5 UNK        -0.5000 
     50 C           3.9864  -13.6695  -40.6040 C.2       4 UNK         0.5000 
     51 O           4.2565  -14.4331  -39.6756 O.2       4 UNK        -0.5000 
     52 CA          5.1116  -12.8264  -41.2485 C.3       4 UNK         0.1400 
     53 CB          6.4971  -13.4921  -41.1117 C.3       4 UNK        -0.1800 
     54 N           4.8522  -12.4713  -42.6499 N.am      4 UNK        -0.5000 
     55 C           4.6395  -13.3078  -43.6771 C.2       3 UNK         0.5000 
     56 O           4.6714  -14.5387  -43.5970 O.2       3 UNK        -0.5000 
     57 CA          4.2214  -12.6396  -45.0003 C.3       3 UNK         0.1400 
     58 CB          5.0878  -13.1185  -46.1754 C.3       3 UNK        -0.1800 
     59 N           2.8137  -12.9056  -45.2961 N.am      3 UNK        -0.5000 
     60 C           1.7735  -12.5766  -44.5198 C.2       2 UNK         0.5000 
     61 O           1.8829  -11.9239  -43.4796 O.2       2 UNK        -0.5000 
     62 CA          0.3900  -13.0857  -44.9690 C.3       2 UNK         0.1400 
     63 CB         -0.7521  -12.5874  -44.0645 C.3       2 UNK        -0.1800 
     64 N           0.0590  -12.7357  -46.3481 N.am      2 UNK        -0.5000 
     65 C           0.5300  -13.3002  -47.4653 C.2       1 UNK         0.5000 
     66 O           1.4065  -14.1659  -47.4653 O.2       1 UNK        -0.5000 
     67 C          -2.4655  -22.2081  -47.1875 C.2       11 UNK         0.5000 
     68 O          -3.0705  -22.8781  -48.0241 O.2       11 UNK        -0.5000 
     69 N          -3.0203  -21.7986  -46.0394 N.am      12 UNK        -0.5000 
     70 CA         -4.3453  -22.2173  -45.5833 C.3       12 UNK         0.1400 
     71 CB         -4.8116  -21.3263  -44.4227 C.3       12 UNK        -0.1800 
     72 C          -4.3675  -23.7027  -45.1835 C.2       12 UNK         0.5000 
     73 O          -5.2785  -24.4227  -45.5918 O.2       12 UNK        -0.5000 
     74 N          -3.3484  -24.1427  -44.4304 N.am      13 UNK        -0.5000 
     75 CA         -3.1721  -25.5302  -43.9937 C.3       13 UNK         0.1400 
     76 CB         -2.0318  -25.6033  -42.9669 C.3       13 UNK        -0.1800 
     77 C          -2.9202  -26.5032  -45.1613 C.2       13 UNK         0.5000 
     78 O          -3.4857  -27.5970  -45.1759 O.2       13 UNK        -0.5000 
     79 N          -2.1006  -26.0766  -46.1314 N.am      14 UNK        -0.5000 
     80 CA         -1.7960  -26.8165  -47.3587 C.3       14 UNK         0.1400 
     81 CB         -0.5068  -26.2436  -47.9697 C.3       14 UNK        -0.1800 
     82 C          -2.9332  -26.7796  -48.4001 C.2       14 UNK         0.5000 
     83 O          -2.8864  -27.5450  -49.3632 O.2       14 UNK        -0.5000 
     84 N          -3.9016  -25.8705  -48.2115 N.am      15 UNK        -0.5000 
     85 CA         -5.0212  -25.5381  -49.1012 C.3       15 UNK         0.1400 
     86 CB         -5.9420  -26.7522  -49.3374 C.3       15 UNK        -0.1800 
     87 C          -4.5905  -24.8562  -50.4179 C.2       15 UNK         0.5000 
     88 O          -5.4066  -24.7193  -51.3287 O.2       15 UNK        -0.5000 
     89 N          -3.3409  -24.3779  -50.4796 N.am      16 UNK        -0.5000 
     90 CA         -2.7777  -23.5924  -51.5770 C.3       16 UNK         0.1400 
     91 CB         -1.2729  -23.4009  -51.3368 C.3       16 UNK        -0.1800 
     92 C          -3.4730  -22.2303  -51.7426 C.2       16 UNK         0.5000 
     93 O          -3.6396  -21.7687  -52.8719 O.2       16 UNK        -0.5000 
     94 N          -3.9031  -21.6361  -50.6195 N.am      17 UNK        -0.5000 
     95 CA         -4.6869  -20.4011  -50.5918 C.3       17 UNK         0.1400 
     96 CB         -4.7424  -19.8518  -49.1575 C.3       17 UNK        -0.1800 
     97 C          -6.1044  -20.5950  -51.1607 C.2       17 UNK         0.5000 
     98 O          -6.5971  -19.7209  -51.8731 O.2       17 UNK        -0.5000 
     99 N          -6.7183  -21.7483  -50.8599 N.am      18 UNK        -0.5000 
    100 CA        -8.0419  -22.1386  -51.3489 C.3       18 UNK         0.1400 
    101 CB        -8.5879  -23.2856  -50.4842 C.3       18 UNK        -0.1800 
    102 C         -8.0179  -22.5343  -52.8362 C.2       18 UNK         0.5000 
    103 O         -8.9307  -22.1719  -53.5789 O.2       18 UNK        -0.5000 
    104 N         -6.9601  -23.2470  -53.2470 N.am      19 UNK        -0.5000 
    105 CA        -6.7062  -23.6602  -54.6287 C.3       19 UNK         0.1400 
    106 CB        -5.6283  -24.7559  -54.6224 C.3       19 UNK        -0.1800 
    107 C         -6.2764  -22.5038  -55.5538 C.2       19 UNK         0.5000 
    108 O         -6.3188  -22.6691  -56.7735 O.2       19 UNK        -0.5000 
    109 N         -5.8518  -21.3766  -54.9621 N.am      20 UNK        -0.5000 
    110 CA        -5.2703  -20.1947  -55.6058 C.3       20 UNK         0.1400 
    111 CB        -6.2921  -19.4929  -56.5239 C.3       20 UNK        -0.1800 
    112 C         -3.9350  -20.5181  -56.3087 C.2       20 UNK         0.5000 
    113 O         -3.6569  -20.0100  -57.3974 O.2       20 UNK        -0.5000 
    114 N         -3.1206  -21.3638  -55.6636 N.am      21 UNK        -0.5000 
    115 CA        -1.8299  -21.8568  -56.1458 C.3       21 UNK         0.1400 
    116 CB        -1.5391  -23.2076  -55.4688 C.3       21 UNK        -0.1800 
    117 C         -0.7068  -20.8204  -55.9308 C.2       21 UNK         0.5000 
    118 O          0.2937  -21.1047  -55.2701 O.2       21 UNK        -0.5000 
    119 N         -0.9162  -19.6199  -56.4743 N.am      22 UNK        -0.5000 
    120 CA        -0.0495  -18.4419  -56.3318 C.3       22 UNK         0.1400 
    121 C         -0.1021  -17.4775  -57.5531 C.2       22 UNK         0.5000 
    122 N         -0.7676  -17.8214  -58.6506 N.am      22 UNK        -0.7600 
    123 O          0.4956  -16.4050  -57.5221 O.2       22 UNK        -0.5000 
    124 C124       -0.2548  -17.7236  -54.9685 C.3       23 UNK        -0.0398 
    125 S125       -1.9907  -17.2413  -54.6487 S.3       23 UNK        -0.2404 
    126 C126       -2.4676  -18.4285  -53.3546 C.3       23 UNK        -0.0205 
    127 H127       -0.6314   -8.8646  -49.2465 H         1 UNK         0.0600 
    128 H128       -1.2427   -8.6081  -47.6097 H         1 UNK         0.0600 
    129 H129       -2.3677   -8.9332  -48.9327 H         1 UNK         0.0600 
    130 H130        0.2756  -10.8474  -49.4714 H         1 UNK         0.3000 
    131 H131        0.7670  -12.9113  -49.5179 H         1 UNK         0.0600 
    132 H132       -1.8131  -13.1264  -50.0917 H         1 UNK         0.0800 
    133 H133       -0.7588  -14.4904  -49.9649 H         1 UNK         0.0800 
    134 H134       -3.8765  -15.0910  -49.9143 H         1 UNK         0.0800 
    135 H135       -3.9611  -16.2189  -48.5822 H         1 UNK         0.0800 
    136 H136       -3.6807  -16.6668  -51.6946 H         1 UNK         0.1150 
    137 H137       -0.2409  -19.2091  -51.9603 H         1 UNK         0.1150 
    138 H138       -0.9345  -16.9168  -48.4110 H         1 UNK         0.1150 
    139 H139        1.0553  -18.1617  -48.5711 H         1 UNK         0.0800 
    140 H140        1.6653  -18.4833  -50.1733 H         1 UNK         0.0800 
    141 H141       -1.6555  -20.5874  -49.1282 H         1 UNK         0.0800 
    142 H142       -1.0764  -19.6837  -47.7456 H         1 UNK         0.0800 
    143 H143       -0.5887  -22.6762  -48.0383 H         1 UNK         0.0600 
    144 H144        0.1886  -20.8239  -46.0203 H         1 UNK         0.3000 
    145 H145        0.8598  -23.3842  -43.5493 H         1 UNK         0.0600 
    146 H146        2.8094  -23.0971  -45.0990 H         1 UNK         0.0600 
    147 H147        2.9995  -22.1557  -43.6276 H         1 UNK         0.0600 
    148 H148        2.5334  -21.3587  -45.1283 H         1 UNK         0.0600 
    149 H149        1.0176  -20.5673  -43.3289 H         1 UNK         0.3000 
    150 H150       -2.3029  -20.0097  -42.0502 H         1 UNK         0.0600 
    151 H151        0.5320  -19.8344  -40.9002 H         1 UNK         0.0600 
    152 H152       -0.8358  -20.6533  -40.1612 H         1 UNK         0.0600 
    153 H153       -0.8572  -18.9047  -40.3419 H         1 UNK         0.0600 
    154 H154       -0.2371  -18.1653  -42.6710 H         1 UNK         0.3000 
    155 H155       -1.1407  -17.5747  -46.0806 H         1 UNK         0.0600 
    156 H156       -1.4897  -15.3187  -45.3263 H         1 UNK         0.0600 
    157 H157       -1.3591  -15.7709  -43.6210 H         1 UNK         0.0600 
    158 H158       -2.7429  -16.2812  -44.5807 H         1 UNK         0.0600 
    159 H159        0.8420  -16.4888  -44.2689 H         1 UNK         0.3000 
    160 H160        3.4636  -18.7056  -45.3106 H         1 UNK         0.0600 
    161 H161        2.9566  -15.7147  -45.7134 H         1 UNK         0.0600 
    162 H162        3.2770  -16.8643  -47.0051 H         1 UNK         0.0600 
    163 H163        4.5151  -16.5338  -45.8009 H         1 UNK         0.0600 
    164 H164        3.4994  -16.5738  -43.4413 H         1 UNK         0.3000 
    165 H165        2.4703  -18.4412  -40.5655 H         1 UNK         0.0600 
    166 H166        4.8473  -19.1517  -40.9343 H         1 UNK         0.0600 
    167 H167        5.2671  -17.5050  -41.3963 H         1 UNK         0.0600 
    168 H168        4.7298  -17.8554  -39.7541 H         1 UNK         0.0600 
    169 H169        3.5088  -15.8918  -40.5458 H         1 UNK         0.3000 
    170 H170        0.7662  -13.9080  -41.4873 H         1 UNK         0.0600 
    171 H171        0.9635  -13.1260  -39.1380 H         1 UNK         0.0600 
    172 H172        1.7974  -14.6149  -38.6939 H         1 UNK         0.0600 
    173 H173        0.1269  -14.6680  -39.2326 H         1 UNK         0.0600 
    174 H174        2.6545  -12.9026  -41.9055 H         1 UNK         0.3000 
    175 H175        5.1387  -11.8875  -40.6939 H         1 UNK         0.0600 
    176 H176        6.5217  -14.4753  -41.5829 H         1 UNK         0.0600 
    177 H177        6.7676  -13.6254  -40.0636 H         1 UNK         0.0600 
    178 H178        7.2752  -12.8814  -41.5696 H         1 UNK         0.0600 
    179 H179        4.7440  -11.4812  -42.8230 H         1 UNK         0.3000 
    180 H180        4.3456  -11.5586  -44.9099 H         1 UNK         0.0600 
    181 H181        4.9777  -14.1881  -46.3524 H         1 UNK         0.0600 
    182 H182        6.1440  -12.9249  -45.9843 H         1 UNK         0.0600 
    183 H183        4.8232  -12.5994  -47.0967 H         1 UNK         0.0600 
    184 H184        2.6158  -13.4490  -46.1309 H         1 UNK         0.3000 
    185 H185        0.4333  -14.1722  -44.8924 H         1 UNK         0.0600 
    186 H186       -0.6049  -12.8926  -43.0293 H         1 UNK         0.0600 
    187 H187       -0.8281  -11.4994  -44.0797 H         1 UNK         0.0600 
    188 H188       -1.7134  -12.9908  -44.3834 H         1 UNK         0.0600 
    189 H189       -0.6847  -12.0549  -46.4726 H         1 UNK         0.3000 
    190 H190       -2.5084  -21.1644  -45.4333 H         1 UNK         0.3000 
    191 H191       -5.0486  -22.0850  -46.4082 H         1 UNK         0.0600 
    192 H192       -4.8893  -20.2850  -44.7352 H         1 UNK         0.0600 
    193 H193       -5.7956  -21.6323  -44.0655 H         1 UNK         0.0600 
    194 H194       -4.1256  -21.3706  -43.5766 H         1 UNK         0.0600 
    195 H195       -2.6526  -23.4759  -44.1095 H         1 UNK         0.3000 
    196 H196       -4.0936  -25.8418  -43.4976 H         1 UNK         0.0600 
    197 H197       -1.8901  -26.6245  -42.6110 H         1 UNK         0.0600 
    198 H198       -2.2455  -24.9820  -42.0970 H         1 UNK         0.0600 
    199 H199       -1.0849  -25.2679  -43.3910 H         1 UNK         0.0600 
    200 H200       -1.6102  -25.1940  -46.0011 H         1 UNK         0.3000 
    201 H201       -1.6185  -27.8625  -47.1008 H         1 UNK         0.0600 
    202 H202       -0.2157  -26.7954  -48.8644 H         1 UNK         0.0600 
    203 H203        0.3239  -26.3053  -47.2664 H         1 UNK         0.0600 
    204 H204       -0.6274  -25.1975  -48.2535 H         1 UNK         0.0600 
    205 H205       -3.8307  -25.2887  -47.3872 H         1 UNK         0.3000 
    206 H206       -5.6048  -24.7900  -48.5629 H         1 UNK         0.0600 
    207 H207       -6.2340  -27.2143  -48.3944 H         1 UNK         0.0600 
    208 H208       -6.8579  -26.4538  -49.8485 H         1 UNK         0.0600 
    209 H209       -5.4628  -27.5138  -49.9526 H         1 UNK         0.0600 
    210 H210       -2.7806  -24.4530  -49.6426 H         1 UNK         0.3000 
    211 H211       -2.9142  -24.1540  -52.5029 H         1 UNK         0.0600 
    212 H212       -0.7520  -24.3583  -51.3163 H         1 UNK         0.0600 
    213 H213       -0.8188  -22.7991  -52.1249 H         1 UNK         0.0600 
    214 H214       -1.0785  -22.8938  -50.3924 H         1 UNK         0.0600 
    215 H215       -3.7226  -22.0945  -49.7320 H         1 UNK         0.3000 
    216 H216       -4.1821  -19.6638  -51.2163 H         1 UNK         0.0600 
    217 H217       -5.1626  -20.5785  -48.4616 H         1 UNK         0.0600 
    218 H218       -5.3590  -18.9534  -49.1078 H         1 UNK         0.0600 
    219 H219       -3.7516  -19.5755  -48.7992 H         1 UNK         0.0600 
    220 H220       -6.2239  -22.4263  -50.3008 H         1 UNK         0.3000 
    221 H221       -8.7141  -21.2845  -51.2410 H         1 UNK         0.0600 
    222 H222       -7.9600  -24.1747  -50.5444 H         1 UNK         0.0600 
    223 H223       -8.6549  -22.9924  -49.4364 H         1 UNK         0.0600 
    224 H224       -9.5902  -23.5713  -50.8059 H         1 UNK         0.0600 
    225 H225       -6.2969  -23.5787  -52.5512 H         1 UNK         0.3000 
    226 H226       -7.6263  -24.0843  -55.0358 H         1 UNK         0.0600 
    227 H227       -5.9351  -25.6088  -54.0167 H         1 UNK         0.0600 
    228 H228       -5.4368  -25.1254  -55.6306 H         1 UNK         0.0600 
    229 H229       -4.6837  -24.3844  -54.2240 H         1 UNK         0.0600 
    230 H230       -5.8256  -21.3736  -53.9516 H         1 UNK         0.3000 
    231 H231       -5.0331  -19.5018  -54.7995 H         1 UNK         0.0600 
    232 H232       -6.5313  -20.0920  -57.4027 H         1 UNK         0.0600 
    233 H233       -5.9032  -18.5375  -56.8780 H         1 UNK         0.0600 
    234 H234       -7.2219  -19.2878  -55.9932 H         1 UNK         0.0600 
    235 H235       -3.3893  -21.6591  -54.7279 H         1 UNK         0.3000 
    236 H236       -1.9018  -22.0356  -57.2206 H         1 UNK         0.0600 
    237 H237       -1.4512  -23.1022  -54.3884 H         1 UNK         0.0600 
    238 H238       -2.3316  -23.9285  -55.6710 H         1 UNK         0.0600 
    239 H239       -0.6067  -23.6382  -55.8357 H         1 UNK         0.0600 
    240 H240       -1.7983  -19.4674  -56.9523 H         1 UNK         0.3000 
    241 H241        0.9803  -18.8035  -56.3446 H         1 UNK         0.0600 
    242 H242       -1.2344  -18.7106  -58.7287 H         1 UNK         0.3800 
    243 H243       -0.7813  -17.1856  -59.4329 H         1 UNK         0.3800 
    244 H244        0.0937  -18.3747  -54.1675 H         1 UNK         0.0800 
    245 H245        0.3700  -16.8319  -54.8998 H         1 UNK         0.0800 
    246 H246       -3.5533  -18.5206  -53.3503 H         1 UNK         0.0800 
    247 H247       -2.0814  -19.4216  -53.5881 H         1 UNK         0.0800 
@<TRIPOS>BOND
     1    1    2 1    
     2    1  127 1    
     3    1  128 1    
     4    1  129 1    
     5    2    3 2    
     6    2    4 am   BACKBONE|DICT|INTERRES
     7    4    5 1    
     8    4  130 1    
     9    5    6 1    
    10    5   65 1    
    11    5  131 1    
    12    6    7 1    
    13    6  132 1    
    14    6  133 1    
    15    7    8 1    
    16    8    9 1    
    17    8  134 1    
    18    8  135 1    
    19    9   10 ar   
    20    9   14 ar   
    21   10   11 ar   
    22   10  136 1    
    23   11   12 ar   
    24   11  126 1    
    25   12   13 ar   
    26   12  137 1    
    27   13   14 ar   
    28   13   15 1    
    29   14  138 1    
    30   15   16 1    
    31   15  139 1    
    32   15  140 1    
    33   16   17 1    
    34   17   18 1    
    35   17  141 1    
    36   17  142 1    
    37   18   19 1    
    38   18   67 1    
    39   18  143 1    
    40   19   20 am   BACKBONE|DICT|INTERRES
    41   19  144 1    
    42   20   21 2    
    43   20   22 1    
    44   22   23 1    
    45   22   24 1    
    46   22  145 1    
    47   23  146 1    
    48   23  147 1    
    49   23  148 1    
    50   24   25 am   BACKBONE|DICT|INTERRES
    51   24  149 1    
    52   25   26 2    
    53   25   27 1    
    54   27   28 1    
    55   27   29 1    
    56   27  150 1    
    57   28  151 1    
    58   28  152 1    
    59   28  153 1    
    60   29   30 am   BACKBONE|DICT|INTERRES
    61   29  154 1    
    62   30   31 2    
    63   30   32 1    
    64   32   33 1    
    65   32   34 1    
    66   32  155 1    
    67   33  156 1    
    68   33  157 1    
    69   33  158 1    
    70   34   35 am   BACKBONE|DICT|INTERRES
    71   34  159 1    
    72   35   36 2    
    73   35   37 1    
    74   37   38 1    
    75   37   39 1    
    76   37  160 1    
    77   38  161 1    
    78   38  162 1    
    79   38  163 1    
    80   39   40 am   BACKBONE|DICT|INTERRES
    81   39  164 1    
    82   40   41 2    
    83   40   42 1    
    84   42   43 1    
    85   42   44 1    
    86   42  165 1    
    87   43  166 1    
    88   43  167 1    
    89   43  168 1    
    90   44   45 am   BACKBONE|DICT|INTERRES
    91   44  169 1    
    92   45   46 2    
    93   45   47 1    
    94   47   48 1    
    95   47   49 1    
    96   47  170 1    
    97   48  171 1    
    98   48  172 1    
    99   48  173 1    
   100   49   50 am   BACKBONE|DICT|INTERRES
   101   49  174 1    
   102   50   51 2    
   103   50   52 1    
   104   52   53 1    
   105   52   54 1    
   106   52  175 1    
   107   53  176 1    
   108   53  177 1    
   109   53  178 1    
   110   54   55 am   BACKBONE|DICT|INTERRES
   111   54  179 1    
   112   55   56 2    
   113   55   57 1    
   114   57   58 1    
   115   57   59 1    
   116   57  180 1    
   117   58  181 1    
   118   58  182 1    
   119   58  183 1    
   120   59   60 am   BACKBONE|DICT|INTERRES
   121   59  184 1    
   122   60   61 2    
   123   60   62 1    
   124   62   63 1    
   125   62   64 1    
   126   62  185 1    
   127   63  186 1    
   128   63  187 1    
   129   63  188 1    
   130   64   65 am   BACKBONE|DICT|INTERRES
   131   64  189 1    
   132   65   66 2    
   133   67   68 2    
   134   67   69 am   BACKBONE|DICT|INTERRES
   135   69   70 1    
   136   69  190 1    
   137   70   71 1    
   138   70   72 1    
   139   70  191 1    
   140   71  192 1    
   141   71  193 1    
   142   71  194 1    
   143   72   73 2    
   144   72   74 am   BACKBONE|DICT|INTERRES
   145   74   75 1    
   146   74  195 1    
   147   75   76 1    
   148   75   77 1    
   149   75  196 1    
   150   76  197 1    
   151   76  198 1    
   152   76  199 1    
   153   77   78 2    
   154   77   79 am   BACKBONE|DICT|INTERRES
   155   79   80 1    
   156   79  200 1    
   157   80   81 1    
   158   80   82 1    
   159   80  201 1    
   160   81  202 1    
   161   81  203 1    
   162   81  204 1    
   163   82   83 2    
   164   82   84 am   BACKBONE|DICT|INTERRES
   165   84   85 1    
   166   84  205 1    
   167   85   86 1    
   168   85   87 1    
   169   85  206 1    
   170   86  207 1    
   171   86  208 1    
   172   86  209 1    
   173   87   88 2    
   174   87   89 am   BACKBONE|DICT|INTERRES
   175   89   90 1    
   176   89  210 1    
   177   90   91 1    
   178   90   92 1    
   179   90  211 1    
   180   91  212 1    
   181   91  213 1    
   182   91  214 1    
   183   92   93 2    
   184   92   94 am   BACKBONE|DICT|INTERRES
   185   94   95 1    
   186   94  215 1    
   187   95   96 1    
   188   95   97 1    
   189   95  216 1    
   190   96  217 1    
   191   96  218 1    
   192   96  219 1    
   193   97   98 2    
   194   97   99 am   BACKBONE|DICT|INTERRES
   195   99  100 1    
   196   99  220 1    
   197  100  101 1    
   198  100  102 1    
   199  100  221 1    
   200  101  222 1    
   201  101  223 1    
   202  101  224 1    
   203  102  103 2    
   204  102  104 am   BACKBONE|DICT|INTERRES
   205  104  105 1    
   206  104  225 1    
   207  105  106 1    
   208  105  107 1    
   209  105  226 1    
   210  106  227 1    
   211  106  228 1    
   212  106  229 1    
   213  107  108 2    
   214  107  109 am   BACKBONE|DICT|INTERRES
   215  109  110 1    
   216  109  230 1    
   217  110  111 1    
   218  110  112 1    
   219  110  231 1    
   220  111  232 1    
   221  111  233 1    
   222  111  234 1    
   223  112  113 2    
   224  112  114 am   BACKBONE|DICT|INTERRES
   225  114  115 1    
   226  114  235 1    
   227  115  116 1    
   228  115  117 1    
   229  115  236 1    
   230  116  237 1    
   231  116  238 1    
   232  116  239 1    
   233  117  118 2    
   234  117  119 am   BACKBONE|DICT|INTERRES
   235  119  120 1    
   236  119  240 1    
   237  120  121 1    
   238  120  124 1    
   239  120  241 1    
   240  121  122 am   BACKBONE|DICT|INTERRES
   241  121  123 2    
   242  122  242 1    
   243  122  243 1    
   244  124  125 1    
   245  124  244 1    
   246  124  245 1    
   247  125  126 1    
   248  126  246 1    
   249  126  247 1    
@<TRIPOS>SUBSTRUCTURE
     1 UNK         1 GROUP             0       ****    0 ROOT    
