@<TRIPOS>MOLECULE
3R540
247   249    1
SMALL
USER_CHARGES


@<TRIPOS>ATOM
      1 CA         -3.4912  -10.4292  -45.5368 C.3       0 UNK        -0.1800 
      2 C          -2.4293  -11.5088  -45.6824 C.2       0 UNK         0.5000 
      3 O          -1.4115  -11.4630  -44.9909 O.2       0 UNK        -0.5000 
      4 N          -2.6675  -12.4944  -46.5576 N.am      1 UNK        -0.5000 
      5 CA         -1.7863  -13.6309  -46.8692 C.3       1 UNK         0.1400 
      6 C6         -2.1483  -14.2197  -48.2580 C.3       23 UNK        -0.0398 
      7 S7         -0.7920  -15.1598  -49.0390 S.3       23 UNK        -0.2404 
      8 C8         -1.6305  -16.7498  -49.3521 C.3       23 UNK        -0.0205 
      9 C9         -0.8461  -17.6913  -50.2621 C.ar      23 UNK        -0.0193 
     10 C10        -0.2279  -17.2203  -51.4266 C.ar      23 UNK        -0.1150 
     11 C11         0.4722  -18.0896  -52.2681 C.ar      23 UNK        -0.0193 
     12 C12         0.5420  -19.4459  -51.9426 C.ar      23 UNK        -0.1150 
     13 C13        -0.1177  -19.9425  -50.8175 C.ar      23 UNK        -0.0193 
     14 C14        -0.7983  -19.0593  -49.9727 C.ar      23 UNK        -0.1150 
     15 C15        -0.1527  -21.4424  -50.5692 C.3       23 UNK        -0.0205 
     16 S16         1.3136  -22.0570  -49.6816 S.3       23 UNK        -0.2404 
     17 C17         1.0715  -21.4047  -47.9954 C.3       23 UNK        -0.0398 
     18 CA          0.2885  -22.3718  -47.0721 C.3       11 UNK         0.1400 
     19 N           0.6119  -22.1717  -45.6565 N.am      11 UNK        -0.5000 
     20 C           0.1614  -22.9380  -44.6523 C.2       10 UNK         0.5000 
     21 O          -0.5454  -23.9319  -44.8180 O.2       10 UNK        -0.5000 
     22 CA          0.5053  -22.4865  -43.2220 C.3       10 UNK         0.1400 
     23 CB          1.9364  -22.8958  -42.8442 C.3       10 UNK        -0.1800 
     24 N           0.3388  -21.0445  -43.0422 N.am      10 UNK        -0.5000 
     25 C          -0.8334  -20.3978  -43.1247 C.2       9 UNK         0.5000 
     26 O          -1.9159  -20.9603  -43.2853 O.2       9 UNK        -0.5000 
     27 CA         -0.7802  -18.8603  -43.0635 C.3       9 UNK         0.1400 
     28 CB         -0.6551  -18.3810  -41.6087 C.3       9 UNK        -0.1800 
     29 N           0.3105  -18.3063  -43.8686 N.am      9 UNK        -0.5000 
     30 C           0.4224  -18.4500  -45.1982 C.2       8 UNK         0.5000 
     31 O          -0.4018  -19.0339  -45.8992 O.2       8 UNK        -0.5000 
     32 CA          1.7100  -17.9180  -45.8463 C.3       8 UNK         0.1400 
     33 CB          1.5956  -16.4170  -46.1441 C.3       8 UNK        -0.1800 
     34 N           2.8829  -18.1806  -45.0117 N.am      8 UNK        -0.5000 
     35 C           3.3985  -19.4017  -44.8067 C.2       7 UNK         0.5000 
     36 O           2.9609  -20.4229  -45.3350 O.2       7 UNK        -0.5000 
     37 CA          4.5660  -19.5074  -43.8083 C.3       7 UNK         0.1400 
     38 CB          5.8962  -19.1527  -44.4889 C.3       7 UNK        -0.1800 
     39 N           4.3769  -18.6543  -42.6349 N.am      7 UNK        -0.5000 
     40 C           3.4061  -18.8205  -41.7252 C.2       6 UNK         0.5000 
     41 O           2.6100  -19.7583  -41.7437 O.2       6 UNK        -0.5000 
     42 CA          3.2690  -17.7280  -40.6463 C.3       6 UNK         0.1400 
     43 CB          4.1012  -18.0864  -39.4068 C.3       6 UNK        -0.1800 
     44 N           3.6497  -16.3921  -41.1150 N.am      6 UNK        -0.5000 
     45 C           3.0678  -15.7378  -42.1278 C.2       5 UNK         0.5000 
     46 O           2.1201  -16.1908  -42.7729 O.2       5 UNK        -0.5000 
     47 CA          3.6574  -14.3582  -42.4755 C.3       5 UNK         0.1400 
     48 CB          3.3677  -13.9547  -43.9316 C.3       5 UNK        -0.1800 
     49 N           3.1254  -13.3253  -41.5963 N.am      5 UNK        -0.5000 
     50 C           3.4217  -13.1376  -40.3063 C.2       4 UNK         0.5000 
     51 O           4.2722  -13.7949  -39.7042 O.2       4 UNK        -0.5000 
     52 CA          2.6279  -12.0494  -39.5502 C.3       4 UNK         0.1400 
     53 CB          3.3367  -10.6842  -39.6354 C.3       4 UNK        -0.1800 
     54 N           1.2092  -11.9478  -39.9326 N.am      4 UNK        -0.5000 
     55 C           0.6756  -11.5602  -41.0997 C.2       3 UNK         0.5000 
     56 O           1.3335  -11.1750  -42.0681 O.2       3 UNK        -0.5000 
     57 CA         -0.8499  -11.6952  -41.2331 C.3       3 UNK         0.1400 
     58 CB         -1.4977  -10.3571  -41.6240 C.3       3 UNK        -0.1800 
     59 N          -1.1858  -12.7037  -42.2375 N.am      3 UNK        -0.5000 
     60 C          -0.9845  -14.0241  -42.0913 C.2       2 UNK         0.5000 
     61 O          -0.5151  -14.5235  -41.0686 O.2       2 UNK        -0.5000 
     62 CA         -1.3938  -14.9493  -43.2526 C.3       2 UNK         0.1400 
     63 CB         -2.7574  -15.5953  -42.9235 C.3       2 UNK        -0.1800 
     64 N          -1.4365  -14.2217  -44.5213 N.am      2 UNK        -0.5000 
     65 C          -1.7775  -14.6822  -45.7293 C.2       1 UNK         0.5000 
     66 O          -2.0965  -15.8498  -45.9522 O.2       1 UNK        -0.5000 
     67 C          -1.2312  -22.2935  -47.3260 C.2       11 UNK         0.5000 
     68 O          -1.7818  -23.1874  -47.9640 O.2       11 UNK        -0.5000 
     69 N          -1.8840  -21.2563  -46.7849 N.am      12 UNK        -0.5000 
     70 CA         -3.3267  -21.0214  -46.8804 C.3       12 UNK         0.1400 
     71 CB         -3.6281  -19.5957  -46.3925 C.3       12 UNK        -0.1800 
     72 C          -4.1916  -22.0524  -46.1235 C.2       12 UNK         0.5000 
     73 O          -5.3925  -22.1342  -46.3849 O.2       12 UNK        -0.5000 
     74 N          -3.5882  -22.8117  -45.1998 N.am      13 UNK        -0.5000 
     75 CA         -4.2152  -23.9541  -44.5399 C.3       13 UNK         0.1400 
     76 CB         -3.6327  -24.1154  -43.1269 C.3       13 UNK        -0.1800 
     77 C          -4.0282  -25.2405  -45.3649 C.2       13 UNK         0.5000 
     78 O          -4.9701  -26.0247  -45.4865 O.2       13 UNK        -0.5000 
     79 N          -2.8187  -25.4400  -45.9071 N.am      14 UNK        -0.5000 
     80 CA         -2.4323  -26.6160  -46.6873 C.3       14 UNK         0.1400 
     81 CB         -0.9002  -26.6607  -46.7966 C.3       14 UNK        -0.1800 
     82 C          -3.0705  -26.6706  -48.0882 C.2       14 UNK         0.5000 
     83 O          -3.4329  -27.7564  -48.5440 O.2       14 UNK        -0.5000 
     84 N          -3.1827  -25.5134  -48.7467 N.am      15 UNK        -0.5000 
     85 CA         -3.7192  -25.3415  -50.0933 C.3       15 UNK         0.1400 
     86 CB         -2.5470  -25.1066  -51.0625 C.3       15 UNK        -0.1800 
     87 C          -4.6887  -24.1513  -50.1192 C.2       15 UNK         0.5000 
     88 O          -4.7000  -23.3383  -49.1958 O.2       15 UNK        -0.5000 
     89 N          -5.4638  -24.0374  -51.2045 N.am      16 UNK        -0.5000 
     90 CA         -6.4687  -22.9872  -51.4151 C.3       16 UNK         0.1400 
     91 CB         -7.5303  -23.5052  -52.4012 C.3       16 UNK        -0.1800 
     92 C          -5.8864  -21.6234  -51.8586 C.2       16 UNK         0.5000 
     93 O          -6.6362  -20.7798  -52.3534 O.2       16 UNK        -0.5000 
     94 N          -4.5716  -21.4233  -51.6820 N.am      17 UNK        -0.5000 
     95 CA         -3.8114  -20.2028  -51.9606 C.3       17 UNK         0.1400 
     96 CB         -4.1835  -19.1007  -50.9444 C.3       17 UNK        -0.1800 
     97 C          -3.9398  -19.7723  -53.4343 C.2       17 UNK         0.5000 
     98 O          -3.5304  -20.5296  -54.3152 O.2       17 UNK        -0.5000 
     99 N          -4.5279  -18.5965  -53.6897 N.am      18 UNK        -0.5000 
    100 CA        -4.7632  -18.0474  -55.0257 C.3       18 UNK         0.1400 
    101 CB        -5.3190  -16.6222  -54.8945 C.3       18 UNK        -0.1800 
    102 C         -5.6937  -18.9146  -55.8959 C.2       18 UNK         0.5000 
    103 O         -5.4994  -18.9690  -57.1100 O.2       18 UNK        -0.5000 
    104 N         -6.6474  -19.6218  -55.2706 N.am      19 UNK        -0.5000 
    105 CA        -7.5442  -20.5630  -55.9498 C.3       19 UNK         0.1400 
    106 CB        -8.7804  -20.8183  -55.0760 C.3       19 UNK        -0.1800 
    107 C         -6.8480  -21.8854  -56.3330 C.2       19 UNK         0.5000 
    108 O         -7.3330  -22.5860  -57.2215 O.2       19 UNK        -0.5000 
    109 N         -5.7089  -22.1818  -55.6919 N.am      20 UNK        -0.5000 
    110 CA        -4.7964  -23.2708  -56.0452 C.3       20 UNK         0.1400 
    111 CB        -4.2609  -23.9097  -54.7505 C.3       20 UNK        -0.1800 
    112 C         -3.6376  -22.7776  -56.9381 C.2       20 UNK         0.5000 
    113 O         -2.6998  -23.5395  -57.1783 O.2       20 UNK        -0.5000 
    114 N         -3.6886  -21.5084  -57.3784 N.am      21 UNK        -0.5000 
    115 CA        -2.6714  -20.7905  -58.1567 C.3       21 UNK         0.1400 
    116 CB        -2.6065  -21.3436  -59.5952 C.3       21 UNK        -0.1800 
    117 C         -1.2927  -20.7554  -57.4606 C.2       21 UNK         0.5000 
    118 O         -0.2611  -20.8239  -58.1311 O.2       21 UNK        -0.5000 
    119 N         -1.3119  -20.6840  -56.1224 N.am      22 UNK        -0.5000 
    120 CA        -0.1591  -20.8017  -55.2155 C.3       22 UNK         0.1400 
    121 C          0.4820  -22.2239  -55.1598 C.2       22 UNK         0.5000 
    122 N         -0.1282  -23.2644  -55.7163 N.am      22 UNK        -0.7600 
    123 O          1.5406  -22.4015  -54.5639 O.2       22 UNK        -0.5000 
    124 C124        0.8978  -19.6741  -55.4037 C.3       23 UNK        -0.0398 
    125 S125        0.2364  -18.0085  -55.0423 S.3       23 UNK        -0.2404 
    126 C126        1.1479  -17.5600  -53.5257 C.3       23 UNK        -0.0205 
    127 H127       -4.3455  -10.6089  -46.1898 H         1 UNK         0.0600 
    128 H128       -3.0706   -9.4550  -45.7858 H         1 UNK         0.0600 
    129 H129       -3.8499  -10.3934  -44.5081 H         1 UNK         0.0600 
    130 H130       -3.5446  -12.4860  -47.0588 H         1 UNK         0.3000 
    131 H131       -0.7694  -13.2374  -46.9357 H         1 UNK         0.0600 
    132 H132       -2.3825  -13.4092  -48.9497 H         1 UNK         0.0800 
    133 H133       -3.0565  -14.8223  -48.2005 H         1 UNK         0.0800 
    134 H134       -1.8299  -17.2264  -48.3907 H         1 UNK         0.0800 
    135 H135       -2.5981  -16.5545  -49.8141 H         1 UNK         0.0800 
    136 H136       -0.2908  -16.1712  -51.6785 H         1 UNK         0.1150 
    137 H137        1.0839  -20.1280  -52.5806 H         1 UNK         0.1150 
    138 H138       -1.3139  -19.4400  -49.1020 H         1 UNK         0.1150 
    139 H139       -1.0661  -21.7163  -50.0439 H         1 UNK         0.0800 
    140 H140       -0.2071  -21.9609  -51.5279 H         1 UNK         0.0800 
    141 H141        0.6275  -20.4100  -48.0209 H         1 UNK         0.0800 
    142 H142        2.0763  -21.2597  -47.5999 H         1 UNK         0.0800 
    143 H143        0.6029  -23.3911  -47.3069 H         1 UNK         0.0600 
    144 H144        1.2296  -21.3962  -45.4381 H         1 UNK         0.3000 
    145 H145       -0.1829  -22.9905  -42.5401 H         1 UNK         0.0600 
    146 H146        2.1573  -22.6407  -41.8076 H         1 UNK         0.0600 
    147 H147        2.0757  -23.9721  -42.9519 H         1 UNK         0.0600 
    148 H148        2.6780  -22.4034  -43.4733 H         1 UNK         0.0600 
    149 H149        1.1782  -20.5107  -42.8366 H         1 UNK         0.3000 
    150 H150       -1.7157  -18.4754  -43.4737 H         1 UNK         0.0600 
    151 H151       -1.5446  -18.6488  -41.0377 H         1 UNK         0.0600 
    152 H152       -0.5416  -17.2998  -41.5462 H         1 UNK         0.0600 
    153 H153        0.1994  -18.8314  -41.1053 H         1 UNK         0.0600 
    154 H154        1.0252  -17.7770  -43.3800 H         1 UNK         0.3000 
    155 H155        1.8466  -18.4375  -46.7972 H         1 UNK         0.0600 
    156 H156        1.3860  -15.8361  -45.2469 H         1 UNK         0.0600 
    157 H157        0.7801  -16.2323  -46.8419 H         1 UNK         0.0600 
    158 H158        2.5071  -16.0286  -46.5979 H         1 UNK         0.0600 
    159 H159        3.2466  -17.4006  -44.4845 H         1 UNK         0.3000 
    160 H160        4.6211  -20.5440  -43.4687 H         1 UNK         0.0600 
    161 H161        5.9134  -18.1163  -44.8287 H         1 UNK         0.0600 
    162 H162        6.0693  -19.7866  -45.3596 H         1 UNK         0.0600 
    163 H163        6.7370  -19.2980  -43.8105 H         1 UNK         0.0600 
    164 H164        4.9941  -17.8618  -42.5391 H         1 UNK         0.3000 
    165 H165        2.2188  -17.6856  -40.3521 H         1 UNK         0.0600 
    166 H166        3.9456  -17.3639  -38.6053 H         1 UNK         0.0600 
    167 H167        3.8213  -19.0666  -39.0186 H         1 UNK         0.0600 
    168 H168        5.1681  -18.1141  -39.6321 H         1 UNK         0.0600 
    169 H169        4.3713  -15.9135  -40.5910 H         1 UNK         0.3000 
    170 H170        4.7408  -14.4068  -42.3484 H         1 UNK         0.0600 
    171 H171        3.7375  -14.7077  -44.6283 H         1 UNK         0.0600 
    172 H172        2.2987  -13.8311  -44.1117 H         1 UNK         0.0600 
    173 H173        3.8567  -13.0133  -44.1826 H         1 UNK         0.0600 
    174 H174        2.4297  -12.7034  -41.9974 H         1 UNK         0.3000 
    175 H175        2.6249  -12.3477  -38.5006 H         1 UNK         0.0600 
    176 H176        3.4174  -10.3273  -40.6624 H         1 UNK         0.0600 
    177 H177        2.8064   -9.9276  -39.0572 H         1 UNK         0.0600 
    178 H178        4.3493  -10.7484  -39.2353 H         1 UNK         0.0600 
    179 H179        0.5695  -12.3040  -39.2355 H         1 UNK         0.3000 
    180 H180       -1.2708  -12.0074  -40.2749 H         1 UNK         0.0600 
    181 H181       -1.1344   -9.9979  -42.5879 H         1 UNK         0.0600 
    182 H182       -1.2784   -9.5874  -40.8832 H         1 UNK         0.0600 
    183 H183       -2.5822  -10.4476  -41.6888 H         1 UNK         0.0600 
    184 H184       -1.5429  -12.3384  -43.1101 H         1 UNK         0.3000 
    185 H185       -0.6330  -15.7250  -43.3403 H         1 UNK         0.0600 
    186 H186       -2.7522  -16.0424  -41.9286 H         1 UNK         0.0600 
    187 H187       -3.5626  -14.8603  -42.9471 H         1 UNK         0.0600 
    188 H188       -3.0113  -16.3923  -43.6209 H         1 UNK         0.0600 
    189 H189       -1.1733  -13.2412  -44.4815 H         1 UNK         0.3000 
    190 H190       -1.3472  -20.5398  -46.2983 H         1 UNK         0.3000 
    191 H191       -3.6028  -21.0850  -47.9349 H         1 UNK         0.0600 
    192 H192       -3.0844  -18.8537  -46.9774 H         1 UNK         0.0600 
    193 H193       -4.6901  -19.3650  -46.4824 H         1 UNK         0.0600 
    194 H194       -3.3486  -19.4641  -45.3464 H         1 UNK         0.0600 
    195 H195       -2.6107  -22.6460  -45.0017 H         1 UNK         0.3000 
    196 H196       -5.2871  -23.7735  -44.4356 H         1 UNK         0.0600 
    197 H197       -4.1166  -24.9378  -42.5989 H         1 UNK         0.0600 
    198 H198       -3.7845  -23.2129  -42.5345 H         1 UNK         0.0600 
    199 H199       -2.5632  -24.3238  -43.1464 H         1 UNK         0.0600 
    200 H200       -2.0839  -24.7643  -45.7224 H         1 UNK         0.3000 
    201 H201       -2.7572  -27.5043  -46.1414 H         1 UNK         0.0600 
    202 H202       -0.4358  -26.7079  -45.8114 H         1 UNK         0.0600 
    203 H203       -0.5092  -25.7800  -47.3079 H         1 UNK         0.0600 
    204 H204       -0.5720  -27.5387  -47.3543 H         1 UNK         0.0600 
    205 H205       -2.8679  -24.6525  -48.3007 H         1 UNK         0.3000 
    206 H206       -4.2731  -26.2306  -50.4011 H         1 UNK         0.0600 
    207 H207       -1.8591  -25.9523  -51.0573 H         1 UNK         0.0600 
    208 H208       -2.8955  -24.9806  -52.0881 H         1 UNK         0.0600 
    209 H209       -1.9783  -24.2149  -50.7946 H         1 UNK         0.0600 
    210 H210       -5.3860  -24.7307  -51.9340 H         1 UNK         0.3000 
    211 H211       -6.9721  -22.8095  -50.4625 H         1 UNK         0.0600 
    212 H212       -7.1493  -23.5618  -53.4206 H         1 UNK         0.0600 
    213 H213       -8.4003  -22.8486  -52.4116 H         1 UNK         0.0600 
    214 H214       -7.8867  -24.4958  -52.1183 H         1 UNK         0.0600 
    215 H215       -4.0481  -22.1802  -51.2685 H         1 UNK         0.3000 
    216 H216       -2.7604  -20.4502  -51.8147 H         1 UNK         0.0600 
    217 H217       -3.6186  -18.1887  -51.1338 H         1 UNK         0.0600 
    218 H218       -3.9509  -19.4164  -49.9273 H         1 UNK         0.0600 
    219 H219       -5.2436  -18.8475  -50.9750 H         1 UNK         0.0600 
    220 H220       -4.8625  -18.0483  -52.9110 H         1 UNK         0.3000 
    221 H221       -3.7980  -17.9923  -55.5340 H         1 UNK         0.0600 
    222 H222       -6.2723  -16.6090  -54.3646 H         1 UNK         0.0600 
    223 H223       -4.6253  -15.9762  -54.3558 H         1 UNK         0.0600 
    224 H224       -5.4821  -16.1746  -55.8758 H         1 UNK         0.0600 
    225 H225       -6.7155  -19.5787  -54.2603 H         1 UNK         0.3000 
    226 H226       -7.8872  -20.1005  -56.8779 H         1 UNK         0.0600 
    227 H227       -9.3123  -19.8905  -54.8655 H         1 UNK         0.0600 
    228 H228       -9.4810  -21.4885  -55.5756 H         1 UNK         0.0600 
    229 H229       -8.5146  -21.2741  -54.1246 H         1 UNK         0.0600 
    230 H230       -5.3592  -21.5284  -55.0021 H         1 UNK         0.3000 
    231 H231       -5.3280  -24.0414  -56.6068 H         1 UNK         0.0600 
    232 H232       -5.0709  -24.3291  -54.1569 H         1 UNK         0.0600 
    233 H233       -3.7254  -23.1894  -54.1318 H         1 UNK         0.0600 
    234 H234       -3.5731  -24.7278  -54.9678 H         1 UNK         0.0600 
    235 H235       -4.4929  -20.9523  -57.1198 H         1 UNK         0.3000 
    236 H236       -3.0054  -19.7538  -58.2159 H         1 UNK         0.0600 
    237 H237       -1.9516  -20.7352  -60.2200 H         1 UNK         0.0600 
    238 H238       -2.2259  -22.3651  -59.6192 H         1 UNK         0.0600 
    239 H239       -3.5913  -21.3414  -60.0624 H         1 UNK         0.0600 
    240 H240       -2.2126  -20.6470  -55.6518 H         1 UNK         0.3000 
    241 H241       -0.5894  -20.6767  -54.2223 H         1 UNK         0.0600 
    242 H242        0.3028  -24.1727  -55.6538 H         1 UNK         0.3800 
    243 H243       -1.0031  -23.1652  -56.2202 H         1 UNK         0.3800 
    244 H244        1.7686  -19.8470  -54.7713 H         1 UNK         0.0800 
    245 H245        1.2873  -19.6752  -56.4216 H         1 UNK         0.0800 
    246 H246        2.1772  -17.9174  -53.5762 H         1 UNK         0.0800 
    247 H247        1.2156  -16.4720  -53.4805 H         1 UNK         0.0800 
@<TRIPOS>BOND
     1    1    2 1    
     2    1  127 1    
     3    1  128 1    
     4    1  129 1    
     5    2    3 2    
     6    2    4 am   BACKBONE|DICT|INTERRES
     7    4    5 1    
     8    4  130 1    
     9    5    6 1    
    10    5   65 1    
    11    5  131 1    
    12    6    7 1    
    13    6  132 1    
    14    6  133 1    
    15    7    8 1    
    16    8    9 1    
    17    8  134 1    
    18    8  135 1    
    19    9   10 ar   
    20    9   14 ar   
    21   10   11 ar   
    22   10  136 1    
    23   11   12 ar   
    24   11  126 1    
    25   12   13 ar   
    26   12  137 1    
    27   13   14 ar   
    28   13   15 1    
    29   14  138 1    
    30   15   16 1    
    31   15  139 1    
    32   15  140 1    
    33   16   17 1    
    34   17   18 1    
    35   17  141 1    
    36   17  142 1    
    37   18   19 1    
    38   18   67 1    
    39   18  143 1    
    40   19   20 am   BACKBONE|DICT|INTERRES
    41   19  144 1    
    42   20   21 2    
    43   20   22 1    
    44   22   23 1    
    45   22   24 1    
    46   22  145 1    
    47   23  146 1    
    48   23  147 1    
    49   23  148 1    
    50   24   25 am   BACKBONE|DICT|INTERRES
    51   24  149 1    
    52   25   26 2    
    53   25   27 1    
    54   27   28 1    
    55   27   29 1    
    56   27  150 1    
    57   28  151 1    
    58   28  152 1    
    59   28  153 1    
    60   29   30 am   BACKBONE|DICT|INTERRES
    61   29  154 1    
    62   30   31 2    
    63   30   32 1    
    64   32   33 1    
    65   32   34 1    
    66   32  155 1    
    67   33  156 1    
    68   33  157 1    
    69   33  158 1    
    70   34   35 am   BACKBONE|DICT|INTERRES
    71   34  159 1    
    72   35   36 2    
    73   35   37 1    
    74   37   38 1    
    75   37   39 1    
    76   37  160 1    
    77   38  161 1    
    78   38  162 1    
    79   38  163 1    
    80   39   40 am   BACKBONE|DICT|INTERRES
    81   39  164 1    
    82   40   41 2    
    83   40   42 1    
    84   42   43 1    
    85   42   44 1    
    86   42  165 1    
    87   43  166 1    
    88   43  167 1    
    89   43  168 1    
    90   44   45 am   BACKBONE|DICT|INTERRES
    91   44  169 1    
    92   45   46 2    
    93   45   47 1    
    94   47   48 1    
    95   47   49 1    
    96   47  170 1    
    97   48  171 1    
    98   48  172 1    
    99   48  173 1    
   100   49   50 am   BACKBONE|DICT|INTERRES
   101   49  174 1    
   102   50   51 2    
   103   50   52 1    
   104   52   53 1    
   105   52   54 1    
   106   52  175 1    
   107   53  176 1    
   108   53  177 1    
   109   53  178 1    
   110   54   55 am   BACKBONE|DICT|INTERRES
   111   54  179 1    
   112   55   56 2    
   113   55   57 1    
   114   57   58 1    
   115   57   59 1    
   116   57  180 1    
   117   58  181 1    
   118   58  182 1    
   119   58  183 1    
   120   59   60 am   BACKBONE|DICT|INTERRES
   121   59  184 1    
   122   60   61 2    
   123   60   62 1    
   124   62   63 1    
   125   62   64 1    
   126   62  185 1    
   127   63  186 1    
   128   63  187 1    
   129   63  188 1    
   130   64   65 am   BACKBONE|DICT|INTERRES
   131   64  189 1    
   132   65   66 2    
   133   67   68 2    
   134   67   69 am   BACKBONE|DICT|INTERRES
   135   69   70 1    
   136   69  190 1    
   137   70   71 1    
   138   70   72 1    
   139   70  191 1    
   140   71  192 1    
   141   71  193 1    
   142   71  194 1    
   143   72   73 2    
   144   72   74 am   BACKBONE|DICT|INTERRES
   145   74   75 1    
   146   74  195 1    
   147   75   76 1    
   148   75   77 1    
   149   75  196 1    
   150   76  197 1    
   151   76  198 1    
   152   76  199 1    
   153   77   78 2    
   154   77   79 am   BACKBONE|DICT|INTERRES
   155   79   80 1    
   156   79  200 1    
   157   80   81 1    
   158   80   82 1    
   159   80  201 1    
   160   81  202 1    
   161   81  203 1    
   162   81  204 1    
   163   82   83 2    
   164   82   84 am   BACKBONE|DICT|INTERRES
   165   84   85 1    
   166   84  205 1    
   167   85   86 1    
   168   85   87 1    
   169   85  206 1    
   170   86  207 1    
   171   86  208 1    
   172   86  209 1    
   173   87   88 2    
   174   87   89 am   BACKBONE|DICT|INTERRES
   175   89   90 1    
   176   89  210 1    
   177   90   91 1    
   178   90   92 1    
   179   90  211 1    
   180   91  212 1    
   181   91  213 1    
   182   91  214 1    
   183   92   93 2    
   184   92   94 am   BACKBONE|DICT|INTERRES
   185   94   95 1    
   186   94  215 1    
   187   95   96 1    
   188   95   97 1    
   189   95  216 1    
   190   96  217 1    
   191   96  218 1    
   192   96  219 1    
   193   97   98 2    
   194   97   99 am   BACKBONE|DICT|INTERRES
   195   99  100 1    
   196   99  220 1    
   197  100  101 1    
   198  100  102 1    
   199  100  221 1    
   200  101  222 1    
   201  101  223 1    
   202  101  224 1    
   203  102  103 2    
   204  102  104 am   BACKBONE|DICT|INTERRES
   205  104  105 1    
   206  104  225 1    
   207  105  106 1    
   208  105  107 1    
   209  105  226 1    
   210  106  227 1    
   211  106  228 1    
   212  106  229 1    
   213  107  108 2    
   214  107  109 am   BACKBONE|DICT|INTERRES
   215  109  110 1    
   216  109  230 1    
   217  110  111 1    
   218  110  112 1    
   219  110  231 1    
   220  111  232 1    
   221  111  233 1    
   222  111  234 1    
   223  112  113 2    
   224  112  114 am   BACKBONE|DICT|INTERRES
   225  114  115 1    
   226  114  235 1    
   227  115  116 1    
   228  115  117 1    
   229  115  236 1    
   230  116  237 1    
   231  116  238 1    
   232  116  239 1    
   233  117  118 2    
   234  117  119 am   BACKBONE|DICT|INTERRES
   235  119  120 1    
   236  119  240 1    
   237  120  121 1    
   238  120  124 1    
   239  120  241 1    
   240  121  122 am   BACKBONE|DICT|INTERRES
   241  121  123 2    
   242  122  242 1    
   243  122  243 1    
   244  124  125 1    
   245  124  244 1    
   246  124  245 1    
   247  125  126 1    
   248  126  246 1    
   249  126  247 1    
@<TRIPOS>SUBSTRUCTURE
     1 UNK         1 GROUP             0       ****    0 ROOT    
