@<TRIPOS>MOLECULE
3R540
247   249    1
SMALL
USER_CHARGES


@<TRIPOS>ATOM
      1 CA         -5.0196  -14.5724  -47.5816 C.3       0 UNK        -0.1800 
      2 C          -4.0172  -14.2633  -46.4811 C.2       0 UNK         0.5000 
      3 O          -4.0459  -13.1634  -45.9312 O.2       0 UNK        -0.5000 
      4 N          -3.1443  -15.2370  -46.1767 N.am      1 UNK        -0.5000 
      5 CA         -2.1306  -15.2594  -45.1057 C.3       1 UNK         0.1400 
      6 C6         -2.6601  -15.7751  -43.7368 C.3       23 UNK        -0.0398 
      7 S7         -4.0670  -14.8362  -43.0454 S.3       23 UNK        -0.2404 
      8 C8         -4.9798  -16.1261  -42.1339 C.3       23 UNK        -0.0205 
      9 C9         -5.4560  -17.3194  -42.9637 C.ar      23 UNK        -0.0193 
     10 C10        -5.7838  -17.2155  -44.3232 C.ar      23 UNK        -0.1150 
     11 C11        -6.2251  -18.3350  -45.0370 C.ar      23 UNK        -0.0193 
     12 C12        -6.3624  -19.5599  -44.3787 C.ar      23 UNK        -0.1150 
     13 C13        -6.0462  -19.6765  -43.0226 C.ar      23 UNK        -0.0193 
     14 C14        -5.5924  -18.5553  -42.3260 C.ar      23 UNK        -0.1150 
     15 C15        -6.2093  -21.0028  -42.2960 C.3       23 UNK        -0.0205 
     16 S16        -4.6476  -21.9366  -42.2290 S.3       23 UNK        -0.2404 
     17 C17        -4.4834  -22.4922  -43.9596 C.3       23 UNK        -0.0398 
     18 CA         -3.3284  -21.7749  -44.7251 C.3       11 UNK         0.1400 
     19 N          -2.0288  -21.9733  -44.0672 N.am      11 UNK        -0.5000 
     20 C          -1.4104  -23.1489  -43.8992 C.2       10 UNK         0.5000 
     21 O          -1.7416  -24.1837  -44.4838 O.2       10 UNK        -0.5000 
     22 CA         -0.2467  -23.1665  -42.8922 C.3       10 UNK         0.1400 
     23 CB          0.3238  -24.5872  -42.6678 C.3       10 UNK        -0.1800 
     24 N           0.8019  -22.2175  -43.2746 N.am      10 UNK        -0.5000 
     25 C           1.8022  -21.8276  -42.4709 C.2       9 UNK         0.5000 
     26 O           1.9208  -22.1885  -41.2992 O.2       9 UNK        -0.5000 
     27 CA          2.8471  -20.8665  -43.0646 C.3       9 UNK         0.1400 
     28 CB          3.7788  -21.5918  -44.0470 C.3       9 UNK        -0.1800 
     29 N           2.2357  -19.7094  -43.7162 N.am      9 UNK        -0.5000 
     30 C           1.7022  -18.6766  -43.0448 C.2       8 UNK         0.5000 
     31 O           1.6770  -18.6076  -41.8154 O.2       8 UNK        -0.5000 
     32 CA          1.1048  -17.5135  -43.8621 C.3       8 UNK         0.1400 
     33 CB          2.0702  -16.3196  -43.8936 C.3       8 UNK        -0.1800 
     34 N           0.7496  -17.8740  -45.2334 N.am      8 UNK        -0.5000 
     35 C          -0.2464  -18.7078  -45.5618 C.2       7 UNK         0.5000 
     36 O          -1.0048  -19.2147  -44.7357 O.2       7 UNK        -0.5000 
     37 CA         -0.4314  -19.0232  -47.0588 C.3       7 UNK         0.1400 
     38 CB         -1.4983  -18.0861  -47.6385 C.3       7 UNK        -0.1800 
     39 N           0.7824  -18.9141  -47.8731 N.am      7 UNK        -0.5000 
     40 C           1.9447  -19.5459  -47.6474 C.2       6 UNK         0.5000 
     41 O           2.1288  -20.3157  -46.7048 O.2       6 UNK        -0.5000 
     42 CA          3.1152  -19.2237  -48.5975 C.3       6 UNK         0.1400 
     43 CB          3.2898  -20.3254  -49.6498 C.3       6 UNK        -0.1800 
     44 N           2.9735  -17.9304  -49.2722 N.am      6 UNK        -0.5000 
     45 C           3.0984  -16.7473  -48.6578 C.2       5 UNK         0.5000 
     46 O           3.3531  -16.6302  -47.4569 O.2       5 UNK        -0.5000 
     47 CA          2.8594  -15.5064  -49.5325 C.3       5 UNK         0.1400 
     48 CB          1.3532  -15.2456  -49.6905 C.3       5 UNK        -0.1800 
     49 N           3.4701  -14.3268  -48.9275 N.am      5 UNK        -0.5000 
     50 C           4.6185  -13.7636  -49.3255 C.2       4 UNK         0.5000 
     51 O           5.2957  -14.1933  -50.2608 O.2       4 UNK        -0.5000 
     52 CA          5.0914  -12.4927  -48.5882 C.3       4 UNK         0.1400 
     53 CB          4.9210  -11.2581  -49.4884 C.3       4 UNK        -0.1800 
     54 N           4.3784  -12.2512  -47.3343 N.am      4 UNK        -0.5000 
     55 C           4.6558  -12.8475  -46.1680 C.2       3 UNK         0.5000 
     56 O           5.6039  -13.6153  -46.0009 O.2       3 UNK        -0.5000 
     57 CA          3.7074  -12.5412  -44.9898 C.3       3 UNK         0.1400 
     58 CB          4.3124  -11.4600  -44.0811 C.3       3 UNK        -0.1800 
     59 N           2.3531  -12.1293  -45.3841 N.am      3 UNK        -0.5000 
     60 C           1.4952  -12.8970  -46.0676 C.2       2 UNK         0.5000 
     61 O           1.7899  -13.9973  -46.5338 O.2       2 UNK        -0.5000 
     62 CA          0.0812  -12.3411  -46.3028 C.3       2 UNK         0.1400 
     63 CB         -0.0276  -11.7332  -47.7096 C.3       2 UNK        -0.1800 
     64 N          -0.9094  -13.4078  -46.1676 N.am      2 UNK        -0.5000 
     65 C          -1.2236  -14.0086  -45.0112 C.2       1 UNK         0.5000 
     66 O          -0.7946  -13.6327  -43.9184 O.2       1 UNK        -0.5000 
     67 C          -3.2990  -22.1250  -46.2350 C.2       11 UNK         0.5000 
     68 O          -2.2360  -22.1011  -46.8603 O.2       11 UNK        -0.5000 
     69 N          -4.4705  -22.4535  -46.8023 N.am      12 UNK        -0.5000 
     70 CA         -4.6759  -22.8173  -48.2051 C.3       12 UNK         0.1400 
     71 CB         -6.1751  -23.0352  -48.4521 C.3       12 UNK        -0.1800 
     72 C          -3.8729  -24.0503  -48.6673 C.2       12 UNK         0.5000 
     73 O          -3.5667  -24.1554  -49.8560 O.2       12 UNK        -0.5000 
     74 N          -3.5349  -24.9443  -47.7266 N.am      13 UNK        -0.5000 
     75 CA         -2.6850  -26.1122  -47.9490 C.3       13 UNK         0.1400 
     76 CB         -2.7396  -27.0330  -46.7203 C.3       13 UNK        -0.1800 
     77 C          -1.2379  -25.7100  -48.2794 C.2       13 UNK         0.5000 
     78 O          -0.7074  -26.1475  -49.3015 O.2       13 UNK        -0.5000 
     79 N          -0.6465  -24.8367  -47.4487 N.am      14 UNK        -0.5000 
     80 CA          0.6822  -24.2589  -47.6815 C.3       14 UNK         0.1400 
     81 CB          1.1459  -23.4869  -46.4449 C.3       14 UNK        -0.1800 
     82 C           0.7220  -23.3421  -48.9140 C.2       14 UNK         0.5000 
     83 O           1.7390  -23.2932  -49.6039 O.2       14 UNK        -0.5000 
     84 N          -0.4102  -22.6880  -49.2020 N.am      15 UNK        -0.5000 
     85 CA         -0.6485  -21.8915  -50.4036 C.3       15 UNK         0.1400 
     86 CB         -1.9231  -21.0668  -50.2031 C.3       15 UNK        -0.1800 
     87 C          -0.7564  -22.7148  -51.7069 C.2       15 UNK         0.5000 
     88 O          -1.0011  -22.1168  -52.7540 O.2       15 UNK        -0.5000 
     89 N          -0.6051  -24.0465  -51.6348 N.am      16 UNK        -0.5000 
     90 CA         -0.6511  -25.0099  -52.7376 C.3       16 UNK         0.1400 
     91 CB          0.4847  -24.7504  -53.7504 C.3       16 UNK        -0.1800 
     92 C          -2.0473  -25.0739  -53.3831 C.2       16 UNK         0.5000 
     93 O          -2.1855  -24.8885  -54.5930 O.2       16 UNK        -0.5000 
     94 N          -3.0554  -25.3207  -52.5344 N.am      17 UNK        -0.5000 
     95 CA         -4.4886  -25.3510  -52.8407 C.3       17 UNK         0.1400 
     96 CB         -4.8316  -26.4536  -53.8653 C.3       17 UNK        -0.1800 
     97 C          -5.0106  -23.9549  -53.2307 C.2       17 UNK         0.5000 
     98 O          -5.7121  -23.8062  -54.2328 O.2       17 UNK        -0.5000 
     99 N          -4.6455  -22.9628  -52.4055 N.am      18 UNK        -0.5000 
    100 CA        -5.0116  -21.5462  -52.5066 C.3       18 UNK         0.1400 
    101 CB        -6.5182  -21.3567  -52.2328 C.3       18 UNK        -0.1800 
    102 C         -4.5437  -20.8752  -53.8180 C.2       18 UNK         0.5000 
    103 O         -5.3009  -20.1193  -54.4306 O.2       18 UNK        -0.5000 
    104 N         -3.3056  -21.1710  -54.2347 N.am      19 UNK        -0.5000 
    105 CA        -2.6535  -20.5443  -55.3821 C.3       19 UNK         0.1400 
    106 CB        -1.7739  -21.5796  -56.1021 C.3       19 UNK        -0.1800 
    107 C         -1.8284  -19.3297  -54.9263 C.2       19 UNK         0.5000 
    108 O         -2.0179  -18.2281  -55.4444 O.2       19 UNK        -0.5000 
    109 N         -0.9415  -19.5449  -53.9470 N.am      20 UNK        -0.5000 
    110 CA        -0.0870  -18.5275  -53.3389 C.3       20 UNK         0.1400 
    111 CB         1.2432  -19.1786  -52.9223 C.3       20 UNK        -0.1800 
    112 C         -0.8235  -17.8594  -52.1643 C.2       20 UNK         0.5000 
    113 O         -0.4920  -18.1137  -51.0044 O.2       20 UNK        -0.5000 
    114 N         -1.8228  -17.0388  -52.5169 N.am      21 UNK        -0.5000 
    115 CA        -2.8218  -16.3898  -51.6593 C.3       21 UNK         0.1400 
    116 CB        -2.1721  -15.5577  -50.5317 C.3       21 UNK        -0.1800 
    117 C         -3.9027  -17.3731  -51.1596 C.2       21 UNK         0.5000 
    118 O         -3.9107  -18.5376  -51.5590 O.2       21 UNK        -0.5000 
    119 N         -4.8382  -16.8565  -50.3510 N.am      22 UNK        -0.5000 
    120 CA        -6.1211  -17.4857  -49.9772 C.3       22 UNK         0.1400 
    121 C         -7.1236  -17.5793  -51.1714 C.2       22 UNK         0.5000 
    122 N         -8.2955  -18.1711  -50.9773 N.am      22 UNK        -0.7600 
    123 O         -6.8836  -17.0738  -52.2658 O.2       22 UNK        -0.5000 
    124 C124       -5.9721  -18.8255  -49.1921 C.3       23 UNK        -0.0398 
    125 S125       -5.1536  -18.6274  -47.5738 S.3       23 UNK        -0.2404 
    126 C126       -6.5787  -18.2275  -46.5124 C.3       23 UNK        -0.0205 
    127 H127       -4.9692  -15.6183  -47.8768 H         1 UNK         0.0600 
    128 H128       -4.8246  -13.9525  -48.4564 H         1 UNK         0.0600 
    129 H129       -6.0329  -14.3698  -47.2348 H         1 UNK         0.0600 
    130 H130       -3.2173  -16.0999  -46.6951 H         1 UNK         0.3000 
    131 H131       -1.4295  -16.0233  -45.4379 H         1 UNK         0.0600 
    132 H132       -1.8643  -15.8000  -42.9910 H         1 UNK         0.0800 
    133 H133       -2.9562  -16.8170  -43.8601 H         1 UNK         0.0800 
    134 H134       -5.8510  -15.6654  -41.6670 H         1 UNK         0.0800 
    135 H135       -4.3415  -16.4717  -41.3191 H         1 UNK         0.0800 
    136 H136       -5.6966  -16.2658  -44.8303 H         1 UNK         0.1150 
    137 H137       -6.7223  -20.4196  -44.9250 H         1 UNK         0.1150 
    138 H138       -5.3505  -18.6470  -41.2761 H         1 UNK         0.1150 
    139 H139       -6.5488  -20.8186  -41.2756 H         1 UNK         0.0800 
    140 H140       -6.9874  -21.6075  -42.7645 H         1 UNK         0.0800 
    141 H141       -5.4465  -22.3426  -44.4449 H         1 UNK         0.0800 
    142 H142       -4.3263  -23.5719  -43.9518 H         1 UNK         0.0800 
    143 H143       -3.5196  -20.7012  -44.6863 H         1 UNK         0.0600 
    144 H144       -1.6336  -21.1411  -43.6492 H         1 UNK         0.3000 
    145 H145       -0.6707  -22.8302  -41.9437 H         1 UNK         0.0600 
    146 H146        1.0396  -24.6123  -41.8470 H         1 UNK         0.0600 
    147 H147       -0.4703  -25.2888  -42.4091 H         1 UNK         0.0600 
    148 H148        0.8230  -24.9754  -43.5536 H         1 UNK         0.0600 
    149 H149        0.7531  -21.8483  -44.2141 H         1 UNK         0.3000 
    150 H150        3.4672  -20.5053  -42.2410 H         1 UNK         0.0600 
    151 H151        4.2722  -22.4365  -43.5649 H         1 UNK         0.0600 
    152 H152        4.5588  -20.9252  -44.4152 H         1 UNK         0.0600 
    153 H153        3.2376  -21.9781  -44.9085 H         1 UNK         0.0600 
    154 H154        2.2037  -19.7181  -44.7303 H         1 UNK         0.3000 
    155 H155        0.1950  -17.1975  -43.3483 H         1 UNK         0.0600 
    156 H156        2.9627  -16.5361  -44.4824 H         1 UNK         0.0600 
    157 H157        2.3946  -16.0458  -42.8889 H         1 UNK         0.0600 
    158 H158        1.5890  -15.4425  -44.3233 H         1 UNK         0.0600 
    159 H159        1.3399  -17.5048  -45.9672 H         1 UNK         0.3000 
    160 H160       -0.7815  -20.0516  -47.1340 H         1 UNK         0.0600 
    161 H161       -1.7833  -18.3732  -48.6496 H         1 UNK         0.0600 
    162 H162       -1.1450  -17.0553  -47.6693 H         1 UNK         0.0600 
    163 H163       -2.4008  -18.1084  -47.0293 H         1 UNK         0.0600 
    164 H164        0.7137  -18.3275  -48.6933 H         1 UNK         0.3000 
    165 H165        4.0236  -19.1926  -47.9919 H         1 UNK         0.0600 
    166 H166        4.1383  -20.1204  -50.3027 H         1 UNK         0.0600 
    167 H167        3.4759  -21.2879  -49.1722 H         1 UNK         0.0600 
    168 H168        2.4033  -20.4329  -50.2730 H         1 UNK         0.0600 
    169 H169        2.7475  -17.9561  -50.2556 H         1 UNK         0.3000 
    170 H170        3.2830  -15.6892  -50.5222 H         1 UNK         0.0600 
    171 H171        0.8759  -16.0576  -50.2356 H         1 UNK         0.0600 
    172 H172        0.8489  -15.1585  -48.7276 H         1 UNK         0.0600 
    173 H173        1.1665  -14.3294  -50.2508 H         1 UNK         0.0600 
    174 H174        3.0233  -14.0043  -48.0747 H         1 UNK         0.3000 
    175 H175        6.1557  -12.6137  -48.3755 H         1 UNK         0.0600 
    176 H176        3.8740  -11.0858  -49.7410 H         1 UNK         0.0600 
    177 H177        5.3024  -10.3598  -49.0025 H         1 UNK         0.0600 
    178 H178        5.4691  -11.3764  -50.4240 H         1 UNK         0.0600 
    179 H179        3.5828  -11.6320  -47.3762 H         1 UNK         0.3000 
    180 H180        3.6136  -13.4609  -44.4084 H         1 UNK         0.0600 
    181 H181        4.4017  -10.5041  -44.5987 H         1 UNK         0.0600 
    182 H182        5.3099  -11.7451  -43.7439 H         1 UNK         0.0600 
    183 H183        3.7028  -11.3056  -43.1906 H         1 UNK         0.0600 
    184 H184        2.0439  -11.2290  -45.0464 H         1 UNK         0.3000 
    185 H185       -0.1331  -11.5669  -45.5632 H         1 UNK         0.0600 
    186 H186       -1.0244  -11.3294  -47.8883 H         1 UNK         0.0600 
    187 H187        0.6818  -10.9148  -47.8379 H         1 UNK         0.0600 
    188 H188        0.1793  -12.4714  -48.4859 H         1 UNK         0.0600 
    189 H189       -1.2897  -13.7825  -47.0231 H         1 UNK         0.3000 
    190 H190       -5.3035  -22.4424  -46.2345 H         1 UNK         0.3000 
    191 H191       -4.3652  -21.9631  -48.8045 H         1 UNK         0.0600 
    192 H192       -6.3636  -23.3262  -49.4862 H         1 UNK         0.0600 
    193 H193       -6.7424  -22.1235  -48.2633 H         1 UNK         0.0600 
    194 H194       -6.5780  -23.8226  -47.8140 H         1 UNK         0.0600 
    195 H195       -3.8162  -24.7656  -46.7743 H         1 UNK         0.3000 
    196 H196       -3.0831  -26.6632  -48.8038 H         1 UNK         0.0600 
    197 H197       -2.1160  -27.9157  -46.8669 H         1 UNK         0.0600 
    198 H198       -3.7558  -27.3810  -46.5348 H         1 UNK         0.0600 
    199 H199       -2.3888  -26.5295  -45.8187 H         1 UNK         0.0600 
    200 H200       -1.1547  -24.5034  -46.6373 H         1 UNK         0.3000 
    201 H201        1.3822  -25.0791  -47.8539 H         1 UNK         0.0600 
    202 H202        0.4766  -22.6572  -46.2156 H         1 UNK         0.0600 
    203 H203        2.1407  -23.0726  -46.6082 H         1 UNK         0.0600 
    204 H204        1.2059  -24.1382  -45.5768 H         1 UNK         0.0600 
    205 H205       -1.1726  -22.7433  -48.5350 H         1 UNK         0.3000 
    206 H206        0.1867  -21.2003  -50.5103 H         1 UNK         0.0600 
    207 H207       -1.9459  -20.5781  -49.2314 H         1 UNK         0.0600 
    208 H208       -2.0094  -20.2939  -50.9647 H         1 UNK         0.0600 
    209 H209       -2.8054  -21.6916  -50.2885 H         1 UNK         0.0600 
    210 H210       -0.4549  -24.4534  -50.7202 H         1 UNK         0.3000 
    211 H211       -0.4721  -25.9903  -52.2935 H         1 UNK         0.0600 
    212 H212        1.4557  -24.7316  -53.2556 H         1 UNK         0.0600 
    213 H213        0.3586  -23.8037  -54.2760 H         1 UNK         0.0600 
    214 H214        0.5190  -25.5376  -54.5043 H         1 UNK         0.0600 
    215 H215       -2.8359  -25.3669  -51.5465 H         1 UNK         0.3000 
    216 H216       -4.9909  -25.6114  -51.9078 H         1 UNK         0.0600 
    217 H217       -5.9117  -26.5588  -53.9727 H         1 UNK         0.0600 
    218 H218       -4.4415  -27.4209  -53.5489 H         1 UNK         0.0600 
    219 H219       -4.4286  -26.2355  -54.8544 H         1 UNK         0.0600 
    220 H220       -4.0767  -23.2210  -51.6062 H         1 UNK         0.3000 
    221 H221       -4.4783  -21.0393  -51.7052 H         1 UNK         0.0600 
    222 H222       -7.1338  -21.8376  -52.9931 H         1 UNK         0.0600 
    223 H223       -6.8003  -21.7637  -51.2629 H         1 UNK         0.0600 
    224 H224       -6.7801  -20.2995  -52.2258 H         1 UNK         0.0600 
    225 H225       -2.7198  -21.7756  -53.6683 H         1 UNK         0.3000 
    226 H226       -3.4021  -20.1956  -56.0965 H         1 UNK         0.0600 
    227 H227       -1.2820  -21.1376  -56.9693 H         1 UNK         0.0600 
    228 H228       -0.9960  -21.9810  -55.4522 H         1 UNK         0.0600 
    229 H229       -2.3708  -22.4196  -56.4580 H         1 UNK         0.0600 
    230 H230       -0.8931  -20.4760  -53.5387 H         1 UNK         0.3000 
    231 H231        0.1450  -17.7512  -54.0713 H         1 UNK         0.0600 
    232 H232        1.7815  -19.5573  -53.7912 H         1 UNK         0.0600 
    233 H233        1.0878  -20.0136  -52.2420 H         1 UNK         0.0600 
    234 H234        1.8941  -18.4592  -52.4247 H         1 UNK         0.0600 
    235 H235       -2.0223  -16.9831  -53.5077 H         1 UNK         0.3000 
    236 H236       -3.3434  -15.6902  -52.3138 H         1 UNK         0.0600 
    237 H237       -1.4019  -14.8968  -50.9287 H         1 UNK         0.0600 
    238 H238       -2.9030  -14.9253  -50.0284 H         1 UNK         0.0600 
    239 H239       -1.7122  -16.1873  -49.7736 H         1 UNK         0.0600 
    240 H240       -4.7655  -15.8783  -50.1193 H         1 UNK         0.3000 
    241 H241       -6.5929  -16.7698  -49.3038 H         1 UNK         0.0600 
    242 H242       -8.5667  -18.5545  -50.0863 H         1 UNK         0.3800 
    243 H243       -8.9479  -18.2083  -51.7451 H         1 UNK         0.3800 
    244 H244       -6.9392  -19.2948  -49.0137 H         1 UNK         0.0800 
    245 H245       -5.4074  -19.5549  -49.7721 H         1 UNK         0.0800 
    246 H246       -6.9314  -17.2214  -46.7436 H         1 UNK         0.0800 
    247 H247       -7.4066  -18.9025  -46.7345 H         1 UNK         0.0800 
@<TRIPOS>BOND
     1    1    2 1    
     2    1  127 1    
     3    1  128 1    
     4    1  129 1    
     5    2    3 2    
     6    2    4 am   BACKBONE|DICT|INTERRES
     7    4    5 1    
     8    4  130 1    
     9    5    6 1    
    10    5   65 1    
    11    5  131 1    
    12    6    7 1    
    13    6  132 1    
    14    6  133 1    
    15    7    8 1    
    16    8    9 1    
    17    8  134 1    
    18    8  135 1    
    19    9   10 ar   
    20    9   14 ar   
    21   10   11 ar   
    22   10  136 1    
    23   11   12 ar   
    24   11  126 1    
    25   12   13 ar   
    26   12  137 1    
    27   13   14 ar   
    28   13   15 1    
    29   14  138 1    
    30   15   16 1    
    31   15  139 1    
    32   15  140 1    
    33   16   17 1    
    34   17   18 1    
    35   17  141 1    
    36   17  142 1    
    37   18   19 1    
    38   18   67 1    
    39   18  143 1    
    40   19   20 am   BACKBONE|DICT|INTERRES
    41   19  144 1    
    42   20   21 2    
    43   20   22 1    
    44   22   23 1    
    45   22   24 1    
    46   22  145 1    
    47   23  146 1    
    48   23  147 1    
    49   23  148 1    
    50   24   25 am   BACKBONE|DICT|INTERRES
    51   24  149 1    
    52   25   26 2    
    53   25   27 1    
    54   27   28 1    
    55   27   29 1    
    56   27  150 1    
    57   28  151 1    
    58   28  152 1    
    59   28  153 1    
    60   29   30 am   BACKBONE|DICT|INTERRES
    61   29  154 1    
    62   30   31 2    
    63   30   32 1    
    64   32   33 1    
    65   32   34 1    
    66   32  155 1    
    67   33  156 1    
    68   33  157 1    
    69   33  158 1    
    70   34   35 am   BACKBONE|DICT|INTERRES
    71   34  159 1    
    72   35   36 2    
    73   35   37 1    
    74   37   38 1    
    75   37   39 1    
    76   37  160 1    
    77   38  161 1    
    78   38  162 1    
    79   38  163 1    
    80   39   40 am   BACKBONE|DICT|INTERRES
    81   39  164 1    
    82   40   41 2    
    83   40   42 1    
    84   42   43 1    
    85   42   44 1    
    86   42  165 1    
    87   43  166 1    
    88   43  167 1    
    89   43  168 1    
    90   44   45 am   BACKBONE|DICT|INTERRES
    91   44  169 1    
    92   45   46 2    
    93   45   47 1    
    94   47   48 1    
    95   47   49 1    
    96   47  170 1    
    97   48  171 1    
    98   48  172 1    
    99   48  173 1    
   100   49   50 am   BACKBONE|DICT|INTERRES
   101   49  174 1    
   102   50   51 2    
   103   50   52 1    
   104   52   53 1    
   105   52   54 1    
   106   52  175 1    
   107   53  176 1    
   108   53  177 1    
   109   53  178 1    
   110   54   55 am   BACKBONE|DICT|INTERRES
   111   54  179 1    
   112   55   56 2    
   113   55   57 1    
   114   57   58 1    
   115   57   59 1    
   116   57  180 1    
   117   58  181 1    
   118   58  182 1    
   119   58  183 1    
   120   59   60 am   BACKBONE|DICT|INTERRES
   121   59  184 1    
   122   60   61 2    
   123   60   62 1    
   124   62   63 1    
   125   62   64 1    
   126   62  185 1    
   127   63  186 1    
   128   63  187 1    
   129   63  188 1    
   130   64   65 am   BACKBONE|DICT|INTERRES
   131   64  189 1    
   132   65   66 2    
   133   67   68 2    
   134   67   69 am   BACKBONE|DICT|INTERRES
   135   69   70 1    
   136   69  190 1    
   137   70   71 1    
   138   70   72 1    
   139   70  191 1    
   140   71  192 1    
   141   71  193 1    
   142   71  194 1    
   143   72   73 2    
   144   72   74 am   BACKBONE|DICT|INTERRES
   145   74   75 1    
   146   74  195 1    
   147   75   76 1    
   148   75   77 1    
   149   75  196 1    
   150   76  197 1    
   151   76  198 1    
   152   76  199 1    
   153   77   78 2    
   154   77   79 am   BACKBONE|DICT|INTERRES
   155   79   80 1    
   156   79  200 1    
   157   80   81 1    
   158   80   82 1    
   159   80  201 1    
   160   81  202 1    
   161   81  203 1    
   162   81  204 1    
   163   82   83 2    
   164   82   84 am   BACKBONE|DICT|INTERRES
   165   84   85 1    
   166   84  205 1    
   167   85   86 1    
   168   85   87 1    
   169   85  206 1    
   170   86  207 1    
   171   86  208 1    
   172   86  209 1    
   173   87   88 2    
   174   87   89 am   BACKBONE|DICT|INTERRES
   175   89   90 1    
   176   89  210 1    
   177   90   91 1    
   178   90   92 1    
   179   90  211 1    
   180   91  212 1    
   181   91  213 1    
   182   91  214 1    
   183   92   93 2    
   184   92   94 am   BACKBONE|DICT|INTERRES
   185   94   95 1    
   186   94  215 1    
   187   95   96 1    
   188   95   97 1    
   189   95  216 1    
   190   96  217 1    
   191   96  218 1    
   192   96  219 1    
   193   97   98 2    
   194   97   99 am   BACKBONE|DICT|INTERRES
   195   99  100 1    
   196   99  220 1    
   197  100  101 1    
   198  100  102 1    
   199  100  221 1    
   200  101  222 1    
   201  101  223 1    
   202  101  224 1    
   203  102  103 2    
   204  102  104 am   BACKBONE|DICT|INTERRES
   205  104  105 1    
   206  104  225 1    
   207  105  106 1    
   208  105  107 1    
   209  105  226 1    
   210  106  227 1    
   211  106  228 1    
   212  106  229 1    
   213  107  108 2    
   214  107  109 am   BACKBONE|DICT|INTERRES
   215  109  110 1    
   216  109  230 1    
   217  110  111 1    
   218  110  112 1    
   219  110  231 1    
   220  111  232 1    
   221  111  233 1    
   222  111  234 1    
   223  112  113 2    
   224  112  114 am   BACKBONE|DICT|INTERRES
   225  114  115 1    
   226  114  235 1    
   227  115  116 1    
   228  115  117 1    
   229  115  236 1    
   230  116  237 1    
   231  116  238 1    
   232  116  239 1    
   233  117  118 2    
   234  117  119 am   BACKBONE|DICT|INTERRES
   235  119  120 1    
   236  119  240 1    
   237  120  121 1    
   238  120  124 1    
   239  120  241 1    
   240  121  122 am   BACKBONE|DICT|INTERRES
   241  121  123 2    
   242  122  242 1    
   243  122  243 1    
   244  124  125 1    
   245  124  244 1    
   246  124  245 1    
   247  125  126 1    
   248  126  246 1    
   249  126  247 1    
@<TRIPOS>SUBSTRUCTURE
     1 UNK         1 GROUP             0       ****    0 ROOT    
