@<TRIPOS>MOLECULE
3R540
247   249    1
SMALL
USER_CHARGES


@<TRIPOS>ATOM
      1 CA         -0.8714  -16.1070  -43.8195 C.3       0 UNK        -0.1800 
      2 C          -1.8050  -14.9056  -43.8428 C.2       0 UNK         0.5000 
      3 O          -2.7828  -14.8806  -43.0953 O.2       0 UNK        -0.5000 
      4 N          -1.5018  -13.9175  -44.6892 N.am      1 UNK        -0.5000 
      5 CA         -2.2571  -12.6715  -44.8566 C.3       1 UNK         0.1400 
      6 C6         -3.1305  -12.6881  -46.1400 C.3       23 UNK        -0.0398 
      7 S7         -4.5458  -13.8272  -45.9988 S.3       23 UNK        -0.2404 
      8 C8         -4.7936  -14.3358  -47.7313 C.3       23 UNK        -0.0205 
      9 C9         -3.7492  -15.3225  -48.2433 C.ar      23 UNK        -0.0193 
     10 C10        -3.1547  -15.1211  -49.4933 C.ar      23 UNK        -0.1150 
     11 C11        -2.2605  -16.0592  -50.0197 C.ar      23 UNK        -0.0193 
     12 C12        -1.9578  -17.2049  -49.2768 C.ar      23 UNK        -0.1150 
     13 C13        -2.5305  -17.4118  -48.0207 C.ar      23 UNK        -0.0193 
     14 C14        -3.4275  -16.4702  -47.5106 C.ar      23 UNK        -0.1150 
     15 C15        -2.1856  -18.6543  -47.2188 C.3       23 UNK        -0.0205 
     16 S16        -3.4557  -19.9377  -47.4068 S.3       23 UNK        -0.2404 
     17 C17        -2.9078  -21.1648  -46.1750 C.3       23 UNK        -0.0398 
     18 CA         -2.2520  -22.4034  -46.8371 C.3       11 UNK         0.1400 
     19 N          -0.7923  -22.2951  -46.9381 N.am      11 UNK        -0.5000 
     20 C          -0.0106  -23.1523  -47.6114 C.2       10 UNK         0.5000 
     21 O          -0.4439  -24.0841  -48.2842 O.2       10 UNK        -0.5000 
     22 CA          1.5092  -22.9874  -47.4577 C.3       10 UNK         0.1400 
     23 CB          2.0589  -21.9072  -48.4014 C.3       10 UNK        -0.1800 
     24 N           1.8742  -22.6854  -46.0751 N.am      10 UNK        -0.5000 
     25 C           1.8191  -23.5750  -45.0740 C.2       9 UNK         0.5000 
     26 O           1.5064  -24.7560  -45.2294 O.2       9 UNK        -0.5000 
     27 CA          2.1300  -23.0486  -43.6596 C.3       9 UNK         0.1400 
     28 CB          3.6411  -23.0892  -43.3887 C.3       9 UNK        -0.1800 
     29 N           1.6368  -21.6877  -43.4381 N.am      9 UNK        -0.5000 
     30 C           0.3400  -21.3540  -43.3738 C.2       8 UNK         0.5000 
     31 O          -0.5796  -22.1665  -43.4619 O.2       8 UNK        -0.5000 
     32 CA          0.0140  -19.8523  -43.2552 C.3       8 UNK         0.1400 
     33 CB          0.0490  -19.4067  -41.7862 C.3       8 UNK        -0.1800 
     34 N           0.8984  -18.9893  -44.0445 N.am      8 UNK        -0.5000 
     35 C           1.1193  -19.0979  -45.3626 C.2       7 UNK         0.5000 
     36 O           0.5926  -19.9659  -46.0557 O.2       7 UNK        -0.5000 
     37 CA          2.0846  -18.0970  -46.0284 C.3       7 UNK         0.1400 
     38 CB          1.3895  -17.3564  -47.1810 C.3       7 UNK        -0.1800 
     39 N           2.6708  -17.1247  -45.0986 N.am      7 UNK        -0.5000 
     40 C           3.6630  -17.4033  -44.2382 C.2       6 UNK         0.5000 
     41 O           4.1549  -18.5278  -44.1305 O.2       6 UNK        -0.5000 
     42 CA          4.1550  -16.2705  -43.3080 C.3       6 UNK         0.1400 
     43 CB          5.6734  -16.3446  -43.0418 C.3       6 UNK        -0.1800 
     44 N           3.7587  -14.9198  -43.7255 N.am      6 UNK        -0.5000 
     45 C           4.1382  -14.2654  -44.8315 C.2       5 UNK         0.5000 
     46 O           4.9077  -14.7168  -45.6824 O.2       5 UNK        -0.5000 
     47 CA          3.5319  -12.8631  -45.0218 C.3       5 UNK         0.1400 
     48 CB          4.6084  -11.7747  -44.8927 C.3       5 UNK        -0.1800 
     49 N           2.8615  -12.7279  -46.3132 N.am      5 UNK        -0.5000 
     50 C           1.8184  -13.4656  -46.7137 C.2       4 UNK         0.5000 
     51 O           1.2966  -14.3487  -46.0275 O.2       4 UNK        -0.5000 
     52 CA          1.2155  -13.0738  -48.0683 C.3       4 UNK         0.1400 
     53 CB          0.1243  -14.0465  -48.5480 C.3       4 UNK        -0.1800 
     54 N           0.6525  -11.7315  -47.9474 N.am      4 UNK        -0.5000 
     55 C           0.6190  -10.8162  -48.9248 C.2       3 UNK         0.5000 
     56 O           1.1302  -10.9946  -50.0312 O.2       3 UNK        -0.5000 
     57 CA         -0.1216   -9.4888  -48.6499 C.3       3 UNK         0.1400 
     58 CB         -1.2348   -9.2656  -49.6881 C.3       3 UNK        -0.1800 
     59 N          -0.7266   -9.4386  -47.3177 N.am      3 UNK        -0.5000 
     60 C          -0.1731   -8.8837  -46.2317 C.2       2 UNK         0.5000 
     61 O           0.9118   -8.3016  -46.2346 O.2       2 UNK        -0.5000 
     62 CA         -0.9579   -9.0329  -44.9096 C.3       2 UNK         0.1400 
     63 CB         -1.8670   -7.8152  -44.6845 C.3       2 UNK        -0.1800 
     64 N          -1.7667  -10.2582  -44.8342 N.am      2 UNK        -0.5000 
     65 C          -1.2602  -11.4982  -44.8826 C.2       1 UNK         0.5000 
     66 O          -0.0527  -11.7168  -44.9849 O.2       1 UNK        -0.5000 
     67 C          -2.6844  -23.7061  -46.1368 C.2       11 UNK         0.5000 
     68 O          -3.6357  -24.3355  -46.5951 O.2       11 UNK        -0.5000 
     69 N          -1.9749  -24.1163  -45.0762 N.am      12 UNK        -0.5000 
     70 CA         -2.2030  -25.3869  -44.3846 C.3       12 UNK         0.1400 
     71 CB         -1.3380  -25.4571  -43.1173 C.3       12 UNK        -0.1800 
     72 C          -1.9578  -26.6071  -45.2929 C.2       12 UNK         0.5000 
     73 O          -2.7708  -27.5319  -45.2952 O.2       12 UNK        -0.5000 
     74 N          -0.8738  -26.5656  -46.0809 N.am      13 UNK        -0.5000 
     75 CA         -0.5347  -27.5840  -47.0775 C.3       13 UNK         0.1400 
     76 CB          0.9008  -27.3525  -47.5737 C.3       13 UNK        -0.1800 
     77 C          -1.5247  -27.6218  -48.2593 C.2       13 UNK         0.5000 
     78 O          -1.8893  -28.7066  -48.7138 O.2       13 UNK        -0.5000 
     79 N          -1.9552  -26.4403  -48.7206 N.am      14 UNK        -0.5000 
     80 CA         -2.9036  -26.2508  -49.8206 C.3       14 UNK         0.1400 
     81 CB         -2.7396  -24.8240  -50.3696 C.3       14 UNK        -0.1800 
     82 C          -4.3755  -26.5087  -49.4364 C.2       14 UNK         0.5000 
     83 O          -5.2300  -26.4915  -50.3215 O.2       14 UNK        -0.5000 
     84 N          -4.6556  -26.7131  -48.1409 N.am      15 UNK        -0.5000 
     85 CA         -5.9808  -26.8846  -47.5347 C.3       15 UNK         0.1400 
     86 CB         -6.6561  -28.1823  -48.0258 C.3       15 UNK        -0.1800 
     87 C          -6.8636  -25.6289  -47.7027 C.2       15 UNK         0.5000 
     88 O          -8.0179  -25.7220  -48.1229 O.2       15 UNK        -0.5000 
     89 N          -6.2729  -24.4721  -47.3730 N.am      16 UNK        -0.5000 
     90 CA         -6.8286  -23.1145  -47.3893 C.3       16 UNK         0.1400 
     91 CB         -8.0814  -23.0061  -46.4956 C.3       16 UNK        -0.1800 
     92 C          -7.0537  -22.5251  -48.7968 C.2       16 UNK         0.5000 
     93 O          -7.6429  -21.4486  -48.9105 O.2       16 UNK        -0.5000 
     94 N          -6.5603  -23.1982  -49.8449 N.am      17 UNK        -0.5000 
     95 CA         -6.5643  -22.7040  -51.2191 C.3       17 UNK         0.1400 
     96 CB         -6.4738  -23.8919  -52.1915 C.3       17 UNK        -0.1800 
     97 C          -5.4147  -21.7007  -51.4167 C.2       17 UNK         0.5000 
     98 O          -4.3277  -22.0849  -51.8506 O.2       17 UNK        -0.5000 
     99 N          -5.6709  -20.4286  -51.0841 N.am      18 UNK        -0.5000 
    100 CA        -4.7194  -19.3134  -51.1598 C.3       18 UNK         0.1400 
    101 CB        -5.4302  -18.0185  -50.7409 C.3       18 UNK        -0.1800 
    102 C         -4.0564  -19.1466  -52.5422 C.2       18 UNK         0.5000 
    103 O         -2.8587  -18.8744  -52.6208 O.2       18 UNK        -0.5000 
    104 N         -4.8374  -19.3807  -53.6055 N.am      19 UNK        -0.5000 
    105 CA        -4.3943  -19.3530  -55.0005 C.3       19 UNK         0.1400 
    106 CB        -5.6297  -19.4282  -55.9111 C.3       19 UNK        -0.1800 
    107 C         -3.3859  -20.4621  -55.3683 C.2       19 UNK         0.5000 
    108 O         -2.6538  -20.2982  -56.3444 O.2       19 UNK        -0.5000 
    109 N         -3.3665  -21.5615  -54.6017 N.am      20 UNK        -0.5000 
    110 CA        -2.3857  -22.6395  -54.7277 C.3       20 UNK         0.1400 
    111 CB        -3.0829  -23.9886  -54.4928 C.3       20 UNK        -0.1800 
    112 C         -1.2142  -22.4506  -53.7466 C.2       20 UNK         0.5000 
    113 O         -0.0971  -22.8634  -54.0598 O.2       20 UNK        -0.5000 
    114 N         -1.4842  -21.8385  -52.5841 N.am      21 UNK        -0.5000 
    115 CA        -0.5020  -21.5183  -51.5494 C.3       21 UNK         0.1400 
    116 CB        -1.2301  -21.0270  -50.2911 C.3       21 UNK        -0.1800 
    117 C          0.5366  -20.4839  -52.0194 C.2       21 UNK         0.5000 
    118 O          1.7364  -20.7333  -51.8942 O.2       21 UNK        -0.5000 
    119 N          0.0624  -19.3556  -52.5630 N.am      22 UNK        -0.5000 
    120 CA         0.9105  -18.3350  -53.1963 C.3       22 UNK         0.1400 
    121 C          1.3255  -18.7551  -54.6322 C.2       22 UNK         0.5000 
    122 N          2.5620  -18.4878  -55.0305 N.am      22 UNK        -0.7600 
    123 O          0.5280  -19.2799  -55.4049 O.2       22 UNK        -0.5000 
    124 C124        0.2407  -16.9384  -53.2066 C.3       23 UNK        -0.0398 
    125 S125        0.0955  -16.2464  -51.5232 S.3       23 UNK        -0.2404 
    126 C126       -1.6842  -15.8603  -51.4170 C.3       23 UNK        -0.0205 
    127 H127       -0.1515  -16.0734  -44.6353 H         1 UNK         0.0600 
    128 H128       -1.4441  -17.0293  -43.9150 H         1 UNK         0.0600 
    129 H129       -0.3219  -16.1378  -42.8792 H         1 UNK         0.0600 
    130 H130       -0.6260  -13.9541  -45.2028 H         1 UNK         0.3000 
    131 H131       -2.9000  -12.5054  -43.9897 H         1 UNK         0.0600 
    132 H132       -2.5291  -12.9569  -47.0092 H         1 UNK         0.0800 
    133 H133       -3.5463  -11.7019  -46.3514 H         1 UNK         0.0800 
    134 H134       -4.8295  -13.4439  -48.3588 H         1 UNK         0.0800 
    135 H135       -5.7735  -14.8074  -47.8149 H         1 UNK         0.0800 
    136 H136       -3.4123  -14.2463  -50.0734 H         1 UNK         0.1150 
    137 H137       -1.2779  -17.9404  -49.6812 H         1 UNK         0.1150 
    138 H138       -3.8891  -16.6409  -46.5483 H         1 UNK         0.1150 
    139 H139       -1.2325  -19.0596  -47.5564 H         1 UNK         0.0800 
    140 H140       -2.0661  -18.3920  -46.1667 H         1 UNK         0.0800 
    141 H141       -3.8035  -21.4349  -45.6119 H         1 UNK         0.0800 
    142 H142       -2.2373  -20.7073  -45.4474 H         1 UNK         0.0800 
    143 H143       -2.6340  -22.4900  -47.8552 H         1 UNK         0.0600 
    144 H144       -0.3490  -21.5183  -46.4540 H         1 UNK         0.3000 
    145 H145        1.9756  -23.9359  -47.7332 H         1 UNK         0.0600 
    146 H146        3.1390  -21.8052  -48.2973 H         1 UNK         0.0600 
    147 H147        1.8583  -22.1675  -49.4410 H         1 UNK         0.0600 
    148 H148        1.6119  -20.9306  -48.2192 H         1 UNK         0.0600 
    149 H149        2.0567  -21.7165  -45.8573 H         1 UNK         0.3000 
    150 H150        1.6372  -23.7100  -42.9438 H         1 UNK         0.0600 
    151 H151        4.0363  -24.0959  -43.5313 H         1 UNK         0.0600 
    152 H152        3.8656  -22.7953  -42.3632 H         1 UNK         0.0600 
    153 H153        4.1889  -22.4230  -44.0566 H         1 UNK         0.0600 
    154 H154        2.3278  -20.9538  -43.3740 H         1 UNK         0.3000 
    155 H155       -1.0009  -19.7067  -43.6288 H         1 UNK         0.0600 
    156 H156        1.0536  -19.4776  -41.3672 H         1 UNK         0.0600 
    157 H157       -0.6068  -20.0275  -41.1741 H         1 UNK         0.0600 
    158 H158       -0.2890  -18.3764  -41.6767 H         1 UNK         0.0600 
    159 H159        1.3774  -18.2549  -43.5472 H         1 UNK         0.3000 
    160 H160        2.8962  -18.6854  -46.4613 H         1 UNK         0.0600 
    161 H161        0.5117  -16.8068  -46.8403 H         1 UNK         0.0600 
    162 H162        1.0570  -18.0523  -47.9525 H         1 UNK         0.0600 
    163 H163        2.0674  -16.6494  -47.6589 H         1 UNK         0.0600 
    164 H164        2.3130  -16.1782  -45.1516 H         1 UNK         0.3000 
    165 H165        3.6537  -16.4411  -42.3543 H         1 UNK         0.0600 
    166 H166        6.2520  -16.2674  -43.9626 H         1 UNK         0.0600 
    167 H167        5.9966  -15.5463  -42.3738 H         1 UNK         0.0600 
    168 H168        5.9430  -17.2892  -42.5680 H         1 UNK         0.0600 
    169 H169        3.1054  -14.4584  -43.1074 H         1 UNK         0.3000 
    170 H170        2.7815  -12.6910  -44.2469 H         1 UNK         0.0600 
    171 H171        5.3686  -11.8659  -45.6696 H         1 UNK         0.0600 
    172 H172        4.1723  -10.7780  -44.9639 H         1 UNK         0.0600 
    173 H173        5.1146  -11.8395  -43.9287 H         1 UNK         0.0600 
    174 H174        3.2157  -12.0133  -46.9313 H         1 UNK         0.3000 
    175 H175        2.0282  -13.0781  -48.7976 H         1 UNK         0.0600 
    176 H176       -0.6860  -14.1424  -47.8258 H         1 UNK         0.0600 
    177 H177       -0.3075  -13.7212  -49.4942 H         1 UNK         0.0600 
    178 H178        0.5349  -15.0425  -48.7089 H         1 UNK         0.0600 
    179 H179        0.2996  -11.4929  -47.0271 H         1 UNK         0.3000 
    180 H180        0.6077   -8.6834  -48.7576 H         1 UNK         0.0600 
    181 H181       -1.7469   -8.3182  -49.5191 H         1 UNK         0.0600 
    182 H182       -1.9803  -10.0612  -49.6563 H         1 UNK         0.0600 
    183 H183       -0.8297   -9.2356  -50.7005 H         1 UNK         0.0600 
    184 H184       -1.6257   -9.8852  -47.2182 H         1 UNK         0.3000 
    185 H185       -0.2265   -9.0668  -44.0992 H         1 UNK         0.0600 
    186 H186       -2.3586   -7.8634  -43.7127 H         1 UNK         0.0600 
    187 H187       -1.2922   -6.8883  -44.7101 H         1 UNK         0.0600 
    188 H188       -2.6404   -7.7428  -45.4502 H         1 UNK         0.0600 
    189 H189       -2.7639  -10.1310  -44.7338 H         1 UNK         0.3000 
    190 H190       -1.2549  -23.5095  -44.6956 H         1 UNK         0.3000 
    191 H191       -3.2504  -25.4109  -44.0765 H         1 UNK         0.0600 
    192 H192       -1.5234  -26.3822  -42.5702 H         1 UNK         0.0600 
    193 H193       -1.5602  -24.6304  -42.4425 H         1 UNK         0.0600 
    194 H194       -0.2742  -25.4222  -43.3498 H         1 UNK         0.0600 
    195 H195       -0.2376  -25.7813  -45.9948 H         1 UNK         0.3000 
    196 H196       -0.5683  -28.5585  -46.5860 H         1 UNK         0.0600 
    197 H197        1.0076  -26.3853  -48.0652 H         1 UNK         0.0600 
    198 H198        1.6130  -27.3875  -46.7490 H         1 UNK         0.0600 
    199 H199        1.1943  -28.1197  -48.2912 H         1 UNK         0.0600 
    200 H200       -1.5415  -25.5923  -48.3399 H         1 UNK         0.3000 
    201 H201       -2.6498  -26.9515  -50.6185 H         1 UNK         0.0600 
    202 H202       -3.3714  -24.6639  -51.2414 H         1 UNK         0.0600 
    203 H203       -3.0135  -24.0742  -49.6275 H         1 UNK         0.0600 
    204 H204       -1.7128  -24.6308  -50.6806 H         1 UNK         0.0600 
    205 H205       -3.8837  -26.6571  -47.4898 H         1 UNK         0.3000 
    206 H206       -5.8091  -26.9934  -46.4627 H         1 UNK         0.0600 
    207 H207       -6.0065  -29.0446  -47.8758 H         1 UNK         0.0600 
    208 H208       -7.5789  -28.3716  -47.4763 H         1 UNK         0.0600 
    209 H209       -6.9125  -28.1354  -49.0844 H         1 UNK         0.0600 
    210 H210       -5.2975  -24.5191  -47.0747 H         1 UNK         0.3000 
    211 H211       -6.0586  -22.4875  -46.9372 H         1 UNK         0.0600 
    212 H212       -8.3811  -21.9654  -46.3674 H         1 UNK         0.0600 
    213 H213       -7.8937  -23.4118  -45.5015 H         1 UNK         0.0600 
    214 H214       -8.9325  -23.5374  -46.9217 H         1 UNK         0.0600 
    215 H215       -6.0895  -24.0765  -49.6798 H         1 UNK         0.3000 
    216 H216       -7.5076  -22.1909  -51.4181 H         1 UNK         0.0600 
    217 H217       -5.5616  -24.4692  -52.0479 H         1 UNK         0.0600 
    218 H218       -6.4831  -23.5495  -53.2270 H         1 UNK         0.0600 
    219 H219       -7.3178  -24.5698  -52.0637 H         1 UNK         0.0600 
    220 H220       -6.5717  -20.2209  -50.6736 H         1 UNK         0.3000 
    221 H221       -3.9297  -19.5097  -50.4350 H         1 UNK         0.0600 
    222 H222       -5.7471  -18.0646  -49.6987 H         1 UNK         0.0600 
    223 H223       -6.3100  -17.8231  -51.3548 H         1 UNK         0.0600 
    224 H224       -4.7681  -17.1585  -50.8375 H         1 UNK         0.0600 
    225 H225       -5.8060  -19.6135  -53.4434 H         1 UNK         0.3000 
    226 H226       -3.8989  -18.3952  -55.1733 H         1 UNK         0.0600 
    227 H227       -6.1798  -20.3588  -55.7656 H         1 UNK         0.0600 
    228 H228       -6.3121  -18.5997  -55.7209 H         1 UNK         0.0600 
    229 H229       -5.3443  -19.3768  -56.9627 H         1 UNK         0.0600 
    230 H230       -3.9794  -21.6113  -53.7965 H         1 UNK         0.3000 
    231 H231       -1.9706  -22.6531  -55.7377 H         1 UNK         0.0600 
    232 H232       -3.5320  -24.0448  -53.5023 H         1 UNK         0.0600 
    233 H233       -2.3759  -24.8144  -54.5799 H         1 UNK         0.0600 
    234 H234       -3.8719  -24.1560  -55.2261 H         1 UNK         0.0600 
    235 H235       -2.4476  -21.6000  -52.3803 H         1 UNK         0.3000 
    236 H236        0.0259  -22.4400  -51.2959 H         1 UNK         0.0600 
    237 H237       -1.9548  -21.7622  -49.9447 H         1 UNK         0.0600 
    238 H238       -0.5299  -20.8398  -49.4779 H         1 UNK         0.0600 
    239 H239       -1.7609  -20.0958  -50.4734 H         1 UNK         0.0600 
    240 H240       -0.9423  -19.2276  -52.6467 H         1 UNK         0.3000 
    241 H241        1.8256  -18.2484  -52.6063 H         1 UNK         0.0600 
    242 H242        2.8394  -18.7410  -55.9663 H         1 UNK         0.3800 
    243 H243        3.2338  -18.0509  -54.4182 H         1 UNK         0.3800 
    244 H244       -0.7337  -16.9875  -53.6949 H         1 UNK         0.0800 
    245 H245        0.8350  -16.2322  -53.7893 H         1 UNK         0.0800 
    246 H246       -1.8274  -14.8310  -51.7487 H         1 UNK         0.0800 
    247 H247       -2.2541  -16.4826  -52.1033 H         1 UNK         0.0800 
@<TRIPOS>BOND
     1    1    2 1    
     2    1  127 1    
     3    1  128 1    
     4    1  129 1    
     5    2    3 2    
     6    2    4 am   BACKBONE|DICT|INTERRES
     7    4    5 1    
     8    4  130 1    
     9    5    6 1    
    10    5   65 1    
    11    5  131 1    
    12    6    7 1    
    13    6  132 1    
    14    6  133 1    
    15    7    8 1    
    16    8    9 1    
    17    8  134 1    
    18    8  135 1    
    19    9   10 ar   
    20    9   14 ar   
    21   10   11 ar   
    22   10  136 1    
    23   11   12 ar   
    24   11  126 1    
    25   12   13 ar   
    26   12  137 1    
    27   13   14 ar   
    28   13   15 1    
    29   14  138 1    
    30   15   16 1    
    31   15  139 1    
    32   15  140 1    
    33   16   17 1    
    34   17   18 1    
    35   17  141 1    
    36   17  142 1    
    37   18   19 1    
    38   18   67 1    
    39   18  143 1    
    40   19   20 am   BACKBONE|DICT|INTERRES
    41   19  144 1    
    42   20   21 2    
    43   20   22 1    
    44   22   23 1    
    45   22   24 1    
    46   22  145 1    
    47   23  146 1    
    48   23  147 1    
    49   23  148 1    
    50   24   25 am   BACKBONE|DICT|INTERRES
    51   24  149 1    
    52   25   26 2    
    53   25   27 1    
    54   27   28 1    
    55   27   29 1    
    56   27  150 1    
    57   28  151 1    
    58   28  152 1    
    59   28  153 1    
    60   29   30 am   BACKBONE|DICT|INTERRES
    61   29  154 1    
    62   30   31 2    
    63   30   32 1    
    64   32   33 1    
    65   32   34 1    
    66   32  155 1    
    67   33  156 1    
    68   33  157 1    
    69   33  158 1    
    70   34   35 am   BACKBONE|DICT|INTERRES
    71   34  159 1    
    72   35   36 2    
    73   35   37 1    
    74   37   38 1    
    75   37   39 1    
    76   37  160 1    
    77   38  161 1    
    78   38  162 1    
    79   38  163 1    
    80   39   40 am   BACKBONE|DICT|INTERRES
    81   39  164 1    
    82   40   41 2    
    83   40   42 1    
    84   42   43 1    
    85   42   44 1    
    86   42  165 1    
    87   43  166 1    
    88   43  167 1    
    89   43  168 1    
    90   44   45 am   BACKBONE|DICT|INTERRES
    91   44  169 1    
    92   45   46 2    
    93   45   47 1    
    94   47   48 1    
    95   47   49 1    
    96   47  170 1    
    97   48  171 1    
    98   48  172 1    
    99   48  173 1    
   100   49   50 am   BACKBONE|DICT|INTERRES
   101   49  174 1    
   102   50   51 2    
   103   50   52 1    
   104   52   53 1    
   105   52   54 1    
   106   52  175 1    
   107   53  176 1    
   108   53  177 1    
   109   53  178 1    
   110   54   55 am   BACKBONE|DICT|INTERRES
   111   54  179 1    
   112   55   56 2    
   113   55   57 1    
   114   57   58 1    
   115   57   59 1    
   116   57  180 1    
   117   58  181 1    
   118   58  182 1    
   119   58  183 1    
   120   59   60 am   BACKBONE|DICT|INTERRES
   121   59  184 1    
   122   60   61 2    
   123   60   62 1    
   124   62   63 1    
   125   62   64 1    
   126   62  185 1    
   127   63  186 1    
   128   63  187 1    
   129   63  188 1    
   130   64   65 am   BACKBONE|DICT|INTERRES
   131   64  189 1    
   132   65   66 2    
   133   67   68 2    
   134   67   69 am   BACKBONE|DICT|INTERRES
   135   69   70 1    
   136   69  190 1    
   137   70   71 1    
   138   70   72 1    
   139   70  191 1    
   140   71  192 1    
   141   71  193 1    
   142   71  194 1    
   143   72   73 2    
   144   72   74 am   BACKBONE|DICT|INTERRES
   145   74   75 1    
   146   74  195 1    
   147   75   76 1    
   148   75   77 1    
   149   75  196 1    
   150   76  197 1    
   151   76  198 1    
   152   76  199 1    
   153   77   78 2    
   154   77   79 am   BACKBONE|DICT|INTERRES
   155   79   80 1    
   156   79  200 1    
   157   80   81 1    
   158   80   82 1    
   159   80  201 1    
   160   81  202 1    
   161   81  203 1    
   162   81  204 1    
   163   82   83 2    
   164   82   84 am   BACKBONE|DICT|INTERRES
   165   84   85 1    
   166   84  205 1    
   167   85   86 1    
   168   85   87 1    
   169   85  206 1    
   170   86  207 1    
   171   86  208 1    
   172   86  209 1    
   173   87   88 2    
   174   87   89 am   BACKBONE|DICT|INTERRES
   175   89   90 1    
   176   89  210 1    
   177   90   91 1    
   178   90   92 1    
   179   90  211 1    
   180   91  212 1    
   181   91  213 1    
   182   91  214 1    
   183   92   93 2    
   184   92   94 am   BACKBONE|DICT|INTERRES
   185   94   95 1    
   186   94  215 1    
   187   95   96 1    
   188   95   97 1    
   189   95  216 1    
   190   96  217 1    
   191   96  218 1    
   192   96  219 1    
   193   97   98 2    
   194   97   99 am   BACKBONE|DICT|INTERRES
   195   99  100 1    
   196   99  220 1    
   197  100  101 1    
   198  100  102 1    
   199  100  221 1    
   200  101  222 1    
   201  101  223 1    
   202  101  224 1    
   203  102  103 2    
   204  102  104 am   BACKBONE|DICT|INTERRES
   205  104  105 1    
   206  104  225 1    
   207  105  106 1    
   208  105  107 1    
   209  105  226 1    
   210  106  227 1    
   211  106  228 1    
   212  106  229 1    
   213  107  108 2    
   214  107  109 am   BACKBONE|DICT|INTERRES
   215  109  110 1    
   216  109  230 1    
   217  110  111 1    
   218  110  112 1    
   219  110  231 1    
   220  111  232 1    
   221  111  233 1    
   222  111  234 1    
   223  112  113 2    
   224  112  114 am   BACKBONE|DICT|INTERRES
   225  114  115 1    
   226  114  235 1    
   227  115  116 1    
   228  115  117 1    
   229  115  236 1    
   230  116  237 1    
   231  116  238 1    
   232  116  239 1    
   233  117  118 2    
   234  117  119 am   BACKBONE|DICT|INTERRES
   235  119  120 1    
   236  119  240 1    
   237  120  121 1    
   238  120  124 1    
   239  120  241 1    
   240  121  122 am   BACKBONE|DICT|INTERRES
   241  121  123 2    
   242  122  242 1    
   243  122  243 1    
   244  124  125 1    
   245  124  244 1    
   246  124  245 1    
   247  125  126 1    
   248  126  246 1    
   249  126  247 1    
@<TRIPOS>SUBSTRUCTURE
     1 UNK         1 GROUP             0       ****    0 ROOT    
