@<TRIPOS>MOLECULE
3R540
247   249    1
SMALL
USER_CHARGES


@<TRIPOS>ATOM
      1 CA          0.7780  -11.5547  -47.2561 C.3       0 UNK        -0.1800 
      2 C           2.1626  -12.1509  -47.4610 C.2       0 UNK         0.5000 
      3 O           3.0729  -11.4567  -47.9131 O.2       0 UNK        -0.5000 
      4 N           2.3190  -13.4409  -47.1360 N.am      1 UNK        -0.5000 
      5 CA          3.5834  -14.1820  -47.2446 C.3       1 UNK         0.1400 
      6 C6          3.3250  -15.7073  -47.3437 C.3       23 UNK        -0.0398 
      7 S7          4.7104  -16.6283  -48.0878 S.3       23 UNK        -0.2404 
      8 C8          4.2943  -16.5498  -49.8604 C.3       23 UNK        -0.0205 
      9 C9          3.1816  -17.5135  -50.2507 C.ar      23 UNK        -0.0193 
     10 C10         1.9947  -17.0401  -50.8193 C.ar      23 UNK        -0.1150 
     11 C11         1.0063  -17.9332  -51.2468 C.ar      23 UNK        -0.0193 
     12 C12         1.1995  -19.3072  -51.0674 C.ar      23 UNK        -0.1150 
     13 C13         2.3729  -19.7939  -50.4841 C.ar      23 UNK        -0.0193 
     14 C14         3.3664  -18.8897  -50.0963 C.ar      23 UNK        -0.1150 
     15 C15         2.5679  -21.2968  -50.3054 C.3       23 UNK        -0.0205 
     16 S16         3.2254  -21.7610  -48.6656 S.3       23 UNK        -0.2404 
     17 C17         1.9457  -21.0880  -47.5519 C.3       23 UNK        -0.0398 
     18 CA          1.0153  -22.1681  -46.9564 C.3       11 UNK         0.1400 
     19 N           0.2447  -21.6387  -45.8296 N.am      11 UNK        -0.5000 
     20 C          -0.5264  -22.3719  -45.0150 C.2       10 UNK         0.5000 
     21 O          -0.6319  -23.5961  -45.0882 O.2       10 UNK        -0.5000 
     22 CA         -1.3569  -21.6000  -43.9748 C.3       10 UNK         0.1400 
     23 CB         -0.4907  -21.2086  -42.7684 C.3       10 UNK        -0.1800 
     24 N          -1.9883  -20.4062  -44.5401 N.am      10 UNK        -0.5000 
     25 C          -2.9185  -20.4290  -45.5054 C.2       9 UNK         0.5000 
     26 O          -3.3853  -21.4663  -45.9749 O.2       9 UNK        -0.5000 
     27 CA         -3.3725  -19.0728  -46.0773 C.3       9 UNK         0.1400 
     28 CB         -4.4332  -18.4220  -45.1788 C.3       9 UNK        -0.1800 
     29 N          -2.2676  -18.1386  -46.2920 N.am      9 UNK        -0.5000 
     30 C          -1.2459  -18.3473  -47.1349 C.2       8 UNK         0.5000 
     31 O          -1.1259  -19.3525  -47.8302 O.2       8 UNK        -0.5000 
     32 CA         -0.1363  -17.2846  -47.1496 C.3       8 UNK         0.1400 
     33 CB         -0.5567  -16.0567  -47.9748 C.3       8 UNK        -0.1800 
     34 N           0.2247  -16.8800  -45.7901 N.am      8 UNK        -0.5000 
     35 C           0.8383  -17.6819  -44.9066 C.2       7 UNK         0.5000 
     36 O           1.2169  -18.8241  -45.1661 O.2       7 UNK        -0.5000 
     37 CA          1.0213  -17.1261  -43.4832 C.3       7 UNK         0.1400 
     38 CB          2.2711  -16.2393  -43.4033 C.3       7 UNK        -0.1800 
     39 N          -0.1411  -16.3639  -43.0258 N.am      7 UNK        -0.5000 
     40 C          -1.3403  -16.9046  -42.7623 C.2       6 UNK         0.5000 
     41 O          -1.5752  -18.1093  -42.8368 O.2       6 UNK        -0.5000 
     42 CA         -2.4842  -15.9338  -42.4094 C.3       6 UNK         0.1400 
     43 CB         -2.5228  -15.6756  -40.8961 C.3       6 UNK        -0.1800 
     44 N          -2.3925  -14.6532  -43.1125 N.am      6 UNK        -0.5000 
     45 C          -2.3672  -14.4995  -44.4443 C.2       5 UNK         0.5000 
     46 O          -2.4888  -15.4348  -45.2347 O.2       5 UNK        -0.5000 
     47 CA         -2.1162  -13.0802  -44.9900 C.3       5 UNK         0.1400 
     48 CB         -3.3982  -12.5049  -45.6090 C.3       5 UNK        -0.1800 
     49 N          -1.6051  -12.1420  -43.9856 N.am      5 UNK        -0.5000 
     50 C          -0.3929  -12.1964  -43.4185 C.2       4 UNK         0.5000 
     51 O           0.4682  -13.0351  -43.7058 O.2       4 UNK        -0.5000 
     52 CA         -0.1388  -11.1718  -42.3049 C.3       4 UNK         0.1400 
     53 CB         -0.8741  -11.5731  -41.0133 C.3       4 UNK        -0.1800 
     54 N           1.2904  -11.0856  -42.0382 N.am      4 UNK        -0.5000 
     55 C           1.9395   -9.9900  -41.6271 C.2       3 UNK         0.5000 
     56 O           1.3807   -8.9177  -41.3907 O.2       3 UNK        -0.5000 
     57 CA          3.4678  -10.0982  -41.4375 C.3       3 UNK         0.1400 
     58 CB          3.8227  -10.1152  -39.9419 C.3       3 UNK        -0.1800 
     59 N           4.0702  -11.2734  -42.0741 N.am      3 UNK        -0.5000 
     60 C           4.1799  -11.4633  -43.3952 C.2       2 UNK         0.5000 
     61 O           3.7832  -10.6490  -44.2312 O.2       2 UNK        -0.5000 
     62 CA          4.8219  -12.7796  -43.8664 C.3       2 UNK         0.1400 
     63 CB          4.9174  -13.8676  -42.7770 C.3       2 UNK        -0.1800 
     64 N           4.0523  -13.2845  -44.9982 N.am      2 UNK        -0.5000 
     65 C           4.5716  -13.8225  -46.1082 C.2       1 UNK         0.5000 
     66 O           5.7782  -14.0146  -46.2659 O.2       1 UNK        -0.5000 
     67 C           0.0975  -22.8005  -48.0246 C.2       11 UNK         0.5000 
     68 O           0.3540  -23.9226  -48.4573 O.2       11 UNK        -0.5000 
     69 N          -0.9786  -22.0927  -48.3910 N.am      12 UNK        -0.5000 
     70 CA         -2.0158  -22.5376  -49.3202 C.3       12 UNK         0.1400 
     71 CB         -3.0249  -21.3967  -49.5052 C.3       12 UNK        -0.1800 
     72 C          -2.7210  -23.8264  -48.8588 C.2       12 UNK         0.5000 
     73 O          -2.9017  -24.7456  -49.6590 O.2       12 UNK        -0.5000 
     74 N          -3.0679  -23.8880  -47.5656 N.am      13 UNK        -0.5000 
     75 CA         -3.6448  -25.0642  -46.9166 C.3       13 UNK         0.1400 
     76 CB         -4.0971  -24.7021  -45.4942 C.3       13 UNK        -0.1800 
     77 C          -2.6814  -26.2650  -46.9014 C.2       13 UNK         0.5000 
     78 O          -3.1001  -27.3746  -47.2311 O.2       13 UNK        -0.5000 
     79 N          -1.4062  -26.0208  -46.5643 N.am      14 UNK        -0.5000 
     80 CA         -0.3371  -27.0241  -46.5655 C.3       14 UNK         0.1400 
     81 CB          0.9238  -26.4333  -45.9166 C.3       14 UNK        -0.1800 
     82 C          -0.0227  -27.5719  -47.9714 C.2       14 UNK         0.5000 
     83 O           0.2273  -28.7689  -48.1168 O.2       14 UNK        -0.5000 
     84 N          -0.0760  -26.6951  -48.9824 N.am      15 UNK        -0.5000 
     85 CA          0.0754  -27.0265  -50.4006 C.3       15 UNK         0.1400 
     86 CB          0.3544  -25.7318  -51.1821 C.3       15 UNK        -0.1800 
     87 C          -1.1446  -27.7562  -51.0005 C.2       15 UNK         0.5000 
     88 O          -1.0322  -28.2951  -52.1023 O.2       15 UNK        -0.5000 
     89 N          -2.2797  -27.7448  -50.2841 N.am      16 UNK        -0.5000 
     90 CA         -3.5947  -28.2585  -50.6808 C.3       16 UNK         0.1400 
     91 CB         -3.5677  -29.7928  -50.8406 C.3       16 UNK        -0.1800 
     92 C          -4.1643  -27.5222  -51.9125 C.2       16 UNK         0.5000 
     93 O          -4.7797  -28.1405  -52.7833 O.2       16 UNK        -0.5000 
     94 N          -3.9426  -26.2050  -51.9553 N.am      17 UNK        -0.5000 
     95 CA         -4.3707  -25.2956  -53.0086 C.3       17 UNK         0.1400 
     96 CB         -3.2277  -25.1147  -54.0245 C.3       17 UNK        -0.1800 
     97 C          -4.7715  -23.9911  -52.3139 C.2       17 UNK         0.5000 
     98 O          -3.9709  -23.0559  -52.2693 O.2       17 UNK        -0.5000 
     99 N          -5.9706  -24.0114  -51.7126 N.am      18 UNK        -0.5000 
    100 CA        -6.5440  -23.0115  -50.8046 C.3       18 UNK         0.1400 
    101 CB        -8.0107  -23.3842  -50.5382 C.3       18 UNK        -0.1800 
    102 C         -6.4498  -21.5488  -51.2793 C.2       18 UNK         0.5000 
    103 O         -6.3593  -21.2894  -52.4799 O.2       18 UNK        -0.5000 
    104 N         -6.4925  -20.6224  -50.3109 N.am      19 UNK        -0.5000 
    105 CA        -6.1931  -19.1872  -50.4236 C.3       19 UNK         0.1400 
    106 CB        -6.4089  -18.5371  -49.0483 C.3       19 UNK        -0.1800 
    107 C         -6.9465  -18.3932  -51.5120 C.2       19 UNK         0.5000 
    108 O         -6.4828  -17.3174  -51.8904 O.2       19 UNK        -0.5000 
    109 N         -8.0664  -18.9298  -52.0160 N.am      20 UNK        -0.5000 
    110 CA        -8.7773  -18.4199  -53.1920 C.3       20 UNK         0.1400 
    111 CB       -10.0979  -19.1881  -53.3525 C.3       20 UNK        -0.1800 
    112 C         -7.9373  -18.5079  -54.4850 C.2       20 UNK         0.5000 
    113 O         -8.0543  -17.6332  -55.3442 O.2       20 UNK        -0.5000 
    114 N         -7.0938  -19.5437  -54.5812 N.am      21 UNK        -0.5000 
    115 CA        -6.0726  -19.7132  -55.6128 C.3       21 UNK         0.1400 
    116 CB        -6.0870  -21.1708  -56.1017 C.3       21 UNK        -0.1800 
    117 C         -4.6856  -19.3467  -55.0560 C.2       21 UNK         0.5000 
    118 O         -3.9212  -18.6641  -55.7378 O.2       21 UNK        -0.5000 
    119 N         -4.4077  -19.7888  -53.8216 N.am      22 UNK        -0.5000 
    120 CA        -3.1519  -19.6267  -53.0801 C.3       22 UNK         0.1400 
    121 C         -1.9741  -20.3854  -53.7548 C.2       22 UNK         0.5000 
    122 N         -1.9393  -21.7047  -53.6311 N.am      22 UNK        -0.7600 
    123 O         -1.1044  -19.8020  -54.3959 O.2       22 UNK        -0.5000 
    124 C124       -2.8475  -18.1435  -52.7275 C.3       23 UNK        -0.0398 
    125 S125       -1.7914  -17.9857  -51.2449 S.3       23 UNK        -0.2404 
    126 C126       -0.2243  -17.4211  -51.9851 C.3       23 UNK        -0.0205 
    127 H127        0.0007  -12.2846  -47.4811 H         1 UNK         0.0600 
    128 H128        0.6296  -10.6966  -47.9120 H         1 UNK         0.0600 
    129 H129        0.6596  -11.2213  -46.2251 H         1 UNK         0.0600 
    130 H130        1.5354  -13.9504  -46.7570 H         1 UNK         0.3000 
    131 H131        4.0565  -13.8679  -48.1777 H         1 UNK         0.0600 
    132 H132        3.1058  -16.1337  -46.3642 H         1 UNK         0.0800 
    133 H133        2.4454  -15.9004  -47.9562 H         1 UNK         0.0800 
    134 H134        5.1859  -16.8003  -50.4367 H         1 UNK         0.0800 
    135 H135        4.0382  -15.5239  -50.1290 H         1 UNK         0.0800 
    136 H136        1.8580  -15.9780  -50.9668 H         1 UNK         0.1150 
    137 H137        0.4379  -19.9982  -51.4018 H         1 UNK         0.1150 
    138 H138        4.2889  -19.2562  -49.6684 H         1 UNK         0.1150 
    139 H139        1.6286  -21.8282  -50.4676 H         1 UNK         0.0800 
    140 H140        3.2577  -21.6512  -51.0720 H         1 UNK         0.0800 
    141 H141        1.3693  -20.3072  -48.0487 H         1 UNK         0.0800 
    142 H142        2.4798  -20.5848  -46.7452 H         1 UNK         0.0800 
    143 H143        1.6437  -22.9664  -46.5556 H         1 UNK         0.0600 
    144 H144        0.2938  -20.6365  -45.6827 H         1 UNK         0.3000 
    145 H145       -2.1493  -22.2640  -43.6233 H         1 UNK         0.0600 
    146 H146       -1.0928  -20.7464  -41.9860 H         1 UNK         0.0600 
    147 H147       -0.0081  -22.0842  -42.3326 H         1 UNK         0.0600 
    148 H148        0.2935  -20.5037  -43.0466 H         1 UNK         0.0600 
    149 H149       -1.7031  -19.5124  -44.1501 H         1 UNK         0.3000 
    150 H150       -3.8252  -19.2635  -47.0510 H         1 UNK         0.0600 
    151 H151       -5.2986  -19.0755  -45.0625 H         1 UNK         0.0600 
    152 H152       -4.7881  -17.4826  -45.6033 H         1 UNK         0.0600 
    153 H153       -4.0430  -18.2140  -44.1828 H         1 UNK         0.0600 
    154 H154       -2.3029  -17.2599  -45.7826 H         1 UNK         0.3000 
    155 H155        0.7455  -17.7249  -47.6212 H         1 UNK         0.0600 
    156 H156       -1.4948  -15.6266  -47.6254 H         1 UNK         0.0600 
    157 H157       -0.6985  -16.3299  -49.0200 H         1 UNK         0.0600 
    158 H158        0.1972  -15.2725  -47.9498 H         1 UNK         0.0600 
    159 H159       -0.1396  -15.9969  -45.4660 H         1 UNK         0.3000 
    160 H160        1.1614  -17.9750  -42.8106 H         1 UNK         0.0600 
    161 H161        2.1668  -15.3375  -44.0072 H         1 UNK         0.0600 
    162 H162        3.1563  -16.7718  -43.7537 H         1 UNK         0.0600 
    163 H163        2.4624  -15.9345  -42.3747 H         1 UNK         0.0600 
    164 H164       -0.0324  -15.3609  -42.9590 H         1 UNK         0.3000 
    165 H165       -3.4237  -16.4061  -42.7016 H         1 UNK         0.0600 
    166 H166       -3.3773  -15.0563  -40.6228 H         1 UNK         0.0600 
    167 H167       -2.6115  -16.6116  -40.3428 H         1 UNK         0.0600 
    168 H168       -1.6188  -15.1733  -40.5494 H         1 UNK         0.0600 
    169 H169       -2.2993  -13.8291  -42.5391 H         1 UNK         0.3000 
    170 H170       -1.3687  -13.1740  -45.7787 H         1 UNK         0.0600 
    171 H171       -3.7890  -13.1654  -46.3844 H         1 UNK         0.0600 
    172 H172       -4.1827  -12.3748  -44.8625 H         1 UNK         0.0600 
    173 H173       -3.2113  -11.5368  -46.0741 H         1 UNK         0.0600 
    174 H174       -2.2488  -11.4231  -43.6864 H         1 UNK         0.3000 
    175 H175       -0.5071  -10.2036  -42.6511 H         1 UNK         0.0600 
    176 H176       -0.5420  -12.5458  -40.6480 H         1 UNK         0.0600 
    177 H177       -0.7030  -10.8444  -40.2207 H         1 UNK         0.0600 
    178 H178       -1.9519  -11.6289  -41.1697 H         1 UNK         0.0600 
    179 H179        1.8155  -11.9177  -42.2702 H         1 UNK         0.3000 
    180 H180        3.9125   -9.2060  -41.8834 H         1 UNK         0.0600 
    181 H181        3.4141  -10.9944  -39.4420 H         1 UNK         0.0600 
    182 H182        3.4252   -9.2351  -39.4346 H         1 UNK         0.0600 
    183 H183        4.9025  -10.1133  -39.7917 H         1 UNK         0.0600 
    184 H184        4.4152  -11.9911  -41.4531 H         1 UNK         0.3000 
    185 H185        5.8332  -12.5247  -44.1897 H         1 UNK         0.0600 
    186 H186        5.2964  -14.8031  -43.1892 H         1 UNK         0.0600 
    187 H187        5.6018  -13.5724  -41.9809 H         1 UNK         0.0600 
    188 H188        3.9469  -14.0738  -42.3260 H         1 UNK         0.0600 
    189 H189        3.0628  -13.0788  -44.9791 H         1 UNK         0.3000 
    190 H190       -1.0875  -21.1484  -48.0245 H         1 UNK         0.3000 
    191 H191       -1.5415  -22.7391  -50.2827 H         1 UNK         0.0600 
    192 H192       -3.5239  -21.1367  -48.5735 H         1 UNK         0.0600 
    193 H193       -3.7979  -21.6673  -50.2164 H         1 UNK         0.0600 
    194 H194       -2.5359  -20.4999  -49.8817 H         1 UNK         0.0600 
    195 H195       -2.9307  -23.0673  -46.9819 H         1 UNK         0.3000 
    196 H196       -4.5287  -25.3563  -47.4874 H         1 UNK         0.0600 
    197 H197       -4.5457  -25.5621  -44.9956 H         1 UNK         0.0600 
    198 H198       -4.8442  -23.9083  -45.5096 H         1 UNK         0.0600 
    199 H199       -3.2635  -24.3626  -44.8792 H         1 UNK         0.0600 
    200 H200       -1.1471  -25.0834  -46.2698 H         1 UNK         0.3000 
    201 H201       -0.6704  -27.8639  -45.9523 H         1 UNK         0.0600 
    202 H202        0.7285  -26.1188  -44.8913 H         1 UNK         0.0600 
    203 H203        1.2922  -25.5672  -46.4668 H         1 UNK         0.0600 
    204 H204        1.7283  -27.1689  -45.8840 H         1 UNK         0.0600 
    205 H205       -0.2035  -25.7099  -48.7626 H         1 UNK         0.3000 
    206 H206        0.9387  -27.6858  -50.5097 H         1 UNK         0.0600 
    207 H207        1.2509  -25.2329  -50.8134 H         1 UNK         0.0600 
    208 H208        0.5098  -25.9371  -52.2420 H         1 UNK         0.0600 
    209 H209       -0.4760  -25.0291  -51.1027 H         1 UNK         0.0600 
    210 H210       -2.2598  -27.2605  -49.3958 H         1 UNK         0.3000 
    211 H211       -4.2682  -28.0279  -49.8542 H         1 UNK         0.0600 
    212 H212       -2.9648  -30.1035  -51.6941 H         1 UNK         0.0600 
    213 H213       -4.5734  -30.1864  -50.9918 H         1 UNK         0.0600 
    214 H214       -3.1624  -30.2735  -49.9501 H         1 UNK         0.0600 
    215 H215       -3.4711  -25.7612  -51.1684 H         1 UNK         0.3000 
    216 H216       -5.2469  -25.6880  -53.5289 H         1 UNK         0.0600 
    217 H217       -3.4936  -24.3801  -54.7855 H         1 UNK         0.0600 
    218 H218       -3.0074  -26.0517  -54.5361 H         1 UNK         0.0600 
    219 H219       -2.3093  -24.7770  -53.5425 H         1 UNK         0.0600 
    220 H220       -6.5252  -24.8465  -51.8281 H         1 UNK         0.3000 
    221 H221       -5.9891  -23.0912  -49.8677 H         1 UNK         0.0600 
    222 H222       -8.6010  -23.3633  -51.4554 H         1 UNK         0.0600 
    223 H223       -8.0934  -24.3829  -50.1088 H         1 UNK         0.0600 
    224 H224       -8.4758  -22.6937  -49.8334 H         1 UNK         0.0600 
    225 H225       -6.6338  -20.9470  -49.3654 H         1 UNK         0.3000 
    226 H226       -5.1313  -19.1102  -50.6647 H         1 UNK         0.0600 
    227 H227       -5.8114  -19.0259  -48.2800 H         1 UNK         0.0600 
    228 H228       -6.1200  -17.4851  -49.0604 H         1 UNK         0.0600 
    229 H229       -7.4544  -18.5876  -48.7418 H         1 UNK         0.0600 
    230 H230       -8.3732  -19.8183  -51.6490 H         1 UNK         0.3000 
    231 H231       -9.0104  -17.3676  -53.0170 H         1 UNK         0.0600 
    232 H232      -10.7311  -19.0730  -52.4726 H         1 UNK         0.0600 
    233 H233       -9.9271  -20.2543  -53.5074 H         1 UNK         0.0600 
    234 H234      -10.6627  -18.8180  -54.2092 H         1 UNK         0.0600 
    235 H235       -7.0446  -20.1964  -53.8031 H         1 UNK         0.3000 
    236 H236       -6.2796  -19.0645  -56.4665 H         1 UNK         0.0600 
    237 H237       -5.3299  -21.3320  -56.8700 H         1 UNK         0.0600 
    238 H238       -5.8872  -21.8728  -55.2906 H         1 UNK         0.0600 
    239 H239       -7.0527  -21.4291  -56.5362 H         1 UNK         0.0600 
    240 H240       -5.0947  -20.3866  -53.3677 H         1 UNK         0.3000 
    241 H241       -3.3392  -20.1424  -52.1386 H         1 UNK         0.0600 
    242 H242       -1.1934  -22.2208  -54.0670 H         1 UNK         0.3800 
    243 H243       -2.6720  -22.2014  -53.1233 H         1 UNK         0.3800 
    244 H244       -3.7784  -17.6231  -52.5000 H         1 UNK         0.0800 
    245 H245       -2.4180  -17.6107  -53.5770 H         1 UNK         0.0800 
    246 H246       -0.2329  -16.3309  -52.0222 H         1 UNK         0.0800 
    247 H247       -0.1513  -17.7608  -53.0180 H         1 UNK         0.0800 
@<TRIPOS>BOND
     1    1    2 1    
     2    1  127 1    
     3    1  128 1    
     4    1  129 1    
     5    2    3 2    
     6    2    4 am   BACKBONE|DICT|INTERRES
     7    4    5 1    
     8    4  130 1    
     9    5    6 1    
    10    5   65 1    
    11    5  131 1    
    12    6    7 1    
    13    6  132 1    
    14    6  133 1    
    15    7    8 1    
    16    8    9 1    
    17    8  134 1    
    18    8  135 1    
    19    9   10 ar   
    20    9   14 ar   
    21   10   11 ar   
    22   10  136 1    
    23   11   12 ar   
    24   11  126 1    
    25   12   13 ar   
    26   12  137 1    
    27   13   14 ar   
    28   13   15 1    
    29   14  138 1    
    30   15   16 1    
    31   15  139 1    
    32   15  140 1    
    33   16   17 1    
    34   17   18 1    
    35   17  141 1    
    36   17  142 1    
    37   18   19 1    
    38   18   67 1    
    39   18  143 1    
    40   19   20 am   BACKBONE|DICT|INTERRES
    41   19  144 1    
    42   20   21 2    
    43   20   22 1    
    44   22   23 1    
    45   22   24 1    
    46   22  145 1    
    47   23  146 1    
    48   23  147 1    
    49   23  148 1    
    50   24   25 am   BACKBONE|DICT|INTERRES
    51   24  149 1    
    52   25   26 2    
    53   25   27 1    
    54   27   28 1    
    55   27   29 1    
    56   27  150 1    
    57   28  151 1    
    58   28  152 1    
    59   28  153 1    
    60   29   30 am   BACKBONE|DICT|INTERRES
    61   29  154 1    
    62   30   31 2    
    63   30   32 1    
    64   32   33 1    
    65   32   34 1    
    66   32  155 1    
    67   33  156 1    
    68   33  157 1    
    69   33  158 1    
    70   34   35 am   BACKBONE|DICT|INTERRES
    71   34  159 1    
    72   35   36 2    
    73   35   37 1    
    74   37   38 1    
    75   37   39 1    
    76   37  160 1    
    77   38  161 1    
    78   38  162 1    
    79   38  163 1    
    80   39   40 am   BACKBONE|DICT|INTERRES
    81   39  164 1    
    82   40   41 2    
    83   40   42 1    
    84   42   43 1    
    85   42   44 1    
    86   42  165 1    
    87   43  166 1    
    88   43  167 1    
    89   43  168 1    
    90   44   45 am   BACKBONE|DICT|INTERRES
    91   44  169 1    
    92   45   46 2    
    93   45   47 1    
    94   47   48 1    
    95   47   49 1    
    96   47  170 1    
    97   48  171 1    
    98   48  172 1    
    99   48  173 1    
   100   49   50 am   BACKBONE|DICT|INTERRES
   101   49  174 1    
   102   50   51 2    
   103   50   52 1    
   104   52   53 1    
   105   52   54 1    
   106   52  175 1    
   107   53  176 1    
   108   53  177 1    
   109   53  178 1    
   110   54   55 am   BACKBONE|DICT|INTERRES
   111   54  179 1    
   112   55   56 2    
   113   55   57 1    
   114   57   58 1    
   115   57   59 1    
   116   57  180 1    
   117   58  181 1    
   118   58  182 1    
   119   58  183 1    
   120   59   60 am   BACKBONE|DICT|INTERRES
   121   59  184 1    
   122   60   61 2    
   123   60   62 1    
   124   62   63 1    
   125   62   64 1    
   126   62  185 1    
   127   63  186 1    
   128   63  187 1    
   129   63  188 1    
   130   64   65 am   BACKBONE|DICT|INTERRES
   131   64  189 1    
   132   65   66 2    
   133   67   68 2    
   134   67   69 am   BACKBONE|DICT|INTERRES
   135   69   70 1    
   136   69  190 1    
   137   70   71 1    
   138   70   72 1    
   139   70  191 1    
   140   71  192 1    
   141   71  193 1    
   142   71  194 1    
   143   72   73 2    
   144   72   74 am   BACKBONE|DICT|INTERRES
   145   74   75 1    
   146   74  195 1    
   147   75   76 1    
   148   75   77 1    
   149   75  196 1    
   150   76  197 1    
   151   76  198 1    
   152   76  199 1    
   153   77   78 2    
   154   77   79 am   BACKBONE|DICT|INTERRES
   155   79   80 1    
   156   79  200 1    
   157   80   81 1    
   158   80   82 1    
   159   80  201 1    
   160   81  202 1    
   161   81  203 1    
   162   81  204 1    
   163   82   83 2    
   164   82   84 am   BACKBONE|DICT|INTERRES
   165   84   85 1    
   166   84  205 1    
   167   85   86 1    
   168   85   87 1    
   169   85  206 1    
   170   86  207 1    
   171   86  208 1    
   172   86  209 1    
   173   87   88 2    
   174   87   89 am   BACKBONE|DICT|INTERRES
   175   89   90 1    
   176   89  210 1    
   177   90   91 1    
   178   90   92 1    
   179   90  211 1    
   180   91  212 1    
   181   91  213 1    
   182   91  214 1    
   183   92   93 2    
   184   92   94 am   BACKBONE|DICT|INTERRES
   185   94   95 1    
   186   94  215 1    
   187   95   96 1    
   188   95   97 1    
   189   95  216 1    
   190   96  217 1    
   191   96  218 1    
   192   96  219 1    
   193   97   98 2    
   194   97   99 am   BACKBONE|DICT|INTERRES
   195   99  100 1    
   196   99  220 1    
   197  100  101 1    
   198  100  102 1    
   199  100  221 1    
   200  101  222 1    
   201  101  223 1    
   202  101  224 1    
   203  102  103 2    
   204  102  104 am   BACKBONE|DICT|INTERRES
   205  104  105 1    
   206  104  225 1    
   207  105  106 1    
   208  105  107 1    
   209  105  226 1    
   210  106  227 1    
   211  106  228 1    
   212  106  229 1    
   213  107  108 2    
   214  107  109 am   BACKBONE|DICT|INTERRES
   215  109  110 1    
   216  109  230 1    
   217  110  111 1    
   218  110  112 1    
   219  110  231 1    
   220  111  232 1    
   221  111  233 1    
   222  111  234 1    
   223  112  113 2    
   224  112  114 am   BACKBONE|DICT|INTERRES
   225  114  115 1    
   226  114  235 1    
   227  115  116 1    
   228  115  117 1    
   229  115  236 1    
   230  116  237 1    
   231  116  238 1    
   232  116  239 1    
   233  117  118 2    
   234  117  119 am   BACKBONE|DICT|INTERRES
   235  119  120 1    
   236  119  240 1    
   237  120  121 1    
   238  120  124 1    
   239  120  241 1    
   240  121  122 am   BACKBONE|DICT|INTERRES
   241  121  123 2    
   242  122  242 1    
   243  122  243 1    
   244  124  125 1    
   245  124  244 1    
   246  124  245 1    
   247  125  126 1    
   248  126  246 1    
   249  126  247 1    
@<TRIPOS>SUBSTRUCTURE
     1 UNK         1 GROUP             0       ****    0 ROOT    
