@<TRIPOS>MOLECULE
3R540
247   249    1
SMALL
USER_CHARGES


@<TRIPOS>ATOM
      1 CA         -2.8083  -12.8874  -43.1250 C.3       0 UNK        -0.1800 
      2 C          -2.4390  -12.6203  -44.5766 C.2       0 UNK         0.5000 
      3 O          -3.1969  -11.9692  -45.2964 O.2       0 UNK        -0.5000 
      4 N          -1.2780  -13.1274  -45.0063 N.am      1 UNK        -0.5000 
      5 CA         -0.7119  -12.9046  -46.3384 C.3       1 UNK         0.1400 
      6 C6          0.2203  -14.0771  -46.7452 C.3       23 UNK        -0.0398 
      7 S7          0.0454  -14.5612  -48.4909 S.3       23 UNK        -0.2404 
      8 C8         -1.3181  -15.7514  -48.3319 C.3       23 UNK        -0.0205 
      9 C9         -1.4541  -16.6292  -49.5614 C.ar      23 UNK        -0.0193 
     10 C10        -2.2021  -16.1957  -50.6582 C.ar      23 UNK        -0.1150 
     11 C11        -2.3518  -17.0138  -51.7814 C.ar      23 UNK        -0.0193 
     12 C12        -1.7607  -18.2817  -51.7899 C.ar      23 UNK        -0.1150 
     13 C13        -1.0066  -18.7251  -50.6993 C.ar      23 UNK        -0.0193 
     14 C14        -0.8483  -17.8882  -49.5915 C.ar      23 UNK        -0.1150 
     15 C15        -0.3558  -20.1004  -50.7268 C.3       23 UNK        -0.0205 
     16 S16        -1.4446  -21.3793  -50.0194 S.3       23 UNK        -0.2404 
     17 C17        -1.2631  -21.0861  -48.2251 C.3       23 UNK        -0.0398 
     18 CA         -0.9632  -22.3812  -47.4275 C.3       11 UNK         0.1400 
     19 N          -0.1129  -22.1206  -46.2590 N.am      11 UNK        -0.5000 
     20 C           0.4449  -23.0740  -45.4982 C.2       10 UNK         0.5000 
     21 O           0.3155  -24.2780  -45.7104 O.2       10 UNK        -0.5000 
     22 CA          1.2419  -22.6142  -44.2657 C.3       10 UNK         0.1400 
     23 CB          2.6348  -22.1115  -44.6726 C.3       10 UNK        -0.1800 
     24 N           0.5433  -21.5861  -43.4948 N.am      10 UNK        -0.5000 
     25 C          -0.6348  -21.7676  -42.8806 C.2       9 UNK         0.5000 
     26 O          -1.2360  -22.8407  -42.8613 O.2       9 UNK        -0.5000 
     27 CA         -1.2793  -20.5326  -42.2248 C.3       9 UNK         0.1400 
     28 CB         -0.6623  -20.2570  -40.8460 C.3       9 UNK        -0.1800 
     29 N          -1.1801  -19.3345  -43.0587 N.am      9 UNK        -0.5000 
     30 C          -1.7100  -19.2146  -44.2846 C.2       8 UNK         0.5000 
     31 O          -2.3752  -20.0904  -44.8375 O.2       8 UNK        -0.5000 
     32 CA         -1.3845  -17.9237  -45.0502 C.3       8 UNK         0.1400 
     33 CB         -2.2717  -16.7572  -44.5883 C.3       8 UNK        -0.1800 
     34 N           0.0286  -17.5622  -44.9280 N.am      8 UNK        -0.5000 
     35 C           1.0301  -18.2670  -45.4750 C.2       7 UNK         0.5000 
     36 O           0.8579  -19.2502  -46.1953 O.2       7 UNK        -0.5000 
     37 CA          2.4617  -17.8340  -45.1134 C.3       7 UNK         0.1400 
     38 CB          2.9572  -16.7214  -46.0479 C.3       7 UNK        -0.1800 
     39 N           2.5722  -17.3948  -43.7213 N.am      7 UNK        -0.5000 
     40 C           2.4975  -18.2245  -42.6697 C.2       6 UNK         0.5000 
     41 O           2.3493  -19.4407  -42.7739 O.2       6 UNK        -0.5000 
     42 CA          2.5577  -17.5929  -41.2661 C.3       6 UNK         0.1400 
     43 CB          4.0145  -17.4688  -40.7960 C.3       6 UNK        -0.1800 
     44 N           1.9168  -16.2802  -41.1936 N.am      6 UNK        -0.5000 
     45 C           0.6221  -16.0367  -41.4427 C.2       5 UNK         0.5000 
     46 O          -0.1939  -16.9119  -41.7314 O.2       5 UNK        -0.5000 
     47 CA          0.1814  -14.5596  -41.4271 C.3       5 UNK         0.1400 
     48 CB         -0.3974  -14.1783  -40.0577 C.3       5 UNK        -0.1800 
     49 N           1.2639  -13.6318  -41.7772 N.am      5 UNK        -0.5000 
     50 C           1.8545  -13.5894  -42.9781 C.2       4 UNK         0.5000 
     51 O           1.4830  -14.2738  -43.9360 O.2       4 UNK        -0.5000 
     52 CA          3.1001  -12.7013  -43.1068 C.3       4 UNK         0.1400 
     53 CB          4.2865  -13.3636  -42.3742 C.3       4 UNK        -0.1800 
     54 N           3.4028  -12.5331  -44.5252 N.am      4 UNK        -0.5000 
     55 C           4.3339  -11.7319  -45.0575 C.2       3 UNK         0.5000 
     56 O           5.0649  -10.9902  -44.4001 O.2       3 UNK        -0.5000 
     57 CA          4.4533  -11.7553  -46.5926 C.3       3 UNK         0.1400 
     58 CB          4.8906  -13.1404  -47.0997 C.3       3 UNK        -0.1800 
     59 N           3.1949  -11.3782  -47.2333 N.am      3 UNK        -0.5000 
     60 C           2.6944  -10.1340  -47.2634 C.2       2 UNK         0.5000 
     61 O           3.2914   -9.1424  -46.8431 O.2       2 UNK        -0.5000 
     62 CA          1.2748   -9.9750  -47.8466 C.3       2 UNK         0.1400 
     63 CB          1.3375   -9.7014  -49.3570 C.3       2 UNK        -0.1800 
     64 N           0.4244  -11.1442  -47.6038 N.am      2 UNK        -0.5000 
     65 C           0.0352  -11.5559  -46.3898 C.2       1 UNK         0.5000 
     66 O           0.2941  -10.9451  -45.3489 O.2       1 UNK        -0.5000 
     67 C          -2.2587  -23.1287  -47.0410 C.2       11 UNK         0.5000 
     68 O          -2.6518  -24.0769  -47.7259 O.2       11 UNK        -0.5000 
     69 N          -2.8790  -22.7157  -45.9261 N.am      12 UNK        -0.5000 
     70 CA         -4.0508  -23.3594  -45.3346 C.3       12 UNK         0.1400 
     71 CB         -4.5976  -22.4948  -44.1898 C.3       12 UNK        -0.1800 
     72 C          -3.7645  -24.7942  -44.8559 C.2       12 UNK         0.5000 
     73 O          -4.5689  -25.6877  -45.1155 O.2       12 UNK        -0.5000 
     74 N          -2.6188  -25.0007  -44.1954 N.am      13 UNK        -0.5000 
     75 CA         -2.1735  -26.3096  -43.7197 C.3       13 UNK         0.1400 
     76 CB         -0.9875  -26.1305  -42.7594 C.3       13 UNK        -0.1800 
     77 C          -1.8052  -27.2720  -44.8637 C.2       13 UNK         0.5000 
     78 O          -2.1799  -28.4443  -44.8126 O.2       13 UNK        -0.5000 
     79 N          -1.0666  -26.7684  -45.8610 N.am      14 UNK        -0.5000 
     80 CA         -0.5294  -27.5639  -46.9619 C.3       14 UNK         0.1400 
     81 CB          0.6526  -26.8199  -47.6036 C.3       14 UNK        -0.1800 
     82 C          -1.5744  -27.9205  -48.0305 C.2       14 UNK         0.5000 
     83 O          -1.6112  -29.0719  -48.4677 O.2       14 UNK        -0.5000 
     84 N          -2.3644  -26.9296  -48.4649 N.am      15 UNK        -0.5000 
     85 CA         -3.1795  -27.0215  -49.6799 C.3       15 UNK         0.1400 
     86 CB         -2.5597  -26.0864  -50.7326 C.3       15 UNK        -0.1800 
     87 C          -4.6602  -26.6677  -49.4694 C.2       15 UNK         0.5000 
     88 O          -5.4359  -26.8184  -50.4138 O.2       15 UNK        -0.5000 
     89 N          -5.0282  -26.1863  -48.2716 N.am      16 UNK        -0.5000 
     90 CA         -6.3065  -25.5273  -47.9622 C.3       16 UNK         0.1400 
     91 CB         -7.5068  -26.4846  -48.1268 C.3       16 UNK        -0.1800 
     92 C          -6.4601  -24.1973  -48.7333 C.2       16 UNK         0.5000 
     93 O          -7.5577  -23.8632  -49.1832 O.2       16 UNK        -0.5000 
     94 N          -5.3359  -23.4729  -48.8556 N.am      17 UNK        -0.5000 
     95 CA         -5.1243  -22.2435  -49.6237 C.3       17 UNK         0.1400 
     96 CB         -6.0643  -21.1137  -49.1512 C.3       17 UNK        -0.1800 
     97 C          -5.1722  -22.4763  -51.1501 C.2       17 UNK         0.5000 
     98 O          -5.2660  -23.6178  -51.6047 O.2       17 UNK        -0.5000 
     99 N          -5.0742  -21.3813  -51.9187 N.am      18 UNK        -0.5000 
    100 CA        -5.1853  -21.3252  -53.3833 C.3       18 UNK         0.1400 
    101 CB        -6.6097  -21.7151  -53.8332 C.3       18 UNK        -0.1800 
    102 C         -4.0834  -22.0926  -54.1488 C.2       18 UNK         0.5000 
    103 O         -4.3052  -22.4984  -55.2908 O.2       18 UNK        -0.5000 
    104 N         -2.9081  -22.2660  -53.5255 N.am      19 UNK        -0.5000 
    105 CA        -1.7552  -22.9420  -54.1310 C.3       19 UNK         0.1400 
    106 CB        -0.8344  -23.4694  -53.0209 C.3       19 UNK        -0.1800 
    107 C         -0.9610  -22.0372  -55.0939 C.2       19 UNK         0.5000 
    108 O         -0.2295  -22.5547  -55.9395 O.2       19 UNK        -0.5000 
    109 N         -1.1049  -20.7150  -54.9379 N.am      20 UNK        -0.5000 
    110 CA        -0.4741  -19.6896  -55.7681 C.3       20 UNK         0.1400 
    111 CB         0.1880  -18.6403  -54.8523 C.3       20 UNK        -0.1800 
    112 C         -1.5103  -19.0836  -56.7365 C.2       20 UNK         0.5000 
    113 O         -2.4690  -19.7605  -57.1154 O.2       20 UNK        -0.5000 
    114 N         -1.3095  -17.8150  -57.1211 N.am      21 UNK        -0.5000 
    115 CA        -2.1094  -17.0706  -58.1019 C.3       21 UNK         0.1400 
    116 CB        -1.4861  -15.6791  -58.2927 C.3       21 UNK        -0.1800 
    117 C         -3.6107  -16.9432  -57.7691 C.2       21 UNK         0.5000 
    118 O         -4.4159  -16.7775  -58.6865 O.2       21 UNK        -0.5000 
    119 N         -3.9620  -17.0365  -56.4801 N.am      22 UNK        -0.5000 
    120 CA        -5.3501  -17.1034  -55.9982 C.3       22 UNK         0.1400 
    121 C         -6.0346  -18.4939  -56.1744 C.2       22 UNK         0.5000 
    122 N         -5.3348  -19.5396  -56.6009 N.am      22 UNK        -0.7600 
    123 O         -7.2318  -18.6216  -55.9342 O.2       22 UNK        -0.5000 
    124 C124       -5.4886  -16.5433  -54.5582 C.3       23 UNK        -0.0398 
    125 S125       -4.6315  -17.5131  -53.2670 S.3       23 UNK        -0.2404 
    126 C126       -3.1368  -16.5179  -52.9870 C.3       23 UNK        -0.0205 
    127 H127       -2.0544  -12.4711  -42.4567 H         1 UNK         0.0600 
    128 H128       -2.8895  -13.9587  -42.9413 H         1 UNK         0.0600 
    129 H129       -3.7666  -12.4294  -42.8793 H         1 UNK         0.0600 
    130 H130       -0.6605  -13.5938  -44.3560 H         1 UNK         0.3000 
    131 H131       -1.5406  -12.8465  -47.0476 H         1 UNK         0.0600 
    132 H132        1.2701  -13.8444  -46.5645 H         1 UNK         0.0800 
    133 H133        0.0261  -14.9571  -46.1324 H         1 UNK         0.0800 
    134 H134       -1.1445  -16.3828  -47.4638 H         1 UNK         0.0800 
    135 H135       -2.2506  -15.2171  -48.1434 H         1 UNK         0.0800 
    136 H136       -2.6624  -15.2178  -50.6359 H         1 UNK         0.1150 
    137 H137       -1.8895  -18.9237  -52.6478 H         1 UNK         0.1150 
    138 H138       -0.2594  -18.2158  -48.7466 H         1 UNK         0.1150 
    139 H139       -0.1192  -20.3692  -51.7571 H         1 UNK         0.0800 
    140 H140        0.5980  -20.0839  -50.1971 H         1 UNK         0.0800 
    141 H141       -2.1437  -20.5632  -47.8469 H         1 UNK         0.0800 
    142 H142       -0.4362  -20.3916  -48.0937 H         1 UNK         0.0800 
    143 H143       -0.3889  -23.0526  -48.0699 H         1 UNK         0.0600 
    144 H144        0.0645  -21.1479  -46.0313 H         1 UNK         0.3000 
    145 H145        1.3740  -23.4817  -43.6159 H         1 UNK         0.0600 
    146 H146        3.2395  -21.8767  -43.7966 H         1 UNK         0.0600 
    147 H147        3.1721  -22.8695  -45.2439 H         1 UNK         0.0600 
    148 H148        2.5769  -21.2146  -45.2892 H         1 UNK         0.0600 
    149 H149        1.0109  -20.6886  -43.4072 H         1 UNK         0.3000 
    150 H150       -2.3404  -20.7474  -42.0841 H         1 UNK         0.0600 
    151 H151       -0.7817  -21.1181  -40.1874 H         1 UNK         0.0600 
    152 H152       -1.1418  -19.4063  -40.3614 H         1 UNK         0.0600 
    153 H153        0.4040  -20.0445  -40.9168 H         1 UNK         0.0600 
    154 H154       -0.6812  -18.5427  -42.6634 H         1 UNK         0.3000 
    155 H155       -1.6011  -18.1193  -46.1019 H         1 UNK         0.0600 
    156 H156       -2.0828  -16.4859  -43.5499 H         1 UNK         0.0600 
    157 H157       -3.3278  -17.0170  -44.6703 H         1 UNK         0.0600 
    158 H158       -2.1113  -15.8713  -45.2011 H         1 UNK         0.0600 
    159 H159        0.2579  -16.8000  -44.3069 H         1 UNK         0.3000 
    160 H160        3.1116  -18.7006  -45.2522 H         1 UNK         0.0600 
    161 H161        2.3892  -15.8033  -45.9161 H         1 UNK         0.0600 
    162 H162        2.8656  -17.0172  -47.0939 H         1 UNK         0.0600 
    163 H163        4.0070  -16.4923  -45.8646 H         1 UNK         0.0600 
    164 H164        2.6509  -16.4009  -43.5599 H         1 UNK         0.3000 
    165 H165        2.0319  -18.2586  -40.5793 H         1 UNK         0.0600 
    166 H166        4.0686  -17.1015  -39.7710 H         1 UNK         0.0600 
    167 H167        4.5159  -18.4374  -40.8194 H         1 UNK         0.0600 
    168 H168        4.5859  -16.7878  -41.4280 H         1 UNK         0.0600 
    169 H169        2.5109  -15.5003  -40.9570 H         1 UNK         0.3000 
    170 H170       -0.6074  -14.4577  -42.1726 H         1 UNK         0.0600 
    171 H171       -1.2207  -14.8397  -39.7843 H         1 UNK         0.0600 
    172 H172        0.3536  -14.2449  -39.2696 H         1 UNK         0.0600 
    173 H173       -0.7889  -13.1609  -40.0648 H         1 UNK         0.0600 
    174 H174        1.6128  -13.0433  -41.0339 H         1 UNK         0.3000 
    175 H175        2.8826  -11.7246  -42.6707 H         1 UNK         0.0600 
    176 H176        4.5415  -14.3280  -42.8157 H         1 UNK         0.0600 
    177 H177        5.1790  -12.7394  -42.4036 H         1 UNK         0.0600 
    178 H178        4.0598  -13.5336  -41.3212 H         1 UNK         0.0600 
    179 H179        2.8209  -13.1001  -45.1259 H         1 UNK         0.3000 
    180 H180        5.2210  -11.0340  -46.8814 H         1 UNK         0.0600 
    181 H181        4.1397  -13.9063  -46.9027 H         1 UNK         0.0600 
    182 H182        5.8166  -13.4573  -46.6182 H         1 UNK         0.0600 
    183 H183        5.0741  -13.1239  -48.1741 H         1 UNK         0.0600 
    184 H184        2.6427  -12.1230  -47.6294 H         1 UNK         0.3000 
    185 H185        0.8120   -9.1131  -47.3612 H         1 UNK         0.0600 
    186 H186        1.9473   -8.8221  -49.5691 H         1 UNK         0.0600 
    187 H187        1.7715  -10.5410  -49.9015 H         1 UNK         0.0600 
    188 H188        0.3446   -9.5126  -49.7655 H         1 UNK         0.0600 
    189 H189        0.1769  -11.6972  -48.4128 H         1 UNK         0.3000 
    190 H190       -2.5221  -21.8966  -45.4402 H         1 UNK         0.3000 
    191 H191       -4.8224  -23.4126  -46.1029 H         1 UNK         0.0600 
    192 H192       -4.8751  -21.5021  -44.5450 H         1 UNK         0.0600 
    193 H193       -5.4891  -22.9449  -43.7516 H         1 UNK         0.0600 
    194 H194       -3.8659  -22.3706  -43.3917 H         1 UNK         0.0600 
    195 H195       -2.0289  -24.2056  -43.9653 H         1 UNK         0.3000 
    196 H196       -2.9942  -26.7610  -43.1582 H         1 UNK         0.0600 
    197 H197       -0.6384  -27.0931  -42.3838 H         1 UNK         0.0600 
    198 H198       -1.2684  -25.5270  -41.8961 H         1 UNK         0.0600 
    199 H199       -0.1439  -25.6414  -43.2477 H         1 UNK         0.0600 
    200 H200       -0.7543  -25.8013  -45.8055 H         1 UNK         0.3000 
    201 H201       -0.1441  -28.4996  -46.5507 H         1 UNK         0.0600 
    202 H202        1.4430  -26.6350  -46.8759 H         1 UNK         0.0600 
    203 H203        0.3472  -25.8576  -48.0169 H         1 UNK         0.0600 
    204 H204        1.0885  -27.4030  -48.4158 H         1 UNK         0.0600 
    205 H205       -2.2767  -26.0045  -48.0549 H         1 UNK         0.3000 
    206 H206       -3.1668  -28.0360  -50.0829 H         1 UNK         0.0600 
    207 H207       -1.5264  -26.3603  -50.9461 H         1 UNK         0.0600 
    208 H208       -3.1079  -26.1295  -51.6748 H         1 UNK         0.0600 
    209 H209       -2.5701  -25.0483  -50.3969 H         1 UNK         0.0600 
    210 H210       -4.3305  -26.1450  -47.5412 H         1 UNK         0.3000 
    211 H211       -6.2739  -25.2515  -46.9101 H         1 UNK         0.0600 
    212 H212       -7.7034  -26.7243  -49.1716 H         1 UNK         0.0600 
    213 H213       -8.4156  -26.0365  -47.7236 H         1 UNK         0.0600 
    214 H214       -7.3416  -27.4193  -47.5911 H         1 UNK         0.0600 
    215 H215       -4.4833  -23.8781  -48.4831 H         1 UNK         0.3000 
    216 H216       -4.1089  -21.9351  -49.3874 H         1 UNK         0.0600 
    217 H217       -5.7459  -20.1454  -49.5380 H         1 UNK         0.0600 
    218 H218       -6.0690  -21.0351  -48.0639 H         1 UNK         0.0600 
    219 H219       -7.0913  -21.2740  -49.4806 H         1 UNK         0.0600 
    220 H220       -4.9673  -20.4857  -51.4631 H         1 UNK         0.3000 
    221 H221       -5.0436  -20.2815  -53.6559 H         1 UNK         0.0600 
    222 H222       -6.8174  -22.7704  -53.6549 H         1 UNK         0.0600 
    223 H223       -7.3624  -21.1298  -53.3052 H         1 UNK         0.0600 
    224 H224       -6.7522  -21.5310  -54.8981 H         1 UNK         0.0600 
    225 H225       -2.8041  -21.9365  -52.5767 H         1 UNK         0.3000 
    226 H226       -2.1142  -23.8008  -54.7023 H         1 UNK         0.0600 
    227 H227       -1.3856  -24.0729  -52.3022 H         1 UNK         0.0600 
    228 H228       -0.0464  -24.0983  -53.4369 H         1 UNK         0.0600 
    229 H229       -0.3486  -22.6598  -52.4779 H         1 UNK         0.0600 
    230 H230       -1.7853  -20.3966  -54.2666 H         1 UNK         0.3000 
    231 H231        0.3101  -20.1351  -56.3830 H         1 UNK         0.0600 
    232 H232       -0.5467  -18.0076  -54.3560 H         1 UNK         0.0600 
    233 H233        0.8555  -17.9885  -55.4169 H         1 UNK         0.0600 
    234 H234        0.7927  -19.1164  -54.0800 H         1 UNK         0.0600 
    235 H235       -0.5037  -17.3300  -56.7538 H         1 UNK         0.3000 
    236 H236       -2.0387  -17.6077  -59.0499 H         1 UNK         0.0600 
    237 H237       -0.4542  -15.7514  -58.6367 H         1 UNK         0.0600 
    238 H238       -2.0348  -15.1024  -59.0387 H         1 UNK         0.0600 
    239 H239       -1.4929  -15.1058  -57.3648 H         1 UNK         0.0600 
    240 H240       -3.2416  -17.1960  -55.7941 H         1 UNK         0.3000 
    241 H241       -5.9350  -16.4324  -56.6304 H         1 UNK         0.0600 
    242 H242       -5.7958  -20.4268  -56.7191 H         1 UNK         0.3800 
    243 H243       -4.3430  -19.4703  -56.8091 H         1 UNK         0.3800 
    244 H244       -5.1338  -15.5123  -54.5330 H         1 UNK         0.0800 
    245 H245       -6.5432  -16.4870  -54.2834 H         1 UNK         0.0800 
    246 H246       -3.4221  -15.4738  -52.8491 H         1 UNK         0.0800 
    247 H247       -2.5003  -16.5503  -53.8713 H         1 UNK         0.0800 
@<TRIPOS>BOND
     1    1    2 1    
     2    1  127 1    
     3    1  128 1    
     4    1  129 1    
     5    2    3 2    
     6    2    4 am   BACKBONE|DICT|INTERRES
     7    4    5 1    
     8    4  130 1    
     9    5    6 1    
    10    5   65 1    
    11    5  131 1    
    12    6    7 1    
    13    6  132 1    
    14    6  133 1    
    15    7    8 1    
    16    8    9 1    
    17    8  134 1    
    18    8  135 1    
    19    9   10 ar   
    20    9   14 ar   
    21   10   11 ar   
    22   10  136 1    
    23   11   12 ar   
    24   11  126 1    
    25   12   13 ar   
    26   12  137 1    
    27   13   14 ar   
    28   13   15 1    
    29   14  138 1    
    30   15   16 1    
    31   15  139 1    
    32   15  140 1    
    33   16   17 1    
    34   17   18 1    
    35   17  141 1    
    36   17  142 1    
    37   18   19 1    
    38   18   67 1    
    39   18  143 1    
    40   19   20 am   BACKBONE|DICT|INTERRES
    41   19  144 1    
    42   20   21 2    
    43   20   22 1    
    44   22   23 1    
    45   22   24 1    
    46   22  145 1    
    47   23  146 1    
    48   23  147 1    
    49   23  148 1    
    50   24   25 am   BACKBONE|DICT|INTERRES
    51   24  149 1    
    52   25   26 2    
    53   25   27 1    
    54   27   28 1    
    55   27   29 1    
    56   27  150 1    
    57   28  151 1    
    58   28  152 1    
    59   28  153 1    
    60   29   30 am   BACKBONE|DICT|INTERRES
    61   29  154 1    
    62   30   31 2    
    63   30   32 1    
    64   32   33 1    
    65   32   34 1    
    66   32  155 1    
    67   33  156 1    
    68   33  157 1    
    69   33  158 1    
    70   34   35 am   BACKBONE|DICT|INTERRES
    71   34  159 1    
    72   35   36 2    
    73   35   37 1    
    74   37   38 1    
    75   37   39 1    
    76   37  160 1    
    77   38  161 1    
    78   38  162 1    
    79   38  163 1    
    80   39   40 am   BACKBONE|DICT|INTERRES
    81   39  164 1    
    82   40   41 2    
    83   40   42 1    
    84   42   43 1    
    85   42   44 1    
    86   42  165 1    
    87   43  166 1    
    88   43  167 1    
    89   43  168 1    
    90   44   45 am   BACKBONE|DICT|INTERRES
    91   44  169 1    
    92   45   46 2    
    93   45   47 1    
    94   47   48 1    
    95   47   49 1    
    96   47  170 1    
    97   48  171 1    
    98   48  172 1    
    99   48  173 1    
   100   49   50 am   BACKBONE|DICT|INTERRES
   101   49  174 1    
   102   50   51 2    
   103   50   52 1    
   104   52   53 1    
   105   52   54 1    
   106   52  175 1    
   107   53  176 1    
   108   53  177 1    
   109   53  178 1    
   110   54   55 am   BACKBONE|DICT|INTERRES
   111   54  179 1    
   112   55   56 2    
   113   55   57 1    
   114   57   58 1    
   115   57   59 1    
   116   57  180 1    
   117   58  181 1    
   118   58  182 1    
   119   58  183 1    
   120   59   60 am   BACKBONE|DICT|INTERRES
   121   59  184 1    
   122   60   61 2    
   123   60   62 1    
   124   62   63 1    
   125   62   64 1    
   126   62  185 1    
   127   63  186 1    
   128   63  187 1    
   129   63  188 1    
   130   64   65 am   BACKBONE|DICT|INTERRES
   131   64  189 1    
   132   65   66 2    
   133   67   68 2    
   134   67   69 am   BACKBONE|DICT|INTERRES
   135   69   70 1    
   136   69  190 1    
   137   70   71 1    
   138   70   72 1    
   139   70  191 1    
   140   71  192 1    
   141   71  193 1    
   142   71  194 1    
   143   72   73 2    
   144   72   74 am   BACKBONE|DICT|INTERRES
   145   74   75 1    
   146   74  195 1    
   147   75   76 1    
   148   75   77 1    
   149   75  196 1    
   150   76  197 1    
   151   76  198 1    
   152   76  199 1    
   153   77   78 2    
   154   77   79 am   BACKBONE|DICT|INTERRES
   155   79   80 1    
   156   79  200 1    
   157   80   81 1    
   158   80   82 1    
   159   80  201 1    
   160   81  202 1    
   161   81  203 1    
   162   81  204 1    
   163   82   83 2    
   164   82   84 am   BACKBONE|DICT|INTERRES
   165   84   85 1    
   166   84  205 1    
   167   85   86 1    
   168   85   87 1    
   169   85  206 1    
   170   86  207 1    
   171   86  208 1    
   172   86  209 1    
   173   87   88 2    
   174   87   89 am   BACKBONE|DICT|INTERRES
   175   89   90 1    
   176   89  210 1    
   177   90   91 1    
   178   90   92 1    
   179   90  211 1    
   180   91  212 1    
   181   91  213 1    
   182   91  214 1    
   183   92   93 2    
   184   92   94 am   BACKBONE|DICT|INTERRES
   185   94   95 1    
   186   94  215 1    
   187   95   96 1    
   188   95   97 1    
   189   95  216 1    
   190   96  217 1    
   191   96  218 1    
   192   96  219 1    
   193   97   98 2    
   194   97   99 am   BACKBONE|DICT|INTERRES
   195   99  100 1    
   196   99  220 1    
   197  100  101 1    
   198  100  102 1    
   199  100  221 1    
   200  101  222 1    
   201  101  223 1    
   202  101  224 1    
   203  102  103 2    
   204  102  104 am   BACKBONE|DICT|INTERRES
   205  104  105 1    
   206  104  225 1    
   207  105  106 1    
   208  105  107 1    
   209  105  226 1    
   210  106  227 1    
   211  106  228 1    
   212  106  229 1    
   213  107  108 2    
   214  107  109 am   BACKBONE|DICT|INTERRES
   215  109  110 1    
   216  109  230 1    
   217  110  111 1    
   218  110  112 1    
   219  110  231 1    
   220  111  232 1    
   221  111  233 1    
   222  111  234 1    
   223  112  113 2    
   224  112  114 am   BACKBONE|DICT|INTERRES
   225  114  115 1    
   226  114  235 1    
   227  115  116 1    
   228  115  117 1    
   229  115  236 1    
   230  116  237 1    
   231  116  238 1    
   232  116  239 1    
   233  117  118 2    
   234  117  119 am   BACKBONE|DICT|INTERRES
   235  119  120 1    
   236  119  240 1    
   237  120  121 1    
   238  120  124 1    
   239  120  241 1    
   240  121  122 am   BACKBONE|DICT|INTERRES
   241  121  123 2    
   242  122  242 1    
   243  122  243 1    
   244  124  125 1    
   245  124  244 1    
   246  124  245 1    
   247  125  126 1    
   248  126  246 1    
   249  126  247 1    
@<TRIPOS>SUBSTRUCTURE
     1 UNK         1 GROUP             0       ****    0 ROOT    
