@<TRIPOS>MOLECULE
3R540
247   249    1
SMALL
USER_CHARGES


@<TRIPOS>ATOM
      1 CA         -0.6108  -12.1162  -49.0243 C.3       0 UNK        -0.1800 
      2 C          -0.9794  -13.0881  -47.9053 C.2       0 UNK         0.5000 
      3 O          -1.8124  -12.7517  -47.0676 O.2       0 UNK        -0.5000 
      4 N          -0.4069  -14.3009  -47.8467 N.am      1 UNK        -0.5000 
      5 CA          0.6060  -14.8616  -48.7539 C.3       1 UNK         0.1400 
      6 C6          0.7930  -16.3901  -48.5504 C.3       23 UNK        -0.0398 
      7 S7         -0.6992  -17.4597  -48.5678 S.3       23 UNK        -0.2404 
      8 C8         -1.9602  -16.5883  -49.5594 C.3       23 UNK        -0.0205 
      9 C9         -3.2958  -17.3206  -49.5494 C.ar      23 UNK        -0.0193 
     10 C10        -3.9057  -17.6902  -50.7517 C.ar      23 UNK        -0.1150 
     11 C11        -5.1497  -18.3288  -50.7520 C.ar      23 UNK        -0.0193 
     12 C12        -5.7786  -18.6083  -49.5352 C.ar      23 UNK        -0.1150 
     13 C13        -5.1890  -18.2311  -48.3256 C.ar      23 UNK        -0.0193 
     14 C14        -3.9486  -17.5859  -48.3399 C.ar      23 UNK        -0.1150 
     15 C15        -5.9226  -18.4758  -47.0141 C.3       23 UNK        -0.0205 
     16 S16        -5.7338  -20.1845  -46.4114 S.3       23 UNK        -0.2404 
     17 C17        -4.0652  -20.1453  -45.6738 C.3       23 UNK        -0.0398 
     18 CA         -3.1526  -21.2835  -46.1872 C.3       11 UNK         0.1400 
     19 N          -1.7373  -20.9844  -45.9725 N.am      11 UNK        -0.5000 
     20 C          -0.7293  -21.6548  -46.5436 C.2       10 UNK         0.5000 
     21 O          -0.8882  -22.5373  -47.3878 O.2       10 UNK        -0.5000 
     22 CA          0.6962  -21.3037  -46.0889 C.3       10 UNK         0.1400 
     23 CB          1.2540  -20.1396  -46.9185 C.3       10 UNK        -0.1800 
     24 N           0.7872  -20.9846  -44.6633 N.am      10 UNK        -0.5000 
     25 C           0.5491  -21.8550  -43.6728 C.2       9 UNK         0.5000 
     26 O           0.2136  -23.0231  -43.8602 O.2       9 UNK        -0.5000 
     27 CA          0.6686  -21.3299  -42.2310 C.3       9 UNK         0.1400 
     28 CB          2.1407  -21.1628  -41.8256 C.3       9 UNK        -0.1800 
     29 N          -0.0472  -20.0724  -42.0205 N.am      9 UNK        -0.5000 
     30 C          -1.3728  -19.9198  -42.1555 C.2       8 UNK         0.5000 
     31 O          -2.1441  -20.8278  -42.4663 O.2       8 UNK        -0.5000 
     32 CA         -1.9225  -18.4947  -41.9710 C.3       8 UNK         0.1400 
     33 CB         -1.9741  -18.1085  -40.4852 C.3       8 UNK        -0.1800 
     34 N          -1.1484  -17.5010  -42.7134 N.am      8 UNK        -0.5000 
     35 C          -0.9878  -17.5118  -44.0445 C.2       7 UNK         0.5000 
     36 O          -1.5050  -18.3375  -44.7945 O.2       7 UNK        -0.5000 
     37 CA         -0.0490  -16.4517  -44.6324 C.3       7 UNK         0.1400 
     38 CB         -0.7276  -15.0744  -44.6465 C.3       7 UNK        -0.1800 
     39 N           1.2167  -16.3674  -43.9100 N.am      7 UNK        -0.5000 
     40 C           2.1054  -17.3595  -43.7687 C.2       6 UNK         0.5000 
     41 O           1.9874  -18.4667  -44.2876 O.2       6 UNK        -0.5000 
     42 CA          3.3053  -17.0828  -42.8489 C.3       6 UNK         0.1400 
     43 CB          4.4069  -16.3133  -43.5926 C.3       6 UNK        -0.1800 
     44 N           2.9141  -16.3445  -41.6491 N.am      6 UNK        -0.5000 
     45 C           2.1506  -16.8415  -40.6662 C.2       5 UNK         0.5000 
     46 O           1.7179  -17.9946  -40.6489 O.2       5 UNK        -0.5000 
     47 CA          1.7828  -15.8685  -39.5313 C.3       5 UNK         0.1400 
     48 CB          2.9219  -15.7751  -38.5051 C.3       5 UNK        -0.1800 
     49 N           1.4619  -14.5276  -40.0263 N.am      5 UNK        -0.5000 
     50 C           0.3642  -14.2365  -40.7377 C.2       4 UNK         0.5000 
     51 O          -0.4978  -15.0661  -41.0307 O.2       4 UNK        -0.5000 
     52 CA          0.2264  -12.7847  -41.2405 C.3       4 UNK         0.1400 
     53 CB         -0.3473  -11.8844  -40.1360 C.3       4 UNK        -0.1800 
     54 N           1.4665  -12.1897  -41.7589 N.am      4 UNK        -0.5000 
     55 C           2.2040  -12.7079  -42.7497 C.2       3 UNK         0.5000 
     56 O           1.9876  -13.8141  -43.2434 O.2       3 UNK        -0.5000 
     57 CA          3.3975  -11.8775  -43.2625 C.3       3 UNK         0.1400 
     58 CB          4.6113  -12.0680  -42.3400 C.3       3 UNK        -0.1800 
     59 N           3.7743  -12.2804  -44.6219 N.am      3 UNK        -0.5000 
     60 C           3.0116  -12.1007  -45.7093 C.2       2 UNK         0.5000 
     61 O           1.9942  -11.4044  -45.7161 O.2       2 UNK        -0.5000 
     62 CA          3.4015  -12.8565  -46.9932 C.3       2 UNK         0.1400 
     63 CB          4.6329  -13.7791  -46.8515 C.3       2 UNK        -0.1800 
     64 N           2.2286  -13.6263  -47.3917 N.am      2 UNK        -0.5000 
     65 C           1.9711  -14.1507  -48.5958 C.2       1 UNK         0.5000 
     66 O           2.7380  -14.0816  -49.5558 O.2       1 UNK        -0.5000 
     67 C          -3.5259  -22.6507  -45.5737 C.2       11 UNK         0.5000 
     68 O          -4.1257  -23.4772  -46.2615 O.2       11 UNK        -0.5000 
     69 N          -3.1224  -22.8882  -44.3148 N.am      12 UNK        -0.5000 
     70 CA         -3.3667  -24.1338  -43.5793 C.3       12 UNK         0.1400 
     71 CB         -2.9314  -23.9621  -42.1164 C.3       12 UNK        -0.1800 
     72 C          -2.6812  -25.3624  -44.2065 C.2       12 UNK         0.5000 
     73 O          -3.2764  -26.4399  -44.2405 O.2       12 UNK        -0.5000 
     74 N          -1.4596  -25.1714  -44.7211 N.am      13 UNK        -0.5000 
     75 CA         -0.6884  -26.1772  -45.4550 C.3       13 UNK         0.1400 
     76 CB          0.7811  -25.7283  -45.5080 C.3       13 UNK        -0.1800 
     77 C          -1.2115  -26.4376  -46.8824 C.2       13 UNK         0.5000 
     78 O          -0.7640  -27.3951  -47.5147 O.2       13 UNK        -0.5000 
     79 N          -2.1149  -25.5744  -47.3724 N.am      14 UNK        -0.5000 
     80 CA         -2.6716  -25.5356  -48.7284 C.3       14 UNK         0.1400 
     81 CB         -3.5012  -26.8009  -49.0302 C.3       14 UNK        -0.1800 
     82 C          -1.6113  -25.2309  -49.8086 C.2       14 UNK         0.5000 
     83 O          -1.7738  -25.6278  -50.9637 O.2       14 UNK        -0.5000 
     84 N          -0.5533  -24.5078  -49.4162 N.am      15 UNK        -0.5000 
     85 CA          0.4597  -23.9563  -50.3117 C.3       15 UNK         0.1400 
     86 CB          1.7249  -23.6108  -49.5112 C.3       15 UNK        -0.1800 
     87 C          -0.0917  -22.7198  -51.0377 C.2       15 UNK         0.5000 
     88 O           0.0929  -22.5996  -52.2479 O.2       15 UNK        -0.5000 
     89 N          -0.7920  -21.8562  -50.2819 N.am      16 UNK        -0.5000 
     90 CA         -1.6558  -20.7601  -50.7406 C.3       16 UNK         0.1400 
     91 CB         -2.9775  -21.3629  -51.2574 C.3       16 UNK        -0.1800 
     92 C          -1.0040  -19.7988  -51.7620 C.2       16 UNK         0.5000 
     93 O          -1.6578  -19.3750  -52.7145 O.2       16 UNK        -0.5000 
     94 N           0.2948  -19.5104  -51.5809 N.am      17 UNK        -0.5000 
     95 CA          1.1462  -18.7103  -52.4772 C.3       17 UNK         0.1400 
     96 CB          0.7103  -17.2294  -52.4645 C.3       17 UNK        -0.1800 
     97 C           1.2408  -19.2763  -53.9157 C.2       17 UNK         0.5000 
     98 O           1.4322  -18.5132  -54.8635 O.2       17 UNK        -0.5000 
     99 N           1.0804  -20.6020  -54.0474 N.am      18 UNK        -0.5000 
    100 CA         0.9847  -21.3943  -55.2786 C.3       18 UNK         0.1400 
    101 CB         2.2288  -21.2194  -56.1745 C.3       18 UNK        -0.1800 
    102 C         -0.3368  -21.1999  -56.0545 C.2       18 UNK         0.5000 
    103 O         -0.4794  -21.7611  -57.1423 O.2       18 UNK        -0.5000 
    104 N         -1.2967  -20.4564  -55.4882 N.am      19 UNK        -0.5000 
    105 CA        -2.6398  -20.2715  -56.0237 C.3       19 UNK         0.1400 
    106 CB        -3.0575  -18.8012  -55.8409 C.3       19 UNK        -0.1800 
    107 C         -3.5757  -21.2474  -55.2966 C.2       19 UNK         0.5000 
    108 O         -4.2434  -20.8652  -54.3343 O.2       19 UNK        -0.5000 
    109 N         -3.5751  -22.5103  -55.7455 N.am      20 UNK        -0.5000 
    110 CA        -4.3859  -23.6047  -55.2048 C.3       20 UNK         0.1400 
    111 CB        -4.1168  -24.8819  -56.0149 C.3       20 UNK        -0.1800 
    112 C         -5.8872  -23.2574  -55.1997 C.2       20 UNK         0.5000 
    113 O         -6.4528  -22.9844  -56.2618 O.2       20 UNK        -0.5000 
    114 N         -6.4729  -23.1948  -53.9942 N.am      21 UNK        -0.5000 
    115 CA        -7.8417  -22.7461  -53.6946 C.3       21 UNK         0.1400 
    116 CB        -8.8702  -23.7629  -54.2320 C.3       21 UNK        -0.1800 
    117 C         -8.1429  -21.2995  -54.1574 C.2       21 UNK         0.5000 
    118 O         -9.3067  -20.9535  -54.3667 O.2       21 UNK        -0.5000 
    119 N         -7.0859  -20.4926  -54.3255 N.am      22 UNK        -0.5000 
    120 CA        -7.0788  -19.1472  -54.9185 C.3       22 UNK         0.1400 
    121 C         -7.4358  -19.1306  -56.4391 C.2       22 UNK         0.5000 
    122 N         -7.3478  -20.2462  -57.1566 N.am      22 UNK        -0.7600 
    123 O         -7.7646  -18.0855  -56.9939 O.2       22 UNK        -0.5000 
    124 C124       -7.8681  -18.0921  -54.0887 C.3       23 UNK        -0.0398 
    125 S125       -7.3173  -17.7364  -52.3721 S.3       23 UNK        -0.2404 
    126 C126       -5.8117  -18.7222  -52.0645 C.3       23 UNK        -0.0205 
    127 H127        0.3658  -11.6698  -48.8380 H         1 UNK         0.0600 
    128 H128       -1.3401  -11.3076  -49.0776 H         1 UNK         0.0600 
    129 H129       -0.5972  -12.6060  -49.9972 H         1 UNK         0.0600 
    130 H130       -0.7121  -14.9277  -47.1178 H         1 UNK         0.3000 
    131 H131        0.2716  -14.7056  -49.7806 H         1 UNK         0.0600 
    132 H132        1.4706  -16.7787  -49.3119 H         1 UNK         0.0800 
    133 H133        1.3045  -16.5819  -47.6063 H         1 UNK         0.0800 
    134 H134       -1.5916  -16.4691  -50.5787 H         1 UNK         0.0800 
    135 H135       -2.1454  -15.5890  -49.1740 H         1 UNK         0.0800 
    136 H136       -3.4139  -17.4776  -51.6908 H         1 UNK         0.1150 
    137 H137       -6.7410  -19.1007  -49.5320 H         1 UNK         0.1150 
    138 H138       -3.4900  -17.2801  -47.4099 H         1 UNK         0.1150 
    139 H139       -5.5889  -17.7747  -46.2473 H         1 UNK         0.0800 
    140 H140       -6.9854  -18.2757  -47.1580 H         1 UNK         0.0800 
    141 H141       -4.1466  -20.1564  -44.5854 H         1 UNK         0.0800 
    142 H142       -3.6157  -19.1861  -45.9252 H         1 UNK         0.0800 
    143 H143       -3.2941  -21.3588  -47.2682 H         1 UNK         0.0600 
    144 H144       -1.5249  -20.2174  -45.3407 H         1 UNK         0.3000 
    145 H145        1.3207  -22.1800  -46.2732 H         1 UNK         0.0600 
    146 H146        2.3134  -19.9839  -46.7144 H         1 UNK         0.0600 
    147 H147        1.1507  -20.3261  -47.9881 H         1 UNK         0.0600 
    148 H148        0.7328  -19.2096  -46.6919 H         1 UNK         0.0600 
    149 H149        1.0884  -20.0395  -44.4317 H         1 UNK         0.3000 
    150 H150        0.2213  -22.0764  -41.5716 H         1 UNK         0.0600 
    151 H151        2.6901  -22.0959  -41.9560 H         1 UNK         0.0600 
    152 H152        2.2299  -20.8759  -40.7777 H         1 UNK         0.0600 
    153 H153        2.6407  -20.4004  -42.4231 H         1 UNK         0.0600 
    154 H154        0.5129  -19.2707  -41.7501 H         1 UNK         0.3000 
    155 H155       -2.9420  -18.4795  -42.3618 H         1 UNK         0.0600 
    156 H156       -0.9782  -18.0636  -40.0437 H         1 UNK         0.0600 
    157 H157       -2.5560  -18.8324  -39.9133 H         1 UNK         0.0600 
    158 H158       -2.4424  -17.1335  -40.3489 H         1 UNK         0.0600 
    159 H159       -0.7105  -16.7635  -42.1710 H         1 UNK         0.3000 
    160 H160        0.1730  -16.7424  -45.6580 H         1 UNK         0.0600 
    161 H161       -1.0058  -14.7512  -43.6439 H         1 UNK         0.0600 
    162 H162       -1.6401  -15.0932  -45.2436 H         1 UNK         0.0600 
    163 H163       -0.0714  -14.3102  -45.0617 H         1 UNK         0.0600 
    164 H164        1.4372  -15.4645  -43.4916 H         1 UNK         0.3000 
    165 H165        3.7151  -18.0460  -42.5377 H         1 UNK         0.0600 
    166 H166        5.2933  -16.1947  -42.9695 H         1 UNK         0.0600 
    167 H167        4.7122  -16.8435  -44.4956 H         1 UNK         0.0600 
    168 H168        4.0739  -15.3201  -43.8915 H         1 UNK         0.0600 
    169 H169        3.1678  -15.3687  -41.6154 H         1 UNK         0.3000 
    170 H170        0.9009  -16.2673  -39.0249 H         1 UNK         0.0600 
    171 H171        3.1714  -16.7605  -38.1093 H         1 UNK         0.0600 
    172 H172        3.8291  -15.3580  -38.9440 H         1 UNK         0.0600 
    173 H173        2.6393  -15.1484  -37.6590 H         1 UNK         0.0600 
    174 H174        2.1244  -13.7911  -39.8328 H         1 UNK         0.3000 
    175 H175       -0.4891  -12.7996  -42.0652 H         1 UNK         0.0600 
    176 H176        0.3447  -11.7821  -39.2992 H         1 UNK         0.0600 
    177 H177       -0.5670  -10.8860  -40.5146 H         1 UNK         0.0600 
    178 H178       -1.2796  -12.2930  -39.7433 H         1 UNK         0.0600 
    179 H179        1.7180  -11.2857  -41.3857 H         1 UNK         0.3000 
    180 H180        3.1147  -10.8229  -43.2737 H         1 UNK         0.0600 
    181 H181        4.9249  -13.1120  -42.2965 H         1 UNK         0.0600 
    182 H182        4.3854  -11.7503  -41.3214 H         1 UNK         0.0600 
    183 H183        5.4615  -11.4768  -42.6809 H         1 UNK         0.0600 
    184 H184        4.5751  -12.8890  -44.6986 H         1 UNK         0.3000 
    185 H185        3.6081  -12.1051  -47.7578 H         1 UNK         0.0600 
    186 H186        5.5131  -13.2225  -46.5275 H         1 UNK         0.0600 
    187 H187        4.4561  -14.5835  -46.1378 H         1 UNK         0.0600 
    188 H188        4.8890  -14.2408  -47.8049 H         1 UNK         0.0600 
    189 H189        1.5055  -13.6748  -46.6864 H         1 UNK         0.3000 
    190 H190       -2.6351  -22.1572  -43.8032 H         1 UNK         0.3000 
    191 H191       -4.4429  -24.3175  -43.5921 H         1 UNK         0.0600 
    192 H192       -1.8693  -23.7271  -42.0382 H         1 UNK         0.0600 
    193 H193       -3.1104  -24.8733  -41.5442 H         1 UNK         0.0600 
    194 H194       -3.4879  -23.1599  -41.6316 H         1 UNK         0.0600 
    195 H195       -1.0038  -24.2735  -44.5743 H         1 UNK         0.3000 
    196 H196       -0.7401  -27.1210  -44.9085 H         1 UNK         0.0600 
    197 H197        1.4016  -26.4679  -46.0156 H         1 UNK         0.0600 
    198 H198        1.1897  -25.5965  -44.5060 H         1 UNK         0.0600 
    199 H199        0.8919  -24.7838  -46.0424 H         1 UNK         0.0600 
    200 H200       -2.4271  -24.8271  -46.7646 H         1 UNK         0.3000 
    201 H201       -3.3570  -24.6870  -48.7416 H         1 UNK         0.0600 
    202 H202       -4.2361  -26.9855  -48.2466 H         1 UNK         0.0600 
    203 H203       -2.8737  -27.6879  -49.1191 H         1 UNK         0.0600 
    204 H204       -4.0482  -26.6944  -49.9676 H         1 UNK         0.0600 
    205 H205       -0.5536  -24.1529  -48.4658 H         1 UNK         0.3000 
    206 H206        0.7205  -24.7078  -51.0600 H         1 UNK         0.0600 
    207 H207        2.1257  -24.4926  -49.0110 H         1 UNK         0.0600 
    208 H208        2.5063  -23.2250  -50.1670 H         1 UNK         0.0600 
    209 H209        1.5329  -22.8546  -48.7501 H         1 UNK         0.0600 
    210 H210       -0.8557  -22.0661  -49.2905 H         1 UNK         0.3000 
    211 H211       -1.8878  -20.1553  -49.8625 H         1 UNK         0.0600 
    212 H212       -3.6782  -20.5860  -51.5573 H         1 UNK         0.0600 
    213 H213       -3.4672  -21.9590  -50.4875 H         1 UNK         0.0600 
    214 H214       -2.8140  -22.0023  -52.1257 H         1 UNK         0.0600 
    215 H215        0.7587  -19.9216  -50.7839 H         1 UNK         0.3000 
    216 H216        2.1550  -18.7614  -52.0657 H         1 UNK         0.0600 
    217 H217        1.4247  -16.6049  -53.0020 H         1 UNK         0.0600 
    218 H218        0.6484  -16.8421  -51.4507 H         1 UNK         0.0600 
    219 H219       -0.2635  -17.0893  -52.9347 H         1 UNK         0.0600 
    220 H220        0.8684  -21.1365  -53.2086 H         1 UNK         0.3000 
    221 H221        0.9742  -22.4335  -54.9473 H         1 UNK         0.0600 
    222 H222        2.2608  -20.2354  -56.6424 H         1 UNK         0.0600 
    223 H223        3.1485  -21.3531  -55.6051 H         1 UNK         0.0600 
    224 H224        2.2361  -21.9572  -56.9775 H         1 UNK         0.0600 
    225 H225       -1.1470  -20.0750  -54.5591 H         1 UNK         0.3000 
    226 H226       -2.6685  -20.4935  -57.0925 H         1 UNK         0.0600 
    227 H227       -2.3594  -18.1308  -56.3422 H         1 UNK         0.0600 
    228 H228       -4.0432  -18.6231  -56.2709 H         1 UNK         0.0600 
    229 H229       -3.0978  -18.5119  -54.7902 H         1 UNK         0.0600 
    230 H230       -2.9852  -22.7376  -56.5333 H         1 UNK         0.3000 
    231 H231       -4.0573  -23.7784  -54.1780 H         1 UNK         0.0600 
    232 H232       -3.0657  -25.1669  -55.9657 H         1 UNK         0.0600 
    233 H233       -4.3823  -24.7561  -57.0655 H         1 UNK         0.0600 
    234 H234       -4.6986  -25.7192  -55.6273 H         1 UNK         0.0600 
    235 H235       -5.9062  -23.4009  -53.1833 H         1 UNK         0.3000 
    236 H236       -7.9266  -22.7344  -52.6072 H         1 UNK         0.0600 
    237 H237       -8.8919  -23.7786  -55.3221 H         1 UNK         0.0600 
    238 H238       -8.6451  -24.7718  -53.8863 H         1 UNK         0.0600 
    239 H239       -9.8771  -23.5222  -53.8889 H         1 UNK         0.0600 
    240 H240       -6.1582  -20.8701  -54.1534 H         1 UNK         0.3000 
    241 H241       -6.0368  -18.8337  -54.9131 H         1 UNK         0.0600 
    242 H242       -7.5721  -20.2174  -58.1384 H         1 UNK         0.3800 
    243 H243       -7.0727  -21.1272  -56.7346 H         1 UNK         0.3800 
    244 H244       -8.9239  -18.3616  -54.0506 H         1 UNK         0.0800 
    245 H245       -7.8397  -17.1296  -54.6015 H         1 UNK         0.0800 
    246 H246       -5.1050  -18.5979  -52.8854 H         1 UNK         0.0800 
    247 H247       -6.0646  -19.7810  -52.0165 H         1 UNK         0.0800 
@<TRIPOS>BOND
     1    1    2 1    
     2    1  127 1    
     3    1  128 1    
     4    1  129 1    
     5    2    3 2    
     6    2    4 am   BACKBONE|DICT|INTERRES
     7    4    5 1    
     8    4  130 1    
     9    5    6 1    
    10    5   65 1    
    11    5  131 1    
    12    6    7 1    
    13    6  132 1    
    14    6  133 1    
    15    7    8 1    
    16    8    9 1    
    17    8  134 1    
    18    8  135 1    
    19    9   10 ar   
    20    9   14 ar   
    21   10   11 ar   
    22   10  136 1    
    23   11   12 ar   
    24   11  126 1    
    25   12   13 ar   
    26   12  137 1    
    27   13   14 ar   
    28   13   15 1    
    29   14  138 1    
    30   15   16 1    
    31   15  139 1    
    32   15  140 1    
    33   16   17 1    
    34   17   18 1    
    35   17  141 1    
    36   17  142 1    
    37   18   19 1    
    38   18   67 1    
    39   18  143 1    
    40   19   20 am   BACKBONE|DICT|INTERRES
    41   19  144 1    
    42   20   21 2    
    43   20   22 1    
    44   22   23 1    
    45   22   24 1    
    46   22  145 1    
    47   23  146 1    
    48   23  147 1    
    49   23  148 1    
    50   24   25 am   BACKBONE|DICT|INTERRES
    51   24  149 1    
    52   25   26 2    
    53   25   27 1    
    54   27   28 1    
    55   27   29 1    
    56   27  150 1    
    57   28  151 1    
    58   28  152 1    
    59   28  153 1    
    60   29   30 am   BACKBONE|DICT|INTERRES
    61   29  154 1    
    62   30   31 2    
    63   30   32 1    
    64   32   33 1    
    65   32   34 1    
    66   32  155 1    
    67   33  156 1    
    68   33  157 1    
    69   33  158 1    
    70   34   35 am   BACKBONE|DICT|INTERRES
    71   34  159 1    
    72   35   36 2    
    73   35   37 1    
    74   37   38 1    
    75   37   39 1    
    76   37  160 1    
    77   38  161 1    
    78   38  162 1    
    79   38  163 1    
    80   39   40 am   BACKBONE|DICT|INTERRES
    81   39  164 1    
    82   40   41 2    
    83   40   42 1    
    84   42   43 1    
    85   42   44 1    
    86   42  165 1    
    87   43  166 1    
    88   43  167 1    
    89   43  168 1    
    90   44   45 am   BACKBONE|DICT|INTERRES
    91   44  169 1    
    92   45   46 2    
    93   45   47 1    
    94   47   48 1    
    95   47   49 1    
    96   47  170 1    
    97   48  171 1    
    98   48  172 1    
    99   48  173 1    
   100   49   50 am   BACKBONE|DICT|INTERRES
   101   49  174 1    
   102   50   51 2    
   103   50   52 1    
   104   52   53 1    
   105   52   54 1    
   106   52  175 1    
   107   53  176 1    
   108   53  177 1    
   109   53  178 1    
   110   54   55 am   BACKBONE|DICT|INTERRES
   111   54  179 1    
   112   55   56 2    
   113   55   57 1    
   114   57   58 1    
   115   57   59 1    
   116   57  180 1    
   117   58  181 1    
   118   58  182 1    
   119   58  183 1    
   120   59   60 am   BACKBONE|DICT|INTERRES
   121   59  184 1    
   122   60   61 2    
   123   60   62 1    
   124   62   63 1    
   125   62   64 1    
   126   62  185 1    
   127   63  186 1    
   128   63  187 1    
   129   63  188 1    
   130   64   65 am   BACKBONE|DICT|INTERRES
   131   64  189 1    
   132   65   66 2    
   133   67   68 2    
   134   67   69 am   BACKBONE|DICT|INTERRES
   135   69   70 1    
   136   69  190 1    
   137   70   71 1    
   138   70   72 1    
   139   70  191 1    
   140   71  192 1    
   141   71  193 1    
   142   71  194 1    
   143   72   73 2    
   144   72   74 am   BACKBONE|DICT|INTERRES
   145   74   75 1    
   146   74  195 1    
   147   75   76 1    
   148   75   77 1    
   149   75  196 1    
   150   76  197 1    
   151   76  198 1    
   152   76  199 1    
   153   77   78 2    
   154   77   79 am   BACKBONE|DICT|INTERRES
   155   79   80 1    
   156   79  200 1    
   157   80   81 1    
   158   80   82 1    
   159   80  201 1    
   160   81  202 1    
   161   81  203 1    
   162   81  204 1    
   163   82   83 2    
   164   82   84 am   BACKBONE|DICT|INTERRES
   165   84   85 1    
   166   84  205 1    
   167   85   86 1    
   168   85   87 1    
   169   85  206 1    
   170   86  207 1    
   171   86  208 1    
   172   86  209 1    
   173   87   88 2    
   174   87   89 am   BACKBONE|DICT|INTERRES
   175   89   90 1    
   176   89  210 1    
   177   90   91 1    
   178   90   92 1    
   179   90  211 1    
   180   91  212 1    
   181   91  213 1    
   182   91  214 1    
   183   92   93 2    
   184   92   94 am   BACKBONE|DICT|INTERRES
   185   94   95 1    
   186   94  215 1    
   187   95   96 1    
   188   95   97 1    
   189   95  216 1    
   190   96  217 1    
   191   96  218 1    
   192   96  219 1    
   193   97   98 2    
   194   97   99 am   BACKBONE|DICT|INTERRES
   195   99  100 1    
   196   99  220 1    
   197  100  101 1    
   198  100  102 1    
   199  100  221 1    
   200  101  222 1    
   201  101  223 1    
   202  101  224 1    
   203  102  103 2    
   204  102  104 am   BACKBONE|DICT|INTERRES
   205  104  105 1    
   206  104  225 1    
   207  105  106 1    
   208  105  107 1    
   209  105  226 1    
   210  106  227 1    
   211  106  228 1    
   212  106  229 1    
   213  107  108 2    
   214  107  109 am   BACKBONE|DICT|INTERRES
   215  109  110 1    
   216  109  230 1    
   217  110  111 1    
   218  110  112 1    
   219  110  231 1    
   220  111  232 1    
   221  111  233 1    
   222  111  234 1    
   223  112  113 2    
   224  112  114 am   BACKBONE|DICT|INTERRES
   225  114  115 1    
   226  114  235 1    
   227  115  116 1    
   228  115  117 1    
   229  115  236 1    
   230  116  237 1    
   231  116  238 1    
   232  116  239 1    
   233  117  118 2    
   234  117  119 am   BACKBONE|DICT|INTERRES
   235  119  120 1    
   236  119  240 1    
   237  120  121 1    
   238  120  124 1    
   239  120  241 1    
   240  121  122 am   BACKBONE|DICT|INTERRES
   241  121  123 2    
   242  122  242 1    
   243  122  243 1    
   244  124  125 1    
   245  124  244 1    
   246  124  245 1    
   247  125  126 1    
   248  126  246 1    
   249  126  247 1    
@<TRIPOS>SUBSTRUCTURE
     1 UNK         1 GROUP             0       ****    0 ROOT    
