@<TRIPOS>MOLECULE
3R540
247   249    1
SMALL
USER_CHARGES


@<TRIPOS>ATOM
      1 CA         -1.4022   -9.9834  -44.7636 C.3       0 UNK        -0.1800 
      2 C          -1.6071  -11.4465  -45.1271 C.2       0 UNK         0.5000 
      3 O          -2.3912  -12.1352  -44.4738 O.2       0 UNK        -0.5000 
      4 N          -0.9082  -11.9211  -46.1687 N.am      1 UNK        -0.5000 
      5 CA         -0.9700  -13.2920  -46.6904 C.3       1 UNK         0.1400 
      6 C6         -2.3530  -13.5835  -47.3516 C.3       23 UNK        -0.0398 
      7 S7         -2.5229  -15.1753  -48.2276 S.3       23 UNK        -0.2404 
      8 C8         -1.4379  -14.9617  -49.6724 C.3       23 UNK        -0.0205 
      9 C9         -1.2812  -16.2876  -50.3966 C.ar      23 UNK        -0.0193 
     10 C10        -1.8689  -16.5005  -51.6460 C.ar      23 UNK        -0.1150 
     11 C11        -1.7746  -17.7496  -52.2676 C.ar      23 UNK        -0.0193 
     12 C12        -1.0833  -18.7858  -51.6290 C.ar      23 UNK        -0.1150 
     13 C13        -0.4884  -18.5836  -50.3811 C.ar      23 UNK        -0.0193 
     14 C14        -0.5787  -17.3260  -49.7821 C.ar      23 UNK        -0.1150 
     15 C15         0.2304  -19.7208  -49.6680 C.3       23 UNK        -0.0205 
     16 S16        -0.4962  -20.0515  -48.0291 S.3       23 UNK        -0.2404 
     17 C17         0.5153  -21.4625  -47.4463 C.3       23 UNK        -0.0398 
     18 CA         -0.1984  -22.6396  -46.7018 C.3       11 UNK         0.1400 
     19 N           0.3168  -22.8208  -45.3402 N.am      11 UNK        -0.5000 
     20 C           0.2157  -23.9601  -44.6372 C.2       10 UNK         0.5000 
     21 O          -0.3006  -24.9853  -45.0777 O.2       10 UNK        -0.5000 
     22 CA          0.7361  -23.9484  -43.1864 C.3       10 UNK         0.1400 
     23 CB          2.2248  -24.3232  -43.1480 C.3       10 UNK        -0.1800 
     24 N           0.5490  -22.6615  -42.5190 N.am      10 UNK        -0.5000 
     25 C          -0.6343  -22.0717  -42.2989 C.2       9 UNK         0.5000 
     26 O          -1.7150  -22.6014  -42.5533 O.2       9 UNK        -0.5000 
     27 CA         -0.6041  -20.6267  -41.7635 C.3       9 UNK         0.1400 
     28 CB         -0.8334  -20.6100  -40.2456 C.3       9 UNK        -0.1800 
     29 N           0.6371  -19.9071  -42.0714 N.am      9 UNK        -0.5000 
     30 C           1.0939  -19.6458  -43.3031 C.2       8 UNK         0.5000 
     31 O           0.5238  -19.9990  -44.3398 O.2       8 UNK        -0.5000 
     32 CA          2.4482  -18.9368  -43.3876 C.3       8 UNK         0.1400 
     33 CB          3.5947  -19.9505  -43.2088 C.3       8 UNK        -0.1800 
     34 N           2.5508  -18.2844  -44.6871 N.am      8 UNK        -0.5000 
     35 C           3.3956  -17.2934  -44.9858 C.2       7 UNK         0.5000 
     36 O           4.2395  -16.8629  -44.1970 O.2       7 UNK        -0.5000 
     37 CA          3.3058  -16.6767  -46.3921 C.3       7 UNK         0.1400 
     38 CB          2.0406  -17.0474  -47.1917 C.3       7 UNK        -0.1800 
     39 N           3.4182  -15.2303  -46.2568 N.am      7 UNK        -0.5000 
     40 C           3.9456  -14.4013  -47.1635 C.2       6 UNK         0.5000 
     41 O           4.2918  -14.7504  -48.2928 O.2       6 UNK        -0.5000 
     42 CA          4.1486  -12.9350  -46.7297 C.3       6 UNK         0.1400 
     43 CB          2.9548  -12.0725  -47.1675 C.3       6 UNK        -0.1800 
     44 N           4.3413  -12.7766  -45.2864 N.am      6 UNK        -0.5000 
     45 C           5.3749  -13.2558  -44.5775 C.2       5 UNK         0.5000 
     46 O           6.3430  -13.8196  -45.0893 O.2       5 UNK        -0.5000 
     47 CA          5.3317  -13.0723  -43.0433 C.3       5 UNK         0.1400 
     48 CB          6.4888  -12.1775  -42.5695 C.3       5 UNK        -0.1800 
     49 N           4.0727  -12.5087  -42.5433 N.am      5 UNK        -0.5000 
     50 C           2.9003  -13.1547  -42.4963 C.2       4 UNK         0.5000 
     51 O           2.7591  -14.3300  -42.8376 O.2       4 UNK        -0.5000 
     52 CA          1.6958  -12.3273  -42.0165 C.3       4 UNK         0.1400 
     53 CB          1.4884  -11.0799  -42.8947 C.3       4 UNK        -0.1800 
     54 N           0.4799  -13.1322  -42.0741 N.am      4 UNK        -0.5000 
     55 C          -0.3634  -13.3507  -41.0578 C.2       3 UNK         0.5000 
     56 O          -0.2106  -12.8692  -39.9340 O.2       3 UNK        -0.5000 
     57 CA         -1.5957  -14.2408  -41.3260 C.3       3 UNK         0.1400 
     58 CB         -2.8947  -13.4306  -41.1849 C.3       3 UNK        -0.1800 
     59 N          -1.5735  -14.8665  -42.6488 N.am      3 UNK        -0.5000 
     60 C          -0.9160  -15.9960  -42.9448 C.2       2 UNK         0.5000 
     61 O          -0.3148  -16.6718  -42.1099 O.2       2 UNK        -0.5000 
     62 CA         -0.9140  -16.4463  -44.4192 C.3       2 UNK         0.1400 
     63 CB         -1.8978  -17.6056  -44.6405 C.3       2 UNK        -0.1800 
     64 N          -1.2249  -15.3842  -45.3788 N.am      2 UNK        -0.5000 
     65 C          -0.4810  -14.2968  -45.6153 C.2       1 UNK         0.5000 
     66 O           0.5646  -14.0559  -45.0101 O.2       1 UNK        -0.5000 
     67 C          -1.7438  -22.6072  -46.6972 C.2       11 UNK         0.5000 
     68 O          -2.3675  -23.1900  -47.5848 O.2       11 UNK        -0.5000 
     69 N          -2.3361  -21.9712  -45.6761 N.am      12 UNK        -0.5000 
     70 CA         -3.7817  -21.9450  -45.4596 C.3       12 UNK         0.1400 
     71 CB         -4.1380  -20.8759  -44.4165 C.3       12 UNK        -0.1800 
     72 C          -4.3298  -23.3282  -45.0667 C.2       12 UNK         0.5000 
     73 O          -5.3506  -23.7480  -45.6107 O.2       12 UNK        -0.5000 
     74 N          -3.6139  -24.0342  -44.1793 N.am      13 UNK        -0.5000 
     75 CA         -3.9222  -25.4007  -43.7479 C.3       13 UNK         0.1400 
     76 CB         -2.9862  -25.7961  -42.5965 C.3       13 UNK        -0.1800 
     77 C          -3.8428  -26.4308  -44.8920 C.2       13 UNK         0.5000 
     78 O          -4.6801  -27.3311  -44.9586 O.2       13 UNK        -0.5000 
     79 N          -2.8641  -26.2583  -45.7912 N.am      14 UNK        -0.5000 
     80 CA         -2.6911  -27.0524  -47.0108 C.3       14 UNK         0.1400 
     81 CB         -1.2494  -26.8749  -47.5142 C.3       14 UNK        -0.1800 
     82 C          -3.6908  -26.6952  -48.1312 C.2       14 UNK         0.5000 
     83 O          -3.7353  -27.4033  -49.1377 O.2       14 UNK        -0.5000 
     84 N          -4.4462  -25.6003  -47.9548 N.am      15 UNK        -0.5000 
     85 CA         -5.3875  -24.9947  -48.9020 C.3       15 UNK         0.1400 
     86 CB         -6.5509  -25.9512  -49.2350 C.3       15 UNK        -0.1800 
     87 C          -4.7072  -24.4139  -50.1598 C.2       15 UNK         0.5000 
     88 O          -5.3695  -24.2160  -51.1789 O.2       15 UNK        -0.5000 
     89 N          -3.4108  -24.0879  -50.0567 N.am      16 UNK        -0.5000 
     90 CA         -2.6433  -23.3871  -51.0862 C.3       16 UNK         0.1400 
     91 CB         -1.1451  -23.4563  -50.7557 C.3       16 UNK        -0.1800 
     92 C          -3.1038  -21.9279  -51.2326 C.2       16 UNK         0.5000 
     93 O          -3.1167  -21.4097  -52.3457 O.2       16 UNK        -0.5000 
     94 N          -3.5456  -21.3207  -50.1208 N.am      17 UNK        -0.5000 
     95 CA         -4.1513  -19.9865  -50.0689 C.3       17 UNK         0.1400 
     96 CB         -4.4066  -19.6104  -48.6014 C.3       17 UNK        -0.1800 
     97 C          -5.4525  -19.8609  -50.8892 C.2       17 UNK         0.5000 
     98 O          -5.7879  -18.7609  -51.3284 O.2       17 UNK        -0.5000 
     99 N          -6.1594  -20.9839  -51.0770 N.am      18 UNK        -0.5000 
    100 CA        -7.3979  -21.0737  -51.8484 C.3       18 UNK         0.1400 
    101 CB        -8.3079  -22.1230  -51.1887 C.3       18 UNK        -0.1800 
    102 C         -7.1583  -21.4240  -53.3304 C.2       18 UNK         0.5000 
    103 O         -8.0872  -21.2906  -54.1288 O.2       18 UNK        -0.5000 
    104 N         -5.9479  -21.8795  -53.6836 N.am      19 UNK        -0.5000 
    105 CA        -5.5780  -22.2489  -55.0479 C.3       19 UNK         0.1400 
    106 CB        -4.3771  -23.2082  -55.0079 C.3       19 UNK        -0.1800 
    107 C         -5.2392  -20.9968  -55.8705 C.2       19 UNK         0.5000 
    108 O         -4.5004  -20.1370  -55.3903 O.2       19 UNK        -0.5000 
    109 N         -5.7359  -20.9338  -57.1126 N.am      20 UNK        -0.5000 
    110 CA        -5.4939  -19.8240  -58.0427 C.3       20 UNK         0.1400 
    111 CB        -6.4218  -19.9737  -59.2580 C.3       20 UNK        -0.1800 
    112 C         -4.0238  -19.7126  -58.4951 C.2       20 UNK         0.5000 
    113 O         -3.5526  -18.6095  -58.7730 O.2       20 UNK        -0.5000 
    114 N         -3.3275  -20.8560  -58.5432 N.am      21 UNK        -0.5000 
    115 CA        -1.9003  -20.9572  -58.8524 C.3       21 UNK         0.1400 
    116 CB        -1.6367  -22.3367  -59.4780 C.3       21 UNK        -0.1800 
    117 C         -0.9984  -20.7450  -57.6183 C.2       21 UNK         0.5000 
    118 O          0.2174  -20.6358  -57.7810 O.2       21 UNK        -0.5000 
    119 N         -1.5931  -20.7170  -56.4166 N.am      22 UNK        -0.5000 
    120 CA        -0.9273  -20.5812  -55.1085 C.3       22 UNK         0.1400 
    121 C         -0.0095  -21.7743  -54.6995 C.2       22 UNK         0.5000 
    122 N         -0.1173  -22.9389  -55.3279 N.am      22 UNK        -0.7600 
    123 O          0.7901  -21.6608  -53.7747 O.2       22 UNK        -0.5000 
    124 C124       -0.2443  -19.1965  -54.9088 C.3       23 UNK        -0.0398 
    125 S125       -1.3950  -17.7823  -55.0423 S.3       23 UNK        -0.2404 
    126 C126       -2.4825  -17.9967  -53.5919 C.3       23 UNK        -0.0205 
    127 H127       -1.3970   -9.8597  -43.6809 H         1 UNK         0.0600 
    128 H128       -2.2143   -9.3806  -45.1697 H         1 UNK         0.0600 
    129 H129       -0.4591   -9.6002  -45.1541 H         1 UNK         0.0600 
    130 H130       -0.2643  -11.3059  -46.6451 H         1 UNK         0.3000 
    131 H131       -0.2161  -13.3308  -47.4763 H         1 UNK         0.0600 
    132 H132       -3.1467  -13.5380  -46.6047 H         1 UNK         0.0800 
    133 H133       -2.5841  -12.7932  -48.0671 H         1 UNK         0.0800 
    134 H134       -1.8528  -14.1985  -50.3325 H         1 UNK         0.0800 
    135 H135       -0.4528  -14.6131  -49.3625 H         1 UNK         0.0800 
    136 H136       -2.4236  -15.7042  -52.1221 H         1 UNK         0.1150 
    137 H137       -1.0335  -19.7607  -52.0918 H         1 UNK         0.1150 
    138 H138       -0.1463  -17.1680  -48.8063 H         1 UNK         0.1150 
    139 H139        0.1933  -20.6312  -50.2680 H         1 UNK         0.0800 
    140 H140        1.2834  -19.4606  -49.5529 H         1 UNK         0.0800 
    141 H141        1.3105  -21.0436  -46.8281 H         1 UNK         0.0800 
    142 H142        1.0361  -21.8755  -48.3110 H         1 UNK         0.0800 
    143 H143        0.0652  -23.5474  -47.2498 H         1 UNK         0.0600 
    144 H144        0.6776  -21.9893  -44.8868 H         1 UNK         0.3000 
    145 H145        0.1785  -24.7003  -42.6252 H         1 UNK         0.0600 
    146 H146        2.5870  -24.3971  -42.1225 H         1 UNK         0.0600 
    147 H147        2.3959  -25.2907  -43.6221 H         1 UNK         0.0600 
    148 H148        2.8393  -23.5883  -43.6698 H         1 UNK         0.0600 
    149 H149        1.3848  -22.1554  -42.2684 H         1 UNK         0.3000 
    150 H150       -1.4271  -20.0896  -42.2380 H         1 UNK         0.0600 
    151 H151       -0.0256  -21.1109  -39.7106 H         1 UNK         0.0600 
    152 H152       -1.7640  -21.1165  -39.9853 H         1 UNK         0.0600 
    153 H153       -0.9049  -19.5892  -39.8696 H         1 UNK         0.0600 
    154 H154        1.1666  -19.5777  -41.2771 H         1 UNK         0.3000 
    155 H155        2.4918  -18.1793  -42.6017 H         1 UNK         0.0600 
    156 H156        3.5800  -20.7135  -43.9882 H         1 UNK         0.0600 
    157 H157        3.5247  -20.4602  -42.2472 H         1 UNK         0.0600 
    158 H158        4.5681  -19.4612  -43.2402 H         1 UNK         0.0600 
    159 H159        1.8613  -18.5940  -45.3608 H         1 UNK         0.3000 
    160 H160        4.1754  -17.0480  -46.9380 H         1 UNK         0.0600 
    161 H161        1.1330  -16.6978  -46.7024 H         1 UNK         0.0600 
    162 H162        1.9563  -18.1252  -47.3331 H         1 UNK         0.0600 
    163 H163        2.0701  -16.6017  -48.1859 H         1 UNK         0.0600 
    164 H164        3.1898  -14.8668  -45.3385 H         1 UNK         0.3000 
    165 H165        5.0445  -12.5643  -47.2319 H         1 UNK         0.0600 
    166 H166        3.1318  -11.0176  -46.9575 H         1 UNK         0.0600 
    167 H167        2.7759  -12.1650  -48.2395 H         1 UNK         0.0600 
    168 H168        2.0401  -12.3680  -46.6538 H         1 UNK         0.0600 
    169 H169        3.5937  -12.3276  -44.7802 H         1 UNK         0.3000 
    170 H170        5.4620  -14.0622  -42.6007 H         1 UNK         0.0600 
    171 H171        7.4526  -12.5856  -42.8767 H         1 UNK         0.0600 
    172 H172        6.4127  -11.1705  -42.9817 H         1 UNK         0.0600 
    173 H173        6.5059  -12.0963  -41.4825 H         1 UNK         0.0600 
    174 H174        4.1101  -11.5453  -42.2425 H         1 UNK         0.3000 
    175 H175        1.9055  -12.0117  -40.9927 H         1 UNK         0.0600 
    176 H176        2.3467  -10.4088  -42.8560 H         1 UNK         0.0600 
    177 H177        1.3238  -11.3479  -43.9392 H         1 UNK         0.0600 
    178 H178        0.6260  -10.5077  -42.5545 H         1 UNK         0.0600 
    179 H179        0.3401  -13.6260  -42.9495 H         1 UNK         0.3000 
    180 H180       -1.6040  -15.0216  -40.5626 H         1 UNK         0.0600 
    181 H181       -2.9321  -12.6019  -41.8922 H         1 UNK         0.0600 
    182 H182       -2.9858  -13.0088  -40.1832 H         1 UNK         0.0600 
    183 H183       -3.7714  -14.0563  -41.3530 H         1 UNK         0.0600 
    184 H184       -2.0169  -14.3499  -43.3972 H         1 UNK         0.3000 
    185 H185        0.0921  -16.8083  -44.6318 H         1 UNK         0.0600 
    186 H186       -1.7181  -18.4155  -43.9342 H         1 UNK         0.0600 
    187 H187       -2.9325  -17.2854  -44.5135 H         1 UNK         0.0600 
    188 H188       -1.7939  -18.0250  -45.6420 H         1 UNK         0.0600 
    189 H189       -2.0539  -15.5207  -45.9420 H         1 UNK         0.3000 
    190 H190       -1.7560  -21.5265  -44.9797 H         1 UNK         0.3000 
    191 H191       -4.2565  -21.6626  -46.4004 H         1 UNK         0.0600 
    192 H192       -3.8133  -19.8880  -44.7425 H         1 UNK         0.0600 
    193 H193       -5.2167  -20.8277  -44.2632 H         1 UNK         0.0600 
    194 H194       -3.6795  -21.0784  -43.4490 H         1 UNK         0.0600 
    195 H195       -2.8159  -23.5862  -43.7359 H         1 UNK         0.3000 
    196 H196       -4.9465  -25.4039  -43.3697 H         1 UNK         0.0600 
    197 H197       -3.2346  -26.7871  -42.2147 H         1 UNK         0.0600 
    198 H198       -3.0654  -25.0965  -41.7641 H         1 UNK         0.0600 
    199 H199       -1.9447  -25.8199  -42.9166 H         1 UNK         0.0600 
    200 H200       -2.1657  -25.5418  -45.6207 H         1 UNK         0.3000 
    201 H201       -2.8397  -28.1056  -46.7643 H         1 UNK         0.0600 
    202 H202       -1.0653  -27.4759  -48.4055 H         1 UNK         0.0600 
    203 H203       -0.5272  -27.1875  -46.7600 H         1 UNK         0.0600 
    204 H204       -1.0397  -25.8355  -47.7699 H         1 UNK         0.0600 
    205 H205       -4.3323  -25.0917  -47.0871 H         1 UNK         0.3000 
    206 H206       -5.8154  -24.1376  -48.3804 H         1 UNK         0.0600 
    207 H207       -7.0091  -26.3450  -48.3277 H         1 UNK         0.0600 
    208 H208       -7.3326  -25.4352  -49.7937 H         1 UNK         0.0600 
    209 H209       -6.2233  -26.7958  -49.8413 H         1 UNK         0.0600 
    210 H210       -2.9652  -24.1790  -49.1488 H         1 UNK         0.3000 
    211 H211       -2.8084  -23.8910  -52.0411 H         1 UNK         0.0600 
    212 H212       -0.9107  -22.9363  -49.8274 H         1 UNK         0.0600 
    213 H213       -0.5526  -22.9944  -51.5466 H         1 UNK         0.0600 
    214 H214       -0.8093  -24.4886  -50.6570 H         1 UNK         0.0600 
    215 H215       -3.4657  -21.8205  -49.2457 H         1 UNK         0.3000 
    216 H216       -3.4385  -19.2737  -50.4794 H         1 UNK         0.0600 
    217 H217       -4.7812  -18.5890  -48.5226 H         1 UNK         0.0600 
    218 H218       -3.4919  -19.6630  -48.0111 H         1 UNK         0.0600 
    219 H219       -5.1456  -20.2672  -48.1418 H         1 UNK         0.0600 
    220 H220       -5.7955  -21.8533  -50.7145 H         1 UNK         0.3000 
    221 H221       -7.9178  -20.1139  -51.8196 H         1 UNK         0.0600 
    222 H222       -7.8607  -23.1173  -51.2110 H         1 UNK         0.0600 
    223 H223       -8.5130  -21.8702  -50.1484 H         1 UNK         0.0600 
    224 H224       -9.2683  -22.1854  -51.7019 H         1 UNK         0.0600 
    225 H225       -5.2009  -21.8769  -53.0016 H         1 UNK         0.3000 
    226 H226       -6.4162  -22.7727  -55.5126 H         1 UNK         0.0600 
    227 H227       -4.1330  -23.5688  -56.0077 H         1 UNK         0.0600 
    228 H228       -3.4840  -22.7264  -54.6090 H         1 UNK         0.0600 
    229 H229       -4.5895  -24.0806  -54.3894 H         1 UNK         0.0600 
    230 H230       -6.3348  -21.6768  -57.4436 H         1 UNK         0.3000 
    231 H231       -5.7500  -18.8939  -57.5307 H         1 UNK         0.0600 
    232 H232       -6.2295  -20.9002  -59.8004 H         1 UNK         0.0600 
    233 H233       -6.2840  -19.1488  -59.9584 H         1 UNK         0.0600 
    234 H234       -7.4697  -19.9706  -58.9573 H         1 UNK         0.0600 
    235 H235       -3.8043  -21.7157  -58.3148 H         1 UNK         0.3000 
    236 H236       -1.6346  -20.1943  -59.5872 H         1 UNK         0.0600 
    237 H237       -2.2283  -22.4783  -60.3828 H         1 UNK         0.0600 
    238 H238       -0.5882  -22.4469  -59.7581 H         1 UNK         0.0600 
    239 H239       -1.8790  -23.1459  -58.7881 H         1 UNK         0.0600 
    240 H240       -2.6031  -20.7446  -56.3777 H         1 UNK         0.3000 
    241 H241       -1.7374  -20.6497  -54.3879 H         1 UNK         0.0600 
    242 H242       -0.7687  -23.0569  -56.0858 H         1 UNK         0.3800 
    243 H243        0.4744  -23.7058  -55.0503 H         1 UNK         0.3800 
    244 H244        0.2586  -19.1327  -53.9447 H         1 UNK         0.0800 
    245 H245        0.5451  -19.0589  -55.6482 H         1 UNK         0.0800 
    246 H246       -3.3200  -17.3050  -53.6927 H         1 UNK         0.0800 
    247 H247       -2.9349  -18.9873  -53.5902 H         1 UNK         0.0800 
@<TRIPOS>BOND
     1    1    2 1    
     2    1  127 1    
     3    1  128 1    
     4    1  129 1    
     5    2    3 2    
     6    2    4 am   BACKBONE|DICT|INTERRES
     7    4    5 1    
     8    4  130 1    
     9    5    6 1    
    10    5   65 1    
    11    5  131 1    
    12    6    7 1    
    13    6  132 1    
    14    6  133 1    
    15    7    8 1    
    16    8    9 1    
    17    8  134 1    
    18    8  135 1    
    19    9   10 ar   
    20    9   14 ar   
    21   10   11 ar   
    22   10  136 1    
    23   11   12 ar   
    24   11  126 1    
    25   12   13 ar   
    26   12  137 1    
    27   13   14 ar   
    28   13   15 1    
    29   14  138 1    
    30   15   16 1    
    31   15  139 1    
    32   15  140 1    
    33   16   17 1    
    34   17   18 1    
    35   17  141 1    
    36   17  142 1    
    37   18   19 1    
    38   18   67 1    
    39   18  143 1    
    40   19   20 am   BACKBONE|DICT|INTERRES
    41   19  144 1    
    42   20   21 2    
    43   20   22 1    
    44   22   23 1    
    45   22   24 1    
    46   22  145 1    
    47   23  146 1    
    48   23  147 1    
    49   23  148 1    
    50   24   25 am   BACKBONE|DICT|INTERRES
    51   24  149 1    
    52   25   26 2    
    53   25   27 1    
    54   27   28 1    
    55   27   29 1    
    56   27  150 1    
    57   28  151 1    
    58   28  152 1    
    59   28  153 1    
    60   29   30 am   BACKBONE|DICT|INTERRES
    61   29  154 1    
    62   30   31 2    
    63   30   32 1    
    64   32   33 1    
    65   32   34 1    
    66   32  155 1    
    67   33  156 1    
    68   33  157 1    
    69   33  158 1    
    70   34   35 am   BACKBONE|DICT|INTERRES
    71   34  159 1    
    72   35   36 2    
    73   35   37 1    
    74   37   38 1    
    75   37   39 1    
    76   37  160 1    
    77   38  161 1    
    78   38  162 1    
    79   38  163 1    
    80   39   40 am   BACKBONE|DICT|INTERRES
    81   39  164 1    
    82   40   41 2    
    83   40   42 1    
    84   42   43 1    
    85   42   44 1    
    86   42  165 1    
    87   43  166 1    
    88   43  167 1    
    89   43  168 1    
    90   44   45 am   BACKBONE|DICT|INTERRES
    91   44  169 1    
    92   45   46 2    
    93   45   47 1    
    94   47   48 1    
    95   47   49 1    
    96   47  170 1    
    97   48  171 1    
    98   48  172 1    
    99   48  173 1    
   100   49   50 am   BACKBONE|DICT|INTERRES
   101   49  174 1    
   102   50   51 2    
   103   50   52 1    
   104   52   53 1    
   105   52   54 1    
   106   52  175 1    
   107   53  176 1    
   108   53  177 1    
   109   53  178 1    
   110   54   55 am   BACKBONE|DICT|INTERRES
   111   54  179 1    
   112   55   56 2    
   113   55   57 1    
   114   57   58 1    
   115   57   59 1    
   116   57  180 1    
   117   58  181 1    
   118   58  182 1    
   119   58  183 1    
   120   59   60 am   BACKBONE|DICT|INTERRES
   121   59  184 1    
   122   60   61 2    
   123   60   62 1    
   124   62   63 1    
   125   62   64 1    
   126   62  185 1    
   127   63  186 1    
   128   63  187 1    
   129   63  188 1    
   130   64   65 am   BACKBONE|DICT|INTERRES
   131   64  189 1    
   132   65   66 2    
   133   67   68 2    
   134   67   69 am   BACKBONE|DICT|INTERRES
   135   69   70 1    
   136   69  190 1    
   137   70   71 1    
   138   70   72 1    
   139   70  191 1    
   140   71  192 1    
   141   71  193 1    
   142   71  194 1    
   143   72   73 2    
   144   72   74 am   BACKBONE|DICT|INTERRES
   145   74   75 1    
   146   74  195 1    
   147   75   76 1    
   148   75   77 1    
   149   75  196 1    
   150   76  197 1    
   151   76  198 1    
   152   76  199 1    
   153   77   78 2    
   154   77   79 am   BACKBONE|DICT|INTERRES
   155   79   80 1    
   156   79  200 1    
   157   80   81 1    
   158   80   82 1    
   159   80  201 1    
   160   81  202 1    
   161   81  203 1    
   162   81  204 1    
   163   82   83 2    
   164   82   84 am   BACKBONE|DICT|INTERRES
   165   84   85 1    
   166   84  205 1    
   167   85   86 1    
   168   85   87 1    
   169   85  206 1    
   170   86  207 1    
   171   86  208 1    
   172   86  209 1    
   173   87   88 2    
   174   87   89 am   BACKBONE|DICT|INTERRES
   175   89   90 1    
   176   89  210 1    
   177   90   91 1    
   178   90   92 1    
   179   90  211 1    
   180   91  212 1    
   181   91  213 1    
   182   91  214 1    
   183   92   93 2    
   184   92   94 am   BACKBONE|DICT|INTERRES
   185   94   95 1    
   186   94  215 1    
   187   95   96 1    
   188   95   97 1    
   189   95  216 1    
   190   96  217 1    
   191   96  218 1    
   192   96  219 1    
   193   97   98 2    
   194   97   99 am   BACKBONE|DICT|INTERRES
   195   99  100 1    
   196   99  220 1    
   197  100  101 1    
   198  100  102 1    
   199  100  221 1    
   200  101  222 1    
   201  101  223 1    
   202  101  224 1    
   203  102  103 2    
   204  102  104 am   BACKBONE|DICT|INTERRES
   205  104  105 1    
   206  104  225 1    
   207  105  106 1    
   208  105  107 1    
   209  105  226 1    
   210  106  227 1    
   211  106  228 1    
   212  106  229 1    
   213  107  108 2    
   214  107  109 am   BACKBONE|DICT|INTERRES
   215  109  110 1    
   216  109  230 1    
   217  110  111 1    
   218  110  112 1    
   219  110  231 1    
   220  111  232 1    
   221  111  233 1    
   222  111  234 1    
   223  112  113 2    
   224  112  114 am   BACKBONE|DICT|INTERRES
   225  114  115 1    
   226  114  235 1    
   227  115  116 1    
   228  115  117 1    
   229  115  236 1    
   230  116  237 1    
   231  116  238 1    
   232  116  239 1    
   233  117  118 2    
   234  117  119 am   BACKBONE|DICT|INTERRES
   235  119  120 1    
   236  119  240 1    
   237  120  121 1    
   238  120  124 1    
   239  120  241 1    
   240  121  122 am   BACKBONE|DICT|INTERRES
   241  121  123 2    
   242  122  242 1    
   243  122  243 1    
   244  124  125 1    
   245  124  244 1    
   246  124  245 1    
   247  125  126 1    
   248  126  246 1    
   249  126  247 1    
@<TRIPOS>SUBSTRUCTURE
     1 UNK         1 GROUP             0       ****    0 ROOT    
