@<TRIPOS>MOLECULE
3R540
247   249    1
SMALL
USER_CHARGES


@<TRIPOS>ATOM
      1 CA         -4.1246  -14.3183  -50.1062 C.3       0 UNK        -0.1800 
      2 C          -3.1328  -14.6592  -49.0040 C.2       0 UNK         0.5000 
      3 O          -3.3967  -14.3748  -47.8372 O.2       0 UNK        -0.5000 
      4 N          -1.9983  -15.2758  -49.3636 N.am      1 UNK        -0.5000 
      5 CA         -0.8809  -15.6145  -48.4675 C.3       1 UNK         0.1400 
      6 C6          0.3060  -16.2348  -49.2369 C.3       23 UNK        -0.0398 
      7 S7          0.8849  -15.1780  -50.6096 S.3       23 UNK        -0.2404 
      8 C8          2.4985  -15.9304  -50.9857 C.3       23 UNK        -0.0205 
      9 C9          2.3697  -17.4147  -51.2891 C.ar      23 UNK        -0.0193 
     10 C10         1.8932  -17.8432  -52.5295 C.ar      23 UNK        -0.1150 
     11 C11         1.7540  -19.2064  -52.8016 C.ar      23 UNK        -0.0193 
     12 C12         2.0928  -20.1417  -51.8185 C.ar      23 UNK        -0.1150 
     13 C13         2.5696  -19.7291  -50.5694 C.ar      23 UNK        -0.0193 
     14 C14         2.7170  -18.3593  -50.3204 C.ar      23 UNK        -0.1150 
     15 C15         2.9646  -20.7885  -49.5403 C.3       23 UNK        -0.0205 
     16 S16         2.9293  -20.2427  -47.7961 S.3       23 UNK        -0.2404 
     17 C17         1.1449  -20.3025  -47.4128 C.3       23 UNK        -0.0398 
     18 CA          0.6861  -21.7098  -46.9572 C.3       11 UNK         0.1400 
     19 N           1.5344  -22.2735  -45.9040 N.am      11 UNK        -0.5000 
     20 C           1.5571  -23.5637  -45.5473 C.2       10 UNK         0.5000 
     21 O           0.8591  -24.4303  -46.0719 O.2       10 UNK        -0.5000 
     22 CA          2.4888  -23.9342  -44.3796 C.3       10 UNK         0.1400 
     23 CB          3.9222  -24.1589  -44.8831 C.3       10 UNK        -0.1800 
     24 N           2.4968  -22.9147  -43.3284 N.am      10 UNK        -0.5000 
     25 C           1.4430  -22.6277  -42.5515 C.2       9 UNK         0.5000 
     26 O           0.3684  -23.2243  -42.6137 O.2       9 UNK        -0.5000 
     27 CA          1.6010  -21.4456  -41.5780 C.3       9 UNK         0.1400 
     28 CB          2.2557  -21.9084  -40.2683 C.3       9 UNK        -0.1800 
     29 N           2.3666  -20.3248  -42.1310 N.am      9 UNK        -0.5000 
     30 C           2.0298  -19.6165  -43.2171 C.2       8 UNK         0.5000 
     31 O           1.0505  -19.8785  -43.9174 O.2       8 UNK        -0.5000 
     32 CA          2.9337  -18.4157  -43.5561 C.3       8 UNK         0.1400 
     33 CB          2.3802  -17.5588  -44.7087 C.3       8 UNK        -0.1800 
     34 N           3.1025  -17.5538  -42.3891 N.am      8 UNK        -0.5000 
     35 C           4.0855  -17.6372  -41.4855 C.2       7 UNK         0.5000 
     36 O           4.9492  -18.5145  -41.5018 O.2       7 UNK        -0.5000 
     37 CA          4.0852  -16.5862  -40.3656 C.3       7 UNK         0.1400 
     38 CB          4.5348  -15.2179  -40.9032 C.3       7 UNK        -0.1800 
     39 N           2.7532  -16.4578  -39.7762 N.am      7 UNK        -0.5000 
     40 C           2.4586  -16.6726  -38.4867 C.2       6 UNK         0.5000 
     41 O           3.2950  -16.9673  -37.6317 O.2       6 UNK        -0.5000 
     42 CA          0.9786  -16.5371  -38.0693 C.3       6 UNK         0.1400 
     43 CB          0.7157  -15.1468  -37.4708 C.3       6 UNK        -0.1800 
     44 N           0.0385  -16.7635  -39.1680 N.am      6 UNK        -0.5000 
     45 C          -0.1419  -17.9350  -39.7920 C.2       5 UNK         0.5000 
     46 O           0.4016  -18.9818  -39.4417 O.2       5 UNK        -0.5000 
     47 CA         -1.0698  -17.9460  -41.0223 C.3       5 UNK         0.1400 
     48 CB         -2.4402  -18.5244  -40.6375 C.3       5 UNK        -0.1800 
     49 N          -1.2840  -16.6518  -41.6799 N.am      5 UNK        -0.5000 
     50 C          -0.3528  -15.8232  -42.1729 C.2       4 UNK         0.5000 
     51 O           0.8564  -15.9844  -42.0001 O.2       4 UNK        -0.5000 
     52 CA         -0.8594  -14.6162  -42.9898 C.3       4 UNK         0.1400 
     53 CB          0.2362  -14.0248  -43.8954 C.3       4 UNK        -0.1800 
     54 N          -2.0206  -14.9641  -43.8133 N.am      4 UNK        -0.5000 
     55 C          -3.3005  -14.8893  -43.4191 C.2       3 UNK         0.5000 
     56 O          -3.6360  -14.5248  -42.2923 O.2       3 UNK        -0.5000 
     57 CA         -4.3898  -15.3138  -44.4244 C.3       3 UNK         0.1400 
     58 CB         -5.0610  -14.0771  -45.0403 C.3       3 UNK        -0.1800 
     59 N          -3.8800  -16.1765  -45.4926 N.am      3 UNK        -0.5000 
     60 C          -3.5697  -17.4713  -45.3237 C.2       2 UNK         0.5000 
     61 O          -3.7524  -18.0730  -44.2661 O.2       2 UNK        -0.5000 
     62 CA         -2.9398  -18.2294  -46.5124 C.3       2 UNK         0.1400 
     63 CB         -3.9913  -19.1068  -47.2093 C.3       2 UNK        -0.1800 
     64 N          -2.3021  -17.3791  -47.5173 N.am      2 UNK        -0.5000 
     65 C          -1.2891  -16.5309  -47.2947 C.2       1 UNK         0.5000 
     66 O          -0.7272  -16.4133  -46.2067 O.2       1 UNK        -0.5000 
     67 C          -0.7902  -21.7004  -46.5209 C.2       11 UNK         0.5000 
     68 O          -1.6648  -21.9948  -47.3336 O.2       11 UNK        -0.5000 
     69 N          -1.0355  -21.4132  -45.2349 N.am      12 UNK        -0.5000 
     70 CA         -2.3446  -21.5042  -44.5924 C.3       12 UNK         0.1400 
     71 CB         -2.2717  -20.8876  -43.1916 C.3       12 UNK        -0.1800 
     72 C          -2.8801  -22.9441  -44.5428 C.2       12 UNK         0.5000 
     73 O          -4.0432  -23.1633  -44.8798 O.2       12 UNK        -0.5000 
     74 N          -2.0157  -23.9022  -44.1779 N.am      13 UNK        -0.5000 
     75 CA         -2.3193  -25.3360  -44.1649 C.3       13 UNK         0.1400 
     76 CB         -1.1606  -26.1006  -43.5076 C.3       13 UNK        -0.1800 
     77 C          -2.6213  -25.8996  -45.5673 C.2       13 UNK         0.5000 
     78 O          -3.5234  -26.7256  -45.7100 O.2       13 UNK        -0.5000 
     79 N          -1.8870  -25.4171  -46.5788 N.am      14 UNK        -0.5000 
     80 CA         -2.0980  -25.7337  -47.9929 C.3       14 UNK         0.1400 
     81 CB         -0.8307  -25.3534  -48.7756 C.3       14 UNK        -0.1800 
     82 C          -3.3279  -25.0336  -48.6083 C.2       14 UNK         0.5000 
     83 O          -3.7593  -25.4322  -49.6907 O.2       14 UNK        -0.5000 
     84 N          -3.8448  -23.9963  -47.9309 N.am      15 UNK        -0.5000 
     85 CA         -4.8918  -23.0676  -48.3715 C.3       15 UNK         0.1400 
     86 CB         -6.2506  -23.7849  -48.5052 C.3       15 UNK        -0.1800 
     87 C          -4.4829  -22.2894  -49.6409 C.2       15 UNK         0.5000 
     88 O          -5.3009  -22.0737  -50.5372 O.2       15 UNK        -0.5000 
     89 N          -3.2052  -21.8935  -49.6961 N.am      16 UNK        -0.5000 
     90 CA         -2.5709  -21.2035  -50.8126 C.3       16 UNK         0.1400 
     91 CB         -1.0559  -21.4451  -50.7514 C.3       16 UNK        -0.1800 
     92 C          -2.9351  -19.7073  -50.8374 C.2       16 UNK         0.5000 
     93 O          -2.1310  -18.8527  -50.4586 O.2       16 UNK        -0.5000 
     94 N          -4.1652  -19.4192  -51.2753 N.am      17 UNK        -0.5000 
     95 CA         -4.6088  -18.0908  -51.6836 C.3       17 UNK         0.1400 
     96 CB         -6.1276  -18.1112  -51.9062 C.3       17 UNK        -0.1800 
     97 C          -3.8707  -17.6645  -52.9663 C.2       17 UNK         0.5000 
     98 O          -3.8498  -18.4307  -53.9359 O.2       17 UNK        -0.5000 
     99 N          -3.2787  -16.4631  -52.9343 N.am      18 UNK        -0.5000 
    100 CA        -2.4371  -15.8947  -53.9883 C.3       18 UNK         0.1400 
    101 CB        -1.9464  -14.5046  -53.5559 C.3       18 UNK        -0.1800 
    102 C         -3.1725  -15.8222  -55.3360 C.2       18 UNK         0.5000 
    103 O         -4.2554  -15.2364  -55.4067 O.2       18 UNK        -0.5000 
    104 N         -2.5897  -16.4686  -56.3536 N.am      19 UNK        -0.5000 
    105 CA        -3.1070  -16.7203  -57.7058 C.3       19 UNK         0.1400 
    106 CB        -3.3670  -15.4081  -58.4695 C.3       19 UNK        -0.1800 
    107 C         -4.3401  -17.6471  -57.7496 C.2       19 UNK         0.5000 
    108 O         -4.3561  -18.5841  -58.5479 O.2       19 UNK        -0.5000 
    109 N         -5.3329  -17.3842  -56.8908 N.am      20 UNK        -0.5000 
    110 CA        -6.6187  -18.0764  -56.8011 C.3       20 UNK         0.1400 
    111 CB        -7.4730  -17.4064  -55.7142 C.3       20 UNK        -0.1800 
    112 C         -6.5024  -19.5897  -56.5467 C.2       20 UNK         0.5000 
    113 O         -7.2056  -20.3632  -57.1986 O.2       20 UNK        -0.5000 
    114 N         -5.6106  -19.9804  -55.6279 N.am      21 UNK        -0.5000 
    115 CA        -5.2793  -21.3779  -55.3488 C.3       21 UNK         0.1400 
    116 CB        -5.3191  -21.6155  -53.8351 C.3       21 UNK        -0.1800 
    117 C         -3.8954  -21.7448  -55.9077 C.2       21 UNK         0.5000 
    118 O         -3.6888  -22.9016  -56.2767 O.2       21 UNK        -0.5000 
    119 N         -2.9754  -20.7702  -55.9621 N.am      22 UNK        -0.5000 
    120 CA        -1.6126  -20.9455  -56.4934 C.3       22 UNK         0.1400 
    121 C         -1.5430  -21.2586  -58.0175 C.2       22 UNK         0.5000 
    122 N         -2.5014  -20.8338  -58.8322 N.am      22 UNK        -0.7600 
    123 O         -0.5984  -21.9009  -58.4677 O.2       22 UNK        -0.5000 
    124 C124       -0.6993  -19.7398  -56.1647 C.3       23 UNK        -0.0398 
    125 S125       -0.5216  -19.4226  -54.3749 S.3       23 UNK        -0.2404 
    126 C126        1.2716  -19.6590  -54.1708 C.3       23 UNK        -0.0205 
    127 H127       -4.9353  -15.0462  -50.1248 H         1 UNK         0.0600 
    128 H128       -3.6475  -14.2957  -51.0844 H         1 UNK         0.0600 
    129 H129       -4.5573  -13.3340  -49.9268 H         1 UNK         0.0600 
    130 H130       -1.8204  -15.4751  -50.3363 H         1 UNK         0.3000 
    131 H131       -0.5388  -14.6766  -48.0248 H         1 UNK         0.0600 
    132 H132        1.1439  -16.4110  -48.5594 H         1 UNK         0.0800 
    133 H133        0.0267  -17.2077  -49.6475 H         1 UNK         0.0800 
    134 H134        2.9393  -15.4186  -51.8423 H         1 UNK         0.0800 
    135 H135        3.1773  -15.7644  -50.1476 H         1 UNK         0.0800 
    136 H136        1.6250  -17.1149  -53.2820 H         1 UNK         0.1150 
    137 H137        1.9928  -21.1971  -52.0304 H         1 UNK         0.1150 
    138 H138        3.1000  -18.0170  -49.3704 H         1 UNK         0.1150 
    139 H139        2.3291  -21.6690  -49.6461 H         1 UNK         0.0800 
    140 H140        3.9793  -21.1150  -49.7709 H         1 UNK         0.0800 
    141 H141        0.5820  -19.9640  -48.2829 H         1 UNK         0.0800 
    142 H142        0.9437  -19.5687  -46.6318 H         1 UNK         0.0800 
    143 H143        0.7578  -22.3729  -47.8218 H         1 UNK         0.0600 
    144 H144        2.1127  -21.6177  -45.4006 H         1 UNK         0.3000 
    145 H145        2.1269  -24.8692  -43.9466 H         1 UNK         0.0600 
    146 H146        4.5765  -24.4887  -44.0759 H         1 UNK         0.0600 
    147 H147        3.9473  -24.9286  -45.6556 H         1 UNK         0.0600 
    148 H148        4.3476  -23.2503  -45.3113 H         1 UNK         0.0600 
    149 H149        3.3433  -22.3772  -43.2135 H         1 UNK         0.3000 
    150 H150        0.6001  -21.0763  -41.3463 H         1 UNK         0.0600 
    151 H151        1.6924  -22.7270  -39.8184 H         1 UNK         0.0600 
    152 H152        2.2891  -21.0994  -39.5381 H         1 UNK         0.0600 
    153 H153        3.2761  -22.2587  -40.4284 H         1 UNK         0.0600 
    154 H154        3.1877  -20.0363  -41.6157 H         1 UNK         0.3000 
    155 H155        3.9034  -18.8091  -43.8676 H         1 UNK         0.0600 
    156 H156        1.3538  -17.2412  -44.5209 H         1 UNK         0.0600 
    157 H157        2.9825  -16.6633  -44.8618 H         1 UNK         0.0600 
    158 H158        2.3898  -18.1117  -45.6461 H         1 UNK         0.0600 
    159 H159        2.3774  -16.8491  -42.2687 H         1 UNK         0.3000 
    160 H160        4.8112  -16.9104  -39.6172 H         1 UNK         0.0600 
    161 H161        4.6064  -14.4859  -40.0986 H         1 UNK         0.0600 
    162 H162        3.8403  -14.8271  -41.6483 H         1 UNK         0.0600 
    163 H163        5.5179  -15.2848  -41.3710 H         1 UNK         0.0600 
    164 H164        1.9951  -16.2445  -40.4166 H         1 UNK         0.3000 
    165 H165        0.7845  -17.2855  -37.2981 H         1 UNK         0.0600 
    166 H166       -0.3071  -15.0618  -37.1031 H         1 UNK         0.0600 
    167 H167        1.3799  -14.9524  -36.6275 H         1 UNK         0.0600 
    168 H168        0.8770  -14.3561  -38.2047 H         1 UNK         0.0600 
    169 H169       -0.4519  -15.9557  -39.5218 H         1 UNK         0.3000 
    170 H170       -0.6068  -18.6037  -41.7595 H         1 UNK         0.0600 
    171 H171       -2.3408  -19.5343  -40.2372 H         1 UNK         0.0600 
    172 H172       -2.9322  -17.9156  -39.8778 H         1 UNK         0.0600 
    173 H173       -3.1057  -18.5805  -41.4989 H         1 UNK         0.0600 
    174 H174       -2.2486  -16.4039  -41.8508 H         1 UNK         0.3000 
    175 H175       -1.1425  -13.8438  -42.2720 H         1 UNK         0.0600 
    176 H176       -0.1426  -13.1835  -44.4758 H         1 UNK         0.0600 
    177 H177        0.6262  -14.7654  -44.5939 H         1 UNK         0.0600 
    178 H178        1.0770  -13.6579  -43.3055 H         1 UNK         0.0600 
    179 H179       -1.8116  -15.3496  -44.7276 H         1 UNK         0.3000 
    180 H180       -5.1519  -15.8662  -43.8704 H         1 UNK         0.0600 
    181 H181       -4.3379  -13.4355  -45.5448 H         1 UNK         0.0600 
    182 H182       -5.5478  -13.4759  -44.2715 H         1 UNK         0.0600 
    183 H183       -5.8247  -14.3592  -45.7653 H         1 UNK         0.0600 
    184 H184       -3.6935  -15.7263  -46.3836 H         1 UNK         0.3000 
    185 H185       -2.1644  -18.8755  -46.0984 H         1 UNK         0.0600 
    186 H186       -4.5603  -19.6996  -46.4924 H         1 UNK         0.0600 
    187 H187       -4.7055  -18.5079  -47.7756 H         1 UNK         0.0600 
    188 H188       -3.5151  -19.8034  -47.8964 H         1 UNK         0.0600 
    189 H189       -2.6751  -17.4306  -48.4550 H         1 UNK         0.3000 
    190 H190       -0.2599  -21.1151  -44.6501 H         1 UNK         0.3000 
    191 H191       -3.0487  -20.9166  -45.1803 H         1 UNK         0.0600 
    192 H192       -1.9161  -19.8599  -43.2477 H         1 UNK         0.0600 
    193 H193       -3.2561  -20.8686  -42.7228 H         1 UNK         0.0600 
    194 H194       -1.6024  -21.4392  -42.5327 H         1 UNK         0.0600 
    195 H195       -1.0908  -23.6312  -43.8565 H         1 UNK         0.3000 
    196 H196       -3.2113  -25.4804  -43.5520 H         1 UNK         0.0600 
    197 H197       -1.3741  -27.1691  -43.4606 H         1 UNK         0.0600 
    198 H198       -0.9910  -25.7574  -42.4869 H         1 UNK         0.0600 
    199 H199       -0.2297  -25.9755  -44.0609 H         1 UNK         0.0600 
    200 H200       -1.1081  -24.8025  -46.3645 H         1 UNK         0.3000 
    201 H201       -2.2495  -26.8107  -48.0886 H         1 UNK         0.0600 
    202 H202        0.0427  -25.8830  -48.3947 H         1 UNK         0.0600 
    203 H203       -0.6276  -24.2839  -48.7135 H         1 UNK         0.0600 
    204 H204       -0.9294  -25.6075  -49.8317 H         1 UNK         0.0600 
    205 H205       -3.4002  -23.7513  -47.0559 H         1 UNK         0.3000 
    206 H206       -4.9887  -22.3242  -47.5791 H         1 UNK         0.0600 
    207 H207       -6.5058  -24.3170  -47.5887 H         1 UNK         0.0600 
    208 H208       -7.0508  -23.0696  -48.6988 H         1 UNK         0.0600 
    209 H209       -6.2523  -24.5048  -49.3239 H         1 UNK         0.0600 
    210 H210       -2.6196  -22.0535  -48.8783 H         1 UNK         0.3000 
    211 H211       -2.9257  -21.6486  -51.7438 H         1 UNK         0.0600 
    212 H212       -0.6213  -21.0460  -49.8376 H         1 UNK         0.0600 
    213 H213       -0.5602  -20.9626  -51.5932 H         1 UNK         0.0600 
    214 H214       -0.8210  -22.5084  -50.7988 H         1 UNK         0.0600 
    215 H215       -4.7846  -20.1928  -51.4840 H         1 UNK         0.3000 
    216 H216       -4.3830  -17.3899  -50.8779 H         1 UNK         0.0600 
    217 H217       -6.4921  -17.1260  -52.1994 H         1 UNK         0.0600 
    218 H218       -6.6548  -18.3956  -50.9954 H         1 UNK         0.0600 
    219 H219       -6.4113  -18.8149  -52.6898 H         1 UNK         0.0600 
    220 H220       -3.4117  -15.8853  -52.1218 H         1 UNK         0.3000 
    221 H221       -1.5650  -16.5435  -54.0910 H         1 UNK         0.0600 
    222 H222       -1.3812  -14.5541  -52.6257 H         1 UNK         0.0600 
    223 H223       -1.2873  -14.0735  -54.3105 H         1 UNK         0.0600 
    224 H224       -2.7754  -13.8106  -53.4115 H         1 UNK         0.0600 
    225 H225       -1.7069  -16.9170  -56.1569 H         1 UNK         0.3000 
    226 H226       -2.3078  -17.2446  -58.2323 H         1 UNK         0.0600 
    227 H227       -2.4763  -14.7801  -58.4878 H         1 UNK         0.0600 
    228 H228       -3.6427  -15.6114  -59.5050 H         1 UNK         0.0600 
    229 H229       -4.1773  -14.8281  -58.0274 H         1 UNK         0.0600 
    230 H230       -5.1955  -16.5941  -56.2657 H         1 UNK         0.3000 
    231 H231       -7.1243  -17.9445  -57.7597 H         1 UNK         0.0600 
    232 H232       -6.9814  -17.4389  -54.7418 H         1 UNK         0.0600 
    233 H233       -8.4398  -17.9012  -55.6129 H         1 UNK         0.0600 
    234 H234       -7.6665  -16.3609  -55.9548 H         1 UNK         0.0600 
    235 H235       -5.0720  -19.2788  -55.1271 H         1 UNK         0.3000 
    236 H236       -6.0089  -22.0472  -55.8091 H         1 UNK         0.0600 
    237 H237       -6.2857  -21.3420  -53.4119 H         1 UNK         0.0600 
    238 H238       -5.1426  -22.6652  -53.5969 H         1 UNK         0.0600 
    239 H239       -4.5509  -21.0340  -53.3323 H         1 UNK         0.0600 
    240 H240       -3.1959  -19.8644  -55.5711 H         1 UNK         0.3000 
    241 H241       -1.1898  -21.8163  -55.9882 H         1 UNK         0.0600 
    242 H242       -3.2610  -20.2463  -58.5060 H         1 UNK         0.3800 
    243 H243       -2.4402  -21.0532  -59.8136 H         1 UNK         0.3800 
    244 H244        0.2918  -19.8936  -56.5956 H         1 UNK         0.0800 
    245 H245       -1.0867  -18.8376  -56.6358 H         1 UNK         0.0800 
    246 H246        1.8046  -19.0908  -54.9347 H         1 UNK         0.0800 
    247 H247        1.5165  -20.7090  -54.3385 H         1 UNK         0.0800 
@<TRIPOS>BOND
     1    1    2 1    
     2    1  127 1    
     3    1  128 1    
     4    1  129 1    
     5    2    3 2    
     6    2    4 am   BACKBONE|DICT|INTERRES
     7    4    5 1    
     8    4  130 1    
     9    5    6 1    
    10    5   65 1    
    11    5  131 1    
    12    6    7 1    
    13    6  132 1    
    14    6  133 1    
    15    7    8 1    
    16    8    9 1    
    17    8  134 1    
    18    8  135 1    
    19    9   10 ar   
    20    9   14 ar   
    21   10   11 ar   
    22   10  136 1    
    23   11   12 ar   
    24   11  126 1    
    25   12   13 ar   
    26   12  137 1    
    27   13   14 ar   
    28   13   15 1    
    29   14  138 1    
    30   15   16 1    
    31   15  139 1    
    32   15  140 1    
    33   16   17 1    
    34   17   18 1    
    35   17  141 1    
    36   17  142 1    
    37   18   19 1    
    38   18   67 1    
    39   18  143 1    
    40   19   20 am   BACKBONE|DICT|INTERRES
    41   19  144 1    
    42   20   21 2    
    43   20   22 1    
    44   22   23 1    
    45   22   24 1    
    46   22  145 1    
    47   23  146 1    
    48   23  147 1    
    49   23  148 1    
    50   24   25 am   BACKBONE|DICT|INTERRES
    51   24  149 1    
    52   25   26 2    
    53   25   27 1    
    54   27   28 1    
    55   27   29 1    
    56   27  150 1    
    57   28  151 1    
    58   28  152 1    
    59   28  153 1    
    60   29   30 am   BACKBONE|DICT|INTERRES
    61   29  154 1    
    62   30   31 2    
    63   30   32 1    
    64   32   33 1    
    65   32   34 1    
    66   32  155 1    
    67   33  156 1    
    68   33  157 1    
    69   33  158 1    
    70   34   35 am   BACKBONE|DICT|INTERRES
    71   34  159 1    
    72   35   36 2    
    73   35   37 1    
    74   37   38 1    
    75   37   39 1    
    76   37  160 1    
    77   38  161 1    
    78   38  162 1    
    79   38  163 1    
    80   39   40 am   BACKBONE|DICT|INTERRES
    81   39  164 1    
    82   40   41 2    
    83   40   42 1    
    84   42   43 1    
    85   42   44 1    
    86   42  165 1    
    87   43  166 1    
    88   43  167 1    
    89   43  168 1    
    90   44   45 am   BACKBONE|DICT|INTERRES
    91   44  169 1    
    92   45   46 2    
    93   45   47 1    
    94   47   48 1    
    95   47   49 1    
    96   47  170 1    
    97   48  171 1    
    98   48  172 1    
    99   48  173 1    
   100   49   50 am   BACKBONE|DICT|INTERRES
   101   49  174 1    
   102   50   51 2    
   103   50   52 1    
   104   52   53 1    
   105   52   54 1    
   106   52  175 1    
   107   53  176 1    
   108   53  177 1    
   109   53  178 1    
   110   54   55 am   BACKBONE|DICT|INTERRES
   111   54  179 1    
   112   55   56 2    
   113   55   57 1    
   114   57   58 1    
   115   57   59 1    
   116   57  180 1    
   117   58  181 1    
   118   58  182 1    
   119   58  183 1    
   120   59   60 am   BACKBONE|DICT|INTERRES
   121   59  184 1    
   122   60   61 2    
   123   60   62 1    
   124   62   63 1    
   125   62   64 1    
   126   62  185 1    
   127   63  186 1    
   128   63  187 1    
   129   63  188 1    
   130   64   65 am   BACKBONE|DICT|INTERRES
   131   64  189 1    
   132   65   66 2    
   133   67   68 2    
   134   67   69 am   BACKBONE|DICT|INTERRES
   135   69   70 1    
   136   69  190 1    
   137   70   71 1    
   138   70   72 1    
   139   70  191 1    
   140   71  192 1    
   141   71  193 1    
   142   71  194 1    
   143   72   73 2    
   144   72   74 am   BACKBONE|DICT|INTERRES
   145   74   75 1    
   146   74  195 1    
   147   75   76 1    
   148   75   77 1    
   149   75  196 1    
   150   76  197 1    
   151   76  198 1    
   152   76  199 1    
   153   77   78 2    
   154   77   79 am   BACKBONE|DICT|INTERRES
   155   79   80 1    
   156   79  200 1    
   157   80   81 1    
   158   80   82 1    
   159   80  201 1    
   160   81  202 1    
   161   81  203 1    
   162   81  204 1    
   163   82   83 2    
   164   82   84 am   BACKBONE|DICT|INTERRES
   165   84   85 1    
   166   84  205 1    
   167   85   86 1    
   168   85   87 1    
   169   85  206 1    
   170   86  207 1    
   171   86  208 1    
   172   86  209 1    
   173   87   88 2    
   174   87   89 am   BACKBONE|DICT|INTERRES
   175   89   90 1    
   176   89  210 1    
   177   90   91 1    
   178   90   92 1    
   179   90  211 1    
   180   91  212 1    
   181   91  213 1    
   182   91  214 1    
   183   92   93 2    
   184   92   94 am   BACKBONE|DICT|INTERRES
   185   94   95 1    
   186   94  215 1    
   187   95   96 1    
   188   95   97 1    
   189   95  216 1    
   190   96  217 1    
   191   96  218 1    
   192   96  219 1    
   193   97   98 2    
   194   97   99 am   BACKBONE|DICT|INTERRES
   195   99  100 1    
   196   99  220 1    
   197  100  101 1    
   198  100  102 1    
   199  100  221 1    
   200  101  222 1    
   201  101  223 1    
   202  101  224 1    
   203  102  103 2    
   204  102  104 am   BACKBONE|DICT|INTERRES
   205  104  105 1    
   206  104  225 1    
   207  105  106 1    
   208  105  107 1    
   209  105  226 1    
   210  106  227 1    
   211  106  228 1    
   212  106  229 1    
   213  107  108 2    
   214  107  109 am   BACKBONE|DICT|INTERRES
   215  109  110 1    
   216  109  230 1    
   217  110  111 1    
   218  110  112 1    
   219  110  231 1    
   220  111  232 1    
   221  111  233 1    
   222  111  234 1    
   223  112  113 2    
   224  112  114 am   BACKBONE|DICT|INTERRES
   225  114  115 1    
   226  114  235 1    
   227  115  116 1    
   228  115  117 1    
   229  115  236 1    
   230  116  237 1    
   231  116  238 1    
   232  116  239 1    
   233  117  118 2    
   234  117  119 am   BACKBONE|DICT|INTERRES
   235  119  120 1    
   236  119  240 1    
   237  120  121 1    
   238  120  124 1    
   239  120  241 1    
   240  121  122 am   BACKBONE|DICT|INTERRES
   241  121  123 2    
   242  122  242 1    
   243  122  243 1    
   244  124  125 1    
   245  124  244 1    
   246  124  245 1    
   247  125  126 1    
   248  126  246 1    
   249  126  247 1    
@<TRIPOS>SUBSTRUCTURE
     1 UNK         1 GROUP             0       ****    0 ROOT    
