@<TRIPOS>MOLECULE
3R540
247   249    1
SMALL
USER_CHARGES


@<TRIPOS>ATOM
      1 CA         -4.3809  -17.2047  -42.6688 C.3       0 UNK        -0.1800 
      2 C          -3.5524  -16.4457  -43.6934 C.2       0 UNK         0.5000 
      3 O          -3.9328  -15.3438  -44.0906 O.2       0 UNK        -0.5000 
      4 N          -2.4257  -17.0292  -44.1197 N.am      1 UNK        -0.5000 
      5 CA         -1.4577  -16.4149  -45.0306 C.3       1 UNK         0.1400 
      6 C6         -0.4142  -17.4479  -45.5215 C.3       23 UNK        -0.0398 
      7 S7          0.1674  -17.1122  -47.2138 S.3       23 UNK        -0.2404 
      8 C8         -0.6679  -18.4328  -48.1470 C.3       23 UNK        -0.0205 
      9 C9         -2.1541  -18.1545  -48.3225 C.ar      23 UNK        -0.0193 
     10 C10        -2.6002  -17.4301  -49.4298 C.ar      23 UNK        -0.1150 
     11 C11        -3.9590  -17.1532  -49.5956 C.ar      23 UNK        -0.0193 
     12 C12        -4.8734  -17.6137  -48.6446 C.ar      23 UNK        -0.1150 
     13 C13        -4.4513  -18.3559  -47.5374 C.ar      23 UNK        -0.0193 
     14 C14        -3.0829  -18.6206  -47.3860 C.ar      23 UNK        -0.1150 
     15 C15        -5.5229  -18.8369  -46.5543 C.3       23 UNK        -0.0205 
     16 S16        -4.9462  -19.7255  -45.0661 S.3       23 UNK        -0.2404 
     17 C17        -4.4962  -21.3617  -45.7328 C.3       23 UNK        -0.0398 
     18 CA         -3.1666  -21.8871  -45.1322 C.3       11 UNK         0.1400 
     19 N          -3.1620  -21.9990  -43.6627 N.am      11 UNK        -0.5000 
     20 C          -3.9519  -22.7446  -42.8730 C.2       10 UNK         0.5000 
     21 O          -4.8534  -23.4658  -43.3016 O.2       10 UNK        -0.5000 
     22 CA         -3.6571  -22.7446  -41.3594 C.3       10 UNK         0.1400 
     23 CB         -3.0401  -24.0912  -40.9466 C.3       10 UNK        -0.1800 
     24 N          -2.7443  -21.6756  -40.9535 N.am      10 UNK        -0.5000 
     25 C          -3.1166  -20.4264  -40.6443 C.2       9 UNK         0.5000 
     26 O          -4.2891  -20.0564  -40.5907 O.2       9 UNK        -0.5000 
     27 CA         -1.9846  -19.4153  -40.3626 C.3       9 UNK         0.1400 
     28 CB         -1.7556  -19.2713  -38.8507 C.3       9 UNK        -0.1800 
     29 N          -0.7119  -19.7578  -41.0083 N.am      9 UNK        -0.5000 
     30 C          -0.5164  -19.8003  -42.3314 C.2       8 UNK         0.5000 
     31 O          -1.3952  -19.5428  -43.1562 O.2       8 UNK        -0.5000 
     32 CA          0.8788  -20.2300  -42.8168 C.3       8 UNK         0.1400 
     33 CB          0.7707  -21.1667  -44.0335 C.3       8 UNK        -0.1800 
     34 N           1.6971  -19.0781  -43.1828 N.am      8 UNK        -0.5000 
     35 C           2.1966  -18.1621  -42.3419 C.2       7 UNK         0.5000 
     36 O           2.0451  -18.2163  -41.1206 O.2       7 UNK        -0.5000 
     37 CA          2.9877  -16.9836  -42.9595 C.3       7 UNK         0.1400 
     38 CB          4.2598  -16.6579  -42.1498 C.3       7 UNK        -0.1800 
     39 N           3.3079  -17.1263  -44.3895 N.am      7 UNK        -0.5000 
     40 C           4.0988  -18.0497  -44.9613 C.2       6 UNK         0.5000 
     41 O           4.6654  -18.9454  -44.3355 O.2       6 UNK        -0.5000 
     42 CA          4.2625  -18.0008  -46.4930 C.3       6 UNK         0.1400 
     43 CB          3.4505  -19.1257  -47.1518 C.3       6 UNK        -0.1800 
     44 N           3.8708  -16.7231  -47.0911 N.am      6 UNK        -0.5000 
     45 C           4.6438  -15.6294  -47.1001 C.2       5 UNK         0.5000 
     46 O           5.7542  -15.5864  -46.5663 O.2       5 UNK        -0.5000 
     47 CA          4.1136  -14.3854  -47.8407 C.3       5 UNK         0.1400 
     48 CB          2.6449  -14.4959  -48.2993 C.3       5 UNK        -0.1800 
     49 N           4.2476  -13.2265  -46.9661 N.am      5 UNK        -0.5000 
     50 C           5.2022  -12.2899  -47.0475 C.2       4 UNK         0.5000 
     51 O           6.0503  -12.2532  -47.9405 O.2       4 UNK        -0.5000 
     52 CA          5.2108  -11.1932  -45.9611 C.3       4 UNK         0.1400 
     53 CB          4.7226   -9.8571  -46.5434 C.3       4 UNK        -0.1800 
     54 N           4.3804  -11.5261  -44.8027 N.am      4 UNK        -0.5000 
     55 C           4.7234  -12.3772  -43.8260 C.2       3 UNK         0.5000 
     56 O           5.8306  -12.9067  -43.7345 O.2       3 UNK        -0.5000 
     57 CA          3.6290  -12.7116  -42.7923 C.3       3 UNK         0.1400 
     58 CB          3.7710  -11.8222  -41.5482 C.3       3 UNK        -0.1800 
     59 N           2.2667  -12.5840  -43.3223 N.am      3 UNK        -0.5000 
     60 C           1.7524  -13.3502  -44.2927 C.2       2 UNK         0.5000 
     61 O           2.3785  -14.2484  -44.8611 O.2       2 UNK        -0.5000 
     62 CA          0.3216  -13.0121  -44.7462 C.3       2 UNK         0.1400 
     63 CB          0.3617  -12.0073  -45.9080 C.3       2 UNK        -0.1800 
     64 N          -0.4125  -14.2017  -45.1748 N.am      2 UNK        -0.5000 
     65 C          -0.7586  -15.2099  -44.3658 C.2       1 UNK         0.5000 
     66 O          -0.5215  -15.2288  -43.1543 O.2       1 UNK        -0.5000 
     67 C          -2.7156  -23.1783  -45.8490 C.2       11 UNK         0.5000 
     68 O          -1.8749  -23.1099  -46.7461 O.2       11 UNK        -0.5000 
     69 N          -3.2411  -24.3345  -45.4262 N.am      12 UNK        -0.5000 
     70 CA         -2.9803  -25.6686  -45.9741 C.3       12 UNK         0.1400 
     71 CB         -3.9040  -26.6765  -45.2742 C.3       12 UNK        -0.1800 
     72 C          -1.5119  -26.1262  -45.8733 C.2       12 UNK         0.5000 
     73 O          -1.0918  -26.9727  -46.6616 O.2       12 UNK        -0.5000 
     74 N          -0.7538  -25.5489  -44.9298 N.am      13 UNK        -0.5000 
     75 CA          0.6878  -25.7598  -44.7821 C.3       13 UNK         0.1400 
     76 CB          1.1456  -25.2046  -43.4248 C.3       13 UNK        -0.1800 
     77 C           1.5035  -25.1377  -45.9344 C.2       13 UNK         0.5000 
     78 O           2.5529  -25.6763  -46.2884 O.2       13 UNK        -0.5000 
     79 N           1.0005  -24.0349  -46.5076 N.am      14 UNK        -0.5000 
     80 CA          1.5398  -23.4139  -47.7177 C.3       14 UNK         0.1400 
     81 CB          1.2921  -21.8992  -47.6632 C.3       14 UNK        -0.1800 
     82 C           0.8923  -24.0150  -48.9761 C.2       14 UNK         0.5000 
     83 O           1.5816  -24.2274  -49.9730 O.2       14 UNK        -0.5000 
     84 N          -0.4242  -24.2644  -48.8958 N.am      15 UNK        -0.5000 
     85 CA         -1.3081  -24.8422  -49.9154 C.3       15 UNK         0.1400 
     86 CB         -0.8399  -26.2500  -50.3360 C.3       15 UNK        -0.1800 
     87 C          -1.5673  -23.9239  -51.1279 C.2       15 UNK         0.5000 
     88 O          -2.1879  -24.3633  -52.0962 O.2       15 UNK        -0.5000 
     89 N          -1.1430  -22.6539  -51.0477 N.am      16 UNK        -0.5000 
     90 CA         -1.3200  -21.6338  -52.0866 C.3       16 UNK         0.1400 
     91 CB         -0.5757  -20.3592  -51.6671 C.3       16 UNK        -0.1800 
     92 C          -2.7986  -21.3177  -52.3785 C.2       16 UNK         0.5000 
     93 O          -3.1485  -21.0312  -53.5221 O.2       16 UNK        -0.5000 
     94 N          -3.6450  -21.4420  -51.3471 N.am      17 UNK        -0.5000 
     95 CA         -5.0950  -21.2530  -51.3975 C.3       17 UNK         0.1400 
     96 CB         -5.6406  -21.2990  -49.9615 C.3       17 UNK        -0.1800 
     97 C          -5.8442  -22.2555  -52.3012 C.2       17 UNK         0.5000 
     98 O          -7.0040  -22.0079  -52.6331 O.2       17 UNK        -0.5000 
     99 N          -5.1886  -23.3608  -52.6881 N.am      18 UNK        -0.5000 
    100 CA        -5.7148  -24.3350  -53.6446 C.3       18 UNK         0.1400 
    101 CB        -4.9191  -25.6436  -53.5244 C.3       18 UNK        -0.1800 
    102 C         -5.6921  -23.8221  -55.0991 C.2       18 UNK         0.5000 
    103 O         -6.4696  -24.3154  -55.9177 O.2       18 UNK        -0.5000 
    104 N         -4.8150  -22.8547  -55.4046 N.am      19 UNK        -0.5000 
    105 CA        -4.7436  -22.1958  -56.7064 C.3       19 UNK         0.1400 
    106 CB        -3.3262  -21.6388  -56.9145 C.3       19 UNK        -0.1800 
    107 C         -5.7760  -21.0607  -56.7818 C.2       19 UNK         0.5000 
    108 O         -5.9853  -20.3591  -55.7901 O.2       19 UNK        -0.5000 
    109 N         -6.3585  -20.8543  -57.9702 N.am      20 UNK        -0.5000 
    110 CA        -7.3433  -19.7994  -58.2424 C.3       20 UNK         0.1400 
    111 CB        -7.9304  -20.0088  -59.6465 C.3       20 UNK        -0.1800 
    112 C         -6.7750  -18.3723  -58.1014 C.2       20 UNK         0.5000 
    113 O         -7.5152  -17.4520  -57.7530 O.2       20 UNK        -0.5000 
    114 N         -5.4666  -18.2237  -58.3491 N.am      21 UNK        -0.5000 
    115 CA        -4.7106  -16.9852  -58.1568 C.3       21 UNK         0.1400 
    116 CB        -3.4539  -17.0401  -59.0405 C.3       21 UNK        -0.1800 
    117 C         -4.3219  -16.7306  -56.6846 C.2       21 UNK         0.5000 
    118 O         -3.8885  -15.6230  -56.3653 O.2       21 UNK        -0.5000 
    119 N         -4.4632  -17.7477  -55.8216 N.am      22 UNK        -0.5000 
    120 CA        -4.0860  -17.7397  -54.3984 C.3       22 UNK         0.1400 
    121 C         -2.5480  -17.6582  -54.1349 C.2       22 UNK         0.5000 
    122 N         -1.6979  -18.0043  -55.0951 N.am      22 UNK        -0.7600 
    123 O         -2.1073  -17.2893  -53.0510 O.2       22 UNK        -0.5000 
    124 C124       -4.9248  -16.7212  -53.5703 C.3       23 UNK        -0.0398 
    125 S125       -5.4032  -17.3856  -51.9393 S.3       23 UNK        -0.2404 
    126 C126       -4.4376  -16.3501  -50.7955 C.3       23 UNK        -0.0205 
    127 H127       -4.3134  -16.7227  -41.6937 H         1 UNK         0.0600 
    128 H128       -4.0386  -18.2339  -42.5691 H         1 UNK         0.0600 
    129 H129       -5.4278  -17.2280  -42.9714 H         1 UNK         0.0600 
    130 H130       -2.1588  -17.9353  -43.7430 H         1 UNK         0.3000 
    131 H131       -2.0305  -16.0540  -45.8882 H         1 UNK         0.0600 
    132 H132        0.4519  -17.4764  -44.8639 H         1 UNK         0.0800 
    133 H133       -0.8241  -18.4565  -45.4932 H         1 UNK         0.0800 
    134 H134       -0.1873  -18.5117  -49.1224 H         1 UNK         0.0800 
    135 H135       -0.5141  -19.3935  -47.6553 H         1 UNK         0.0800 
    136 H136       -1.8868  -17.0764  -50.1615 H         1 UNK         0.1150 
    137 H137       -5.9250  -17.3999  -48.7765 H         1 UNK         0.1150 
    138 H138       -2.7277  -19.1802  -46.5366 H         1 UNK         0.1150 
    139 H139       -6.0829  -17.9649  -46.2134 H         1 UNK         0.0800 
    140 H140       -6.2362  -19.4691  -47.0851 H         1 UNK         0.0800 
    141 H141       -4.4163  -21.2875  -46.8189 H         1 UNK         0.0800 
    142 H142       -5.3176  -22.0519  -45.5359 H         1 UNK         0.0800 
    143 H143       -2.3953  -21.1483  -45.3543 H         1 UNK         0.0600 
    144 H144       -2.4958  -21.3888  -43.2076 H         1 UNK         0.3000 
    145 H145       -4.6095  -22.6301  -40.8374 H         1 UNK         0.0600 
    146 H146       -2.8680  -24.1321  -39.8709 H         1 UNK         0.0600 
    147 H147       -3.7027  -24.9206  -41.1983 H         1 UNK         0.0600 
    148 H148       -2.0870  -24.2698  -41.4462 H         1 UNK         0.0600 
    149 H149       -1.7602  -21.8984  -40.9385 H         1 UNK         0.3000 
    150 H150       -2.3053  -18.4468  -40.7515 H         1 UNK         0.0600 
    151 H151       -1.4096  -20.2049  -38.4053 H         1 UNK         0.0600 
    152 H152       -2.6768  -18.9855  -38.3411 H         1 UNK         0.0600 
    153 H153       -1.0148  -18.5008  -38.6358 H         1 UNK         0.0600 
    154 H154        0.0724  -19.9320  -40.3952 H         1 UNK         0.3000 
    155 H155        1.3792  -20.7738  -42.0129 H         1 UNK         0.0600 
    156 H156        0.3766  -20.6500  -44.9093 H         1 UNK         0.0600 
    157 H157        0.1037  -22.0037  -43.8267 H         1 UNK         0.0600 
    158 H158        1.7434  -21.5822  -44.2977 H         1 UNK         0.0600 
    159 H159        1.9004  -18.9673  -44.1634 H         1 UNK         0.3000 
    160 H160        2.3261  -16.1196  -42.8892 H         1 UNK         0.0600 
    161 H161        4.9094  -17.5280  -42.0507 H         1 UNK         0.0600 
    162 H162        4.0076  -16.3236  -41.1428 H         1 UNK         0.0600 
    163 H163        4.8388  -15.8641  -42.6216 H         1 UNK         0.0600 
    164 H164        2.9242  -16.3990  -44.9822 H         1 UNK         0.3000 
    165 H165        5.3173  -18.1796  -46.7128 H         1 UNK         0.0600 
    166 H166        3.5652  -19.1171  -48.2359 H         1 UNK         0.0600 
    167 H167        3.7875  -20.1014  -46.7999 H         1 UNK         0.0600 
    168 H168        2.3878  -19.0438  -46.9252 H         1 UNK         0.0600 
    169 H169        2.9638  -16.6858  -47.5345 H         1 UNK         0.3000 
    170 H170        4.7306  -14.2628  -48.7327 H         1 UNK         0.0600 
    171 H171        2.5079  -15.3134  -49.0082 H         1 UNK         0.0600 
    172 H172        1.9658  -14.6583  -47.4625 H         1 UNK         0.0600 
    173 H173        2.3277  -13.5836  -48.8046 H         1 UNK         0.0600 
    174 H174        3.6472  -13.2368  -46.1508 H         1 UNK         0.3000 
    175 H175        6.2435  -11.0659  -45.6296 H         1 UNK         0.0600 
    176 H176        3.6918   -9.9236  -46.8940 H         1 UNK         0.0600 
    177 H177        4.7752   -9.0602  -45.8014 H         1 UNK         0.0600 
    178 H178        5.3381   -9.5509  -47.3904 H         1 UNK         0.0600 
    179 H179        3.4542  -11.1261  -44.7823 H         1 UNK         0.3000 
    180 H180        3.7716  -13.7489  -42.4864 H         1 UNK         0.0600 
    181 H181        3.6142  -10.7693  -41.7855 H         1 UNK         0.0600 
    182 H182        4.7669  -11.9160  -41.1129 H         1 UNK         0.0600 
    183 H183        3.0537  -12.1044  -40.7773 H         1 UNK         0.0600 
    184 H184        1.6927  -11.8620  -42.9103 H         1 UNK         0.3000 
    185 H185       -0.2180  -12.5632  -43.9097 H         1 UNK         0.0600 
    186 H186        0.8709  -11.0880  -45.6157 H         1 UNK         0.0600 
    187 H187        0.8875  -12.4114  -46.7740 H         1 UNK         0.0600 
    188 H188       -0.6439  -11.7312  -46.2257 H         1 UNK         0.0600 
    189 H189       -0.5971  -14.2827  -46.1639 H         1 UNK         0.3000 
    190 H190       -3.9222  -24.2779  -44.6723 H         1 UNK         0.3000 
    191 H191       -3.2386  -25.6449  -47.0345 H         1 UNK         0.0600 
    192 H192       -4.9528  -26.4163  -45.4186 H         1 UNK         0.0600 
    193 H193       -3.7620  -27.6821  -45.6724 H         1 UNK         0.0600 
    194 H194       -3.7134  -26.7168  -44.2010 H         1 UNK         0.0600 
    195 H195       -1.1876  -24.8834  -44.3085 H         1 UNK         0.3000 
    196 H196        0.8762  -26.8356  -44.7884 H         1 UNK         0.0600 
    197 H197        2.2117  -25.3783  -43.2731 H         1 UNK         0.0600 
    198 H198        0.6187  -25.6890  -42.6025 H         1 UNK         0.0600 
    199 H199        0.9757  -24.1315  -43.3465 H         1 UNK         0.0600 
    200 H200        0.1082  -23.6850  -46.1850 H         1 UNK         0.3000 
    201 H201        2.6179  -23.5798  -47.7737 H         1 UNK         0.0600 
    202 H202        1.6965  -21.4023  -48.5461 H         1 UNK         0.0600 
    203 H203        1.7764  -21.4617  -46.7925 H         1 UNK         0.0600 
    204 H204        0.2297  -21.6627  -47.6081 H         1 UNK         0.0600 
    205 H205       -0.9003  -23.9691  -48.0468 H         1 UNK         0.3000 
    206 H206       -2.2759  -24.9581  -49.4260 H         1 UNK         0.0600 
    207 H207       -0.6721  -26.8857  -49.4666 H         1 UNK         0.0600 
    208 H208       -1.5901  -26.7423  -50.9559 H         1 UNK         0.0600 
    209 H209        0.0849  -26.2166  -50.9122 H         1 UNK         0.0600 
    210 H210       -0.6425  -22.3763  -50.2174 H         1 UNK         0.3000 
    211 H211       -0.8708  -22.0115  -53.0074 H         1 UNK         0.0600 
    212 H212       -1.0204  -19.9176  -50.7757 H         1 UNK         0.0600 
    213 H213       -0.6154  -19.6085  -52.4571 H         1 UNK         0.0600 
    214 H214        0.4759  -20.5589  -51.4605 H         1 UNK         0.0600 
    215 H215       -3.2583  -21.6951  -50.4505 H         1 UNK         0.3000 
    216 H216       -5.2825  -20.2602  -51.8064 H         1 UNK         0.0600 
    217 H217       -6.7140  -21.1059  -49.9435 H         1 UNK         0.0600 
    218 H218       -5.1667  -20.5417  -49.3379 H         1 UNK         0.0600 
    219 H219       -5.4722  -22.2715  -49.4974 H         1 UNK         0.0600 
    220 H220       -4.2334  -23.5004  -52.3824 H         1 UNK         0.3000 
    221 H221       -6.7538  -24.5474  -53.3841 H         1 UNK         0.0600 
    222 H222       -3.8804  -25.5121  -53.8294 H         1 UNK         0.0600 
    223 H223       -4.9243  -26.0195  -52.5011 H         1 UNK         0.0600 
    224 H224       -5.3490  -26.4197  -54.1588 H         1 UNK         0.0600 
    225 H225       -4.2658  -22.4339  -54.6635 H         1 UNK         0.3000 
    226 H226       -4.9472  -22.9241  -57.4943 H         1 UNK         0.0600 
    227 H227       -2.5766  -22.4256  -56.8279 H         1 UNK         0.0600 
    228 H228       -3.2214  -21.1979  -57.9065 H         1 UNK         0.0600 
    229 H229       -3.0835  -20.8647  -56.1857 H         1 UNK         0.0600 
    230 H230       -6.1298  -21.4639  -58.7426 H         1 UNK         0.3000 
    231 H231       -8.1519  -19.9017  -57.5154 H         1 UNK         0.0600 
    232 H232       -7.1624  -19.9433  -60.4183 H         1 UNK         0.0600 
    233 H233       -8.6859  -19.2544  -59.8706 H         1 UNK         0.0600 
    234 H234       -8.4118  -20.9832  -59.7321 H         1 UNK         0.0600 
    235 H235       -4.9425  -19.0335  -58.6460 H         1 UNK         0.3000 
    236 H236       -5.3220  -16.1419  -58.4852 H         1 UNK         0.0600 
    237 H237       -3.7164  -17.1581  -60.0921 H         1 UNK         0.0600 
    238 H238       -2.8733  -16.1206  -58.9543 H         1 UNK         0.0600 
    239 H239       -2.8006  -17.8680  -58.7619 H         1 UNK         0.0600 
    240 H240       -4.8788  -18.6128  -56.1448 H         1 UNK         0.3000 
    241 H241       -4.3613  -18.7394  -54.0625 H         1 UNK         0.0600 
    242 H242       -0.7078  -17.9483  -54.9192 H         1 UNK         0.3800 
    243 H243       -2.0331  -18.3186  -55.9902 H         1 UNK         0.3800 
    244 H244       -4.4130  -15.7623  -53.4757 H         1 UNK         0.0800 
    245 H245       -5.8597  -16.4985  -54.0864 H         1 UNK         0.0800 
    246 H246       -3.5847  -15.9085  -51.3118 H         1 UNK         0.0800 
    247 H247       -5.0552  -15.5172  -50.4570 H         1 UNK         0.0800 
@<TRIPOS>BOND
     1    1    2 1    
     2    1  127 1    
     3    1  128 1    
     4    1  129 1    
     5    2    3 2    
     6    2    4 am   BACKBONE|DICT|INTERRES
     7    4    5 1    
     8    4  130 1    
     9    5    6 1    
    10    5   65 1    
    11    5  131 1    
    12    6    7 1    
    13    6  132 1    
    14    6  133 1    
    15    7    8 1    
    16    8    9 1    
    17    8  134 1    
    18    8  135 1    
    19    9   10 ar   
    20    9   14 ar   
    21   10   11 ar   
    22   10  136 1    
    23   11   12 ar   
    24   11  126 1    
    25   12   13 ar   
    26   12  137 1    
    27   13   14 ar   
    28   13   15 1    
    29   14  138 1    
    30   15   16 1    
    31   15  139 1    
    32   15  140 1    
    33   16   17 1    
    34   17   18 1    
    35   17  141 1    
    36   17  142 1    
    37   18   19 1    
    38   18   67 1    
    39   18  143 1    
    40   19   20 am   BACKBONE|DICT|INTERRES
    41   19  144 1    
    42   20   21 2    
    43   20   22 1    
    44   22   23 1    
    45   22   24 1    
    46   22  145 1    
    47   23  146 1    
    48   23  147 1    
    49   23  148 1    
    50   24   25 am   BACKBONE|DICT|INTERRES
    51   24  149 1    
    52   25   26 2    
    53   25   27 1    
    54   27   28 1    
    55   27   29 1    
    56   27  150 1    
    57   28  151 1    
    58   28  152 1    
    59   28  153 1    
    60   29   30 am   BACKBONE|DICT|INTERRES
    61   29  154 1    
    62   30   31 2    
    63   30   32 1    
    64   32   33 1    
    65   32   34 1    
    66   32  155 1    
    67   33  156 1    
    68   33  157 1    
    69   33  158 1    
    70   34   35 am   BACKBONE|DICT|INTERRES
    71   34  159 1    
    72   35   36 2    
    73   35   37 1    
    74   37   38 1    
    75   37   39 1    
    76   37  160 1    
    77   38  161 1    
    78   38  162 1    
    79   38  163 1    
    80   39   40 am   BACKBONE|DICT|INTERRES
    81   39  164 1    
    82   40   41 2    
    83   40   42 1    
    84   42   43 1    
    85   42   44 1    
    86   42  165 1    
    87   43  166 1    
    88   43  167 1    
    89   43  168 1    
    90   44   45 am   BACKBONE|DICT|INTERRES
    91   44  169 1    
    92   45   46 2    
    93   45   47 1    
    94   47   48 1    
    95   47   49 1    
    96   47  170 1    
    97   48  171 1    
    98   48  172 1    
    99   48  173 1    
   100   49   50 am   BACKBONE|DICT|INTERRES
   101   49  174 1    
   102   50   51 2    
   103   50   52 1    
   104   52   53 1    
   105   52   54 1    
   106   52  175 1    
   107   53  176 1    
   108   53  177 1    
   109   53  178 1    
   110   54   55 am   BACKBONE|DICT|INTERRES
   111   54  179 1    
   112   55   56 2    
   113   55   57 1    
   114   57   58 1    
   115   57   59 1    
   116   57  180 1    
   117   58  181 1    
   118   58  182 1    
   119   58  183 1    
   120   59   60 am   BACKBONE|DICT|INTERRES
   121   59  184 1    
   122   60   61 2    
   123   60   62 1    
   124   62   63 1    
   125   62   64 1    
   126   62  185 1    
   127   63  186 1    
   128   63  187 1    
   129   63  188 1    
   130   64   65 am   BACKBONE|DICT|INTERRES
   131   64  189 1    
   132   65   66 2    
   133   67   68 2    
   134   67   69 am   BACKBONE|DICT|INTERRES
   135   69   70 1    
   136   69  190 1    
   137   70   71 1    
   138   70   72 1    
   139   70  191 1    
   140   71  192 1    
   141   71  193 1    
   142   71  194 1    
   143   72   73 2    
   144   72   74 am   BACKBONE|DICT|INTERRES
   145   74   75 1    
   146   74  195 1    
   147   75   76 1    
   148   75   77 1    
   149   75  196 1    
   150   76  197 1    
   151   76  198 1    
   152   76  199 1    
   153   77   78 2    
   154   77   79 am   BACKBONE|DICT|INTERRES
   155   79   80 1    
   156   79  200 1    
   157   80   81 1    
   158   80   82 1    
   159   80  201 1    
   160   81  202 1    
   161   81  203 1    
   162   81  204 1    
   163   82   83 2    
   164   82   84 am   BACKBONE|DICT|INTERRES
   165   84   85 1    
   166   84  205 1    
   167   85   86 1    
   168   85   87 1    
   169   85  206 1    
   170   86  207 1    
   171   86  208 1    
   172   86  209 1    
   173   87   88 2    
   174   87   89 am   BACKBONE|DICT|INTERRES
   175   89   90 1    
   176   89  210 1    
   177   90   91 1    
   178   90   92 1    
   179   90  211 1    
   180   91  212 1    
   181   91  213 1    
   182   91  214 1    
   183   92   93 2    
   184   92   94 am   BACKBONE|DICT|INTERRES
   185   94   95 1    
   186   94  215 1    
   187   95   96 1    
   188   95   97 1    
   189   95  216 1    
   190   96  217 1    
   191   96  218 1    
   192   96  219 1    
   193   97   98 2    
   194   97   99 am   BACKBONE|DICT|INTERRES
   195   99  100 1    
   196   99  220 1    
   197  100  101 1    
   198  100  102 1    
   199  100  221 1    
   200  101  222 1    
   201  101  223 1    
   202  101  224 1    
   203  102  103 2    
   204  102  104 am   BACKBONE|DICT|INTERRES
   205  104  105 1    
   206  104  225 1    
   207  105  106 1    
   208  105  107 1    
   209  105  226 1    
   210  106  227 1    
   211  106  228 1    
   212  106  229 1    
   213  107  108 2    
   214  107  109 am   BACKBONE|DICT|INTERRES
   215  109  110 1    
   216  109  230 1    
   217  110  111 1    
   218  110  112 1    
   219  110  231 1    
   220  111  232 1    
   221  111  233 1    
   222  111  234 1    
   223  112  113 2    
   224  112  114 am   BACKBONE|DICT|INTERRES
   225  114  115 1    
   226  114  235 1    
   227  115  116 1    
   228  115  117 1    
   229  115  236 1    
   230  116  237 1    
   231  116  238 1    
   232  116  239 1    
   233  117  118 2    
   234  117  119 am   BACKBONE|DICT|INTERRES
   235  119  120 1    
   236  119  240 1    
   237  120  121 1    
   238  120  124 1    
   239  120  241 1    
   240  121  122 am   BACKBONE|DICT|INTERRES
   241  121  123 2    
   242  122  242 1    
   243  122  243 1    
   244  124  125 1    
   245  124  244 1    
   246  124  245 1    
   247  125  126 1    
   248  126  246 1    
   249  126  247 1    
@<TRIPOS>SUBSTRUCTURE
     1 UNK         1 GROUP             0       ****    0 ROOT    
