@<TRIPOS>MOLECULE
3R540
247   249    1
SMALL
USER_CHARGES


@<TRIPOS>ATOM
      1 CA          1.7343  -11.5566  -49.0075 C.3       0 UNK        -0.1800 
      2 C           1.0613  -12.1428  -47.7761 C.2       0 UNK         0.5000 
      3 O           1.2284  -11.6118  -46.6790 O.2       0 UNK        -0.5000 
      4 N           0.2840  -13.2187  -47.9577 N.am      1 UNK        -0.5000 
      5 CA         -0.4380  -13.9862  -46.9272 C.3       1 UNK         0.1400 
      6 C6         -1.1873  -15.1995  -47.5411 C.3       23 UNK        -0.0398 
      7 S7         -2.2736  -14.7425  -48.9434 S.3       23 UNK        -0.2404 
      8 C8         -1.8113  -15.9624  -50.2123 C.3       23 UNK        -0.0205 
      9 C9         -2.7410  -17.1646  -50.1830 C.ar      23 UNK        -0.0193 
     10 C10        -3.8563  -17.1992  -51.0243 C.ar      23 UNK        -0.1150 
     11 C11        -4.7159  -18.3006  -51.0266 C.ar      23 UNK        -0.0193 
     12 C12        -4.4582  -19.3696  -50.1630 C.ar      23 UNK        -0.1150 
     13 C13        -3.3418  -19.3512  -49.3211 C.ar      23 UNK        -0.0193 
     14 C14        -2.4884  -18.2431  -49.3307 C.ar      23 UNK        -0.1150 
     15 C15        -3.0542  -20.5320  -48.4093 C.3       23 UNK        -0.0205 
     16 S16        -1.6342  -21.4954  -49.0237 S.3       23 UNK        -0.2404 
     17 C17        -0.4144  -21.2944  -47.6754 C.3       23 UNK        -0.0398 
     18 CA          0.0023  -22.6091  -46.9662 C.3       11 UNK         0.1400 
     19 N           0.8823  -22.3410  -45.8276 N.am      11 UNK        -0.5000 
     20 C           1.5231  -23.2698  -45.1046 C.2       10 UNK         0.5000 
     21 O           1.4975  -24.4731  -45.3573 O.2       10 UNK        -0.5000 
     22 CA          2.2665  -22.7768  -43.8510 C.3       10 UNK         0.1400 
     23 CB          3.6244  -22.1642  -44.2237 C.3       10 UNK        -0.1800 
     24 N           1.4770  -21.8137  -43.0807 N.am      10 UNK        -0.5000 
     25 C           0.3030  -22.0971  -42.4972 C.2       9 UNK         0.5000 
     26 O          -0.2060  -23.2182  -42.4997 O.2       9 UNK        -0.5000 
     27 CA         -0.4507  -20.9282  -41.8376 C.3       9 UNK         0.1400 
     28 CB          0.1195  -20.6285  -40.4435 C.3       9 UNK        -0.1800 
     29 N          -0.4354  -19.7105  -42.6495 N.am      9 UNK        -0.5000 
     30 C          -1.0017  -19.5892  -43.8591 C.2       8 UNK         0.5000 
     31 O          -1.6308  -20.4888  -44.4143 O.2       8 UNK        -0.5000 
     32 CA         -0.7780  -18.2577  -44.6001 C.3       8 UNK         0.1400 
     33 CB         -1.6936  -17.1586  -44.0427 C.3       8 UNK        -0.1800 
     34 N           0.6176  -17.8220  -44.5396 N.am      8 UNK        -0.5000 
     35 C           1.6483  -18.5110  -45.0516 C.2       7 UNK         0.5000 
     36 O           1.5235  -19.5487  -45.7007 O.2       7 UNK        -0.5000 
     37 CA          3.0572  -17.9839  -44.7381 C.3       7 UNK         0.1400 
     38 CB          3.4723  -16.8994  -45.7433 C.3       7 UNK        -0.1800 
     39 N           3.1468  -17.4697  -43.3704 N.am      7 UNK        -0.5000 
     40 C           3.1366  -18.2461  -42.2763 C.2       6 UNK         0.5000 
     41 O           3.0942  -19.4753  -42.3149 O.2       6 UNK        -0.5000 
     42 CA          3.1304  -17.5321  -40.9114 C.3       6 UNK         0.1400 
     43 CB          4.5592  -17.1585  -40.4901 C.3       6 UNK        -0.1800 
     44 N           2.2938  -16.3316  -40.9065 N.am      6 UNK        -0.5000 
     45 C           0.9603  -16.3343  -41.0464 C.2       5 UNK         0.5000 
     46 O           0.2879  -17.3613  -41.1243 O.2       5 UNK        -0.5000 
     47 CA          0.2691  -14.9618  -41.1766 C.3       5 UNK         0.1400 
     48 CB         -0.1697  -14.4450  -39.7991 C.3       5 UNK        -0.1800 
     49 N           1.1016  -13.9482  -41.8310 N.am      5 UNK        -0.5000 
     50 C           1.5955  -14.0480  -43.0711 C.2       4 UNK         0.5000 
     51 O           1.3764  -15.0064  -43.8149 O.2       4 UNK        -0.5000 
     52 CA          2.4943  -12.8904  -43.5366 C.3       4 UNK         0.1400 
     53 CB          3.4035  -13.2911  -44.7113 C.3       4 UNK        -0.1800 
     54 N           1.6883  -11.7423  -43.9328 N.am      4 UNK        -0.5000 
     55 C           1.1567  -10.8398  -43.0988 C.2       3 UNK         0.5000 
     56 O           1.2914  -10.8811  -41.8748 O.2       3 UNK        -0.5000 
     57 CA          0.3324   -9.7114  -43.7381 C.3       3 UNK         0.1400 
     58 CB          1.2568   -8.6617  -44.3754 C.3       3 UNK        -0.1800 
     59 N          -0.5649  -10.2444  -44.7620 N.am      3 UNK        -0.5000 
     60 C          -1.8948  -10.3500  -44.6380 C.2       2 UNK         0.5000 
     61 O          -2.5274   -9.9452  -43.6616 O.2       2 UNK        -0.5000 
     62 CA         -2.6563  -11.0261  -45.7974 C.3       2 UNK         0.1400 
     63 CB         -3.1867   -9.9709  -46.7798 C.3       2 UNK        -0.1800 
     64 N          -1.8485  -11.9975  -46.5363 N.am      2 UNK        -0.5000 
     65 C          -1.3830  -13.1491  -46.0322 C.2       1 UNK         0.5000 
     66 O          -1.6549  -13.5491  -44.9004 O.2       1 UNK        -0.5000 
     67 C          -1.1946  -23.4935  -46.5534 C.2       11 UNK         0.5000 
     68 O          -1.4470  -24.5034  -47.2132 O.2       11 UNK        -0.5000 
     69 N          -1.8785  -23.1287  -45.4584 N.am      12 UNK        -0.5000 
     70 CA         -3.0062  -23.8658  -44.8816 C.3       12 UNK         0.1400 
     71 CB         -3.5846  -23.0870  -43.6914 C.3       12 UNK        -0.1800 
     72 C          -2.6575  -25.3094  -44.4788 C.2       12 UNK         0.5000 
     73 O          -3.4613  -26.2127  -44.7109 O.2       12 UNK        -0.5000 
     74 N          -1.4590  -25.5032  -43.9140 N.am      13 UNK        -0.5000 
     75 CA         -0.9104  -26.8162  -43.5819 C.3       13 UNK         0.1400 
     76 CB          0.3042  -26.6396  -42.6575 C.3       13 UNK        -0.1800 
     77 C          -0.5328  -27.6368  -44.8306 C.2       13 UNK         0.5000 
     78 O          -0.7654  -28.8462  -44.8508 O.2       13 UNK        -0.5000 
     79 N           0.0523  -26.9734  -45.8371 N.am      14 UNK        -0.5000 
     80 CA          0.5408  -27.5923  -47.0674 C.3       14 UNK         0.1400 
     81 CB          1.4952  -26.6274  -47.7890 C.3       14 UNK        -0.1800 
     82 C          -0.5789  -28.0536  -48.0160 C.2       14 UNK         0.5000 
     83 O          -0.5374  -29.1956  -48.4774 O.2       14 UNK        -0.5000 
     84 N          -1.5353  -27.1644  -48.3171 N.am      15 UNK        -0.5000 
     85 CA         -2.5663  -27.4045  -49.3347 C.3       15 UNK         0.1400 
     86 CB         -1.9652  -27.2055  -50.7406 C.3       15 UNK        -0.1800 
     87 C          -3.8265  -26.5366  -49.1820 C.2       15 UNK         0.5000 
     88 O          -4.8735  -26.9238  -49.7022 O.2       15 UNK        -0.5000 
     89 N          -3.7138  -25.3806  -48.5125 N.am      16 UNK        -0.5000 
     90 CA         -4.7486  -24.3529  -48.3476 C.3       16 UNK         0.1400 
     91 CB         -5.9407  -24.8809  -47.5220 C.3       16 UNK        -0.1800 
     92 C          -5.1706  -23.6772  -49.6694 C.2       16 UNK         0.5000 
     93 O          -6.2992  -23.1962  -49.7823 O.2       16 UNK        -0.5000 
     94 N          -4.2425  -23.6148  -50.6296 N.am      17 UNK        -0.5000 
     95 CA         -4.3766  -22.9006  -51.8910 C.3       17 UNK         0.1400 
     96 CB         -5.0821  -23.7816  -52.9356 C.3       17 UNK        -0.1800 
     97 C          -2.9777  -22.4879  -52.3617 C.2       17 UNK         0.5000 
     98 O          -2.0266  -23.2503  -52.1685 O.2       17 UNK        -0.5000 
     99 N          -2.8840  -21.3061  -52.9762 N.am      18 UNK        -0.5000 
    100 CA        -1.6603  -20.7369  -53.5285 C.3       18 UNK         0.1400 
    101 CB        -1.3160  -19.4522  -52.7612 C.3       18 UNK        -0.1800 
    102 C         -1.8799  -20.4383  -55.0168 C.2       18 UNK         0.5000 
    103 O         -2.9795  -20.0302  -55.4071 O.2       18 UNK        -0.5000 
    104 N         -0.8300  -20.6455  -55.8214 N.am      19 UNK        -0.5000 
    105 CA        -0.8231  -20.4407  -57.2709 C.3       19 UNK         0.1400 
    106 CB         0.5442  -20.8591  -57.8323 C.3       19 UNK        -0.1800 
    107 C         -1.1439  -18.9863  -57.6583 C.2       19 UNK         0.5000 
    108 O         -0.6568  -18.0597  -57.0066 O.2       19 UNK        -0.5000 
    109 N         -1.9788  -18.8244  -58.6932 N.am      20 UNK        -0.5000 
    110 CA        -2.5237  -17.5790  -59.2556 C.3       20 UNK         0.1400 
    111 CB        -1.4039  -16.6474  -59.7583 C.3       20 UNK        -0.1800 
    112 C         -3.5044  -16.8237  -58.3328 C.2       20 UNK         0.5000 
    113 O         -4.4718  -16.2490  -58.8335 O.2       20 UNK        -0.5000 
    114 N         -3.2592  -16.8417  -57.0169 N.am      21 UNK        -0.5000 
    115 CA        -4.1005  -16.2284  -55.9904 C.3       21 UNK         0.1400 
    116 CB        -3.3298  -16.1905  -54.6632 C.3       21 UNK        -0.1800 
    117 C         -5.4467  -16.9533  -55.8121 C.2       21 UNK         0.5000 
    118 O         -6.4662  -16.2932  -55.6063 O.2       21 UNK        -0.5000 
    119 N         -5.4285  -18.2871  -55.9066 N.am      22 UNK        -0.5000 
    120 CA        -6.6115  -19.1521  -55.7826 C.3       22 UNK         0.1400 
    121 C         -6.4444  -20.5510  -56.4383 C.2       22 UNK         0.5000 
    122 N         -5.2365  -21.0625  -56.6412 N.am      22 UNK        -0.7600 
    123 O         -7.4373  -21.1781  -56.7976 O.2       22 UNK        -0.5000 
    124 C124       -7.1481  -19.2520  -54.3277 C.3       23 UNK        -0.0398 
    125 S125       -5.8620  -19.7206  -53.1176 S.3       23 UNK        -0.2404 
    126 C126       -5.9238  -18.3228  -51.9538 C.3       23 UNK        -0.0205 
    127 H127        1.4214  -10.5221  -49.1481 H         1 UNK         0.0600 
    128 H128        1.4858  -12.1144  -49.9107 H         1 UNK         0.0600 
    129 H129        2.8171  -11.5726  -48.8838 H         1 UNK         0.0600 
    130 H130        0.1648  -13.5707  -48.8969 H         1 UNK         0.3000 
    131 H131        0.3260  -14.3833  -46.2560 H         1 UNK         0.0600 
    132 H132       -0.4527  -15.9344  -47.8711 H         1 UNK         0.0800 
    133 H133       -1.7898  -15.7159  -46.7924 H         1 UNK         0.0800 
    134 H134       -0.7738  -16.2785  -50.0973 H         1 UNK         0.0800 
    135 H135       -1.8661  -15.4806  -51.1898 H         1 UNK         0.0800 
    136 H136       -4.0540  -16.3627  -51.6782 H         1 UNK         0.1150 
    137 H137       -5.1247  -20.2204  -50.1560 H         1 UNK         0.1150 
    138 H138       -1.6236  -18.2269  -48.6827 H         1 UNK         0.1150 
    139 H139       -2.8938  -20.1746  -47.3918 H         1 UNK         0.0800 
    140 H140       -3.9228  -21.1883  -48.3568 H         1 UNK         0.0800 
    141 H141       -0.7879  -20.5800  -46.9437 H         1 UNK         0.0800 
    142 H142        0.4714  -20.8237  -48.1039 H         1 UNK         0.0800 
    143 H143        0.5847  -23.1904  -47.6840 H         1 UNK         0.0600 
    144 H144        1.0001  -21.3634  -45.5744 H         1 UNK         0.3000 
    145 H145        2.4499  -23.6431  -43.2120 H         1 UNK         0.0600 
    146 H146        4.1844  -21.8767  -43.3338 H         1 UNK         0.0600 
    147 H147        4.2358  -22.8787  -44.7762 H         1 UNK         0.0600 
    148 H148        3.5102  -21.2783  -44.8481 H         1 UNK         0.0600 
    149 H149        1.8640  -20.8801  -42.9831 H         1 UNK         0.3000 
    150 H150       -1.4924  -21.2319  -41.7174 H         1 UNK         0.0600 
    151 H151        0.1004  -21.5188  -39.8138 H         1 UNK         0.0600 
    152 H152       -0.4636  -19.8591  -39.9370 H         1 UNK         0.0600 
    153 H153        1.1525  -20.2841  -40.4954 H         1 UNK         0.0600 
    154 H154        0.0162  -18.8983  -42.2380 H         1 UNK         0.3000 
    155 H155       -1.0302  -18.4072  -45.6520 H         1 UNK         0.0600 
    156 H156       -1.4742  -16.1920  -44.4930 H         1 UNK         0.0600 
    157 H157       -2.7402  -17.3868  -44.2470 H         1 UNK         0.0600 
    158 H158       -1.5904  -17.0492  -42.9639 H         1 UNK         0.0600 
    159 H159        0.8119  -16.9497  -44.0590 H         1 UNK         0.3000 
    160 H160        3.7578  -18.8156  -44.8354 H         1 UNK         0.0600 
    161 H161        2.7700  -16.0666  -45.7584 H         1 UNK         0.0600 
    162 H162        3.5108  -17.3064  -46.7544 H         1 UNK         0.0600 
    163 H163        4.4620  -16.5040  -45.5146 H         1 UNK         0.0600 
    164 H164        3.1028  -16.4671  -43.2608 H         1 UNK         0.3000 
    165 H165        2.7278  -18.2288  -40.1731 H         1 UNK         0.0600 
    166 H166        4.5742  -16.7217  -39.4914 H         1 UNK         0.0600 
    167 H167        5.2017  -18.0398  -40.4676 H         1 UNK         0.0600 
    168 H168        5.0093  -16.4415  -41.1778 H         1 UNK         0.0600 
    169 H169        2.7675  -15.4431  -40.8395 H         1 UNK         0.3000 
    170 H170       -0.6229  -15.0995  -41.7908 H         1 UNK         0.0600 
    171 H171       -0.8132  -15.1689  -39.2973 H         1 UNK         0.0600 
    172 H172        0.6851  -14.2576  -39.1481 H         1 UNK         0.0600 
    173 H173       -0.7344  -13.5166  -39.8881 H         1 UNK         0.0600 
    174 H174        1.2812  -13.0973  -41.3128 H         1 UNK         0.3000 
    175 H175        3.1402  -12.6060  -42.7031 H         1 UNK         0.0600 
    176 H176        4.0475  -14.1275  -44.4381 H         1 UNK         0.0600 
    177 H177        2.8277  -13.5904  -45.5875 H         1 UNK         0.0600 
    178 H178        4.0512  -12.4656  -45.0065 H         1 UNK         0.0600 
    179 H179        1.5187  -11.6503  -44.9326 H         1 UNK         0.3000 
    180 H180       -0.2342   -9.2223  -42.9431 H         1 UNK         0.0600 
    181 H181        1.8498   -9.0835  -45.1881 H         1 UNK         0.0600 
    182 H182        1.9499   -8.2527  -43.6391 H         1 UNK         0.0600 
    183 H183        0.6824   -7.8281  -44.7797 H         1 UNK         0.0600 
    184 H184       -0.1213  -10.6424  -45.5831 H         1 UNK         0.3000 
    185 H185       -3.5098  -11.5545  -45.3677 H         1 UNK         0.0600 
    186 H186       -3.7906  -10.4291  -47.5633 H         1 UNK         0.0600 
    187 H187       -3.8180   -9.2432  -46.2681 H         1 UNK         0.0600 
    188 H188       -2.3743   -9.4221  -47.2580 H         1 UNK         0.0600 
    189 H189       -1.5837  -11.7493  -47.4782 H         1 UNK         0.3000 
    190 H190       -1.6295  -22.2581  -44.9939 H         1 UNK         0.3000 
    191 H191       -3.7846  -23.9238  -45.6395 H         1 UNK         0.0600 
    192 H192       -2.8538  -22.9699  -42.8919 H         1 UNK         0.0600 
    193 H193       -4.4498  -23.6017  -43.2718 H         1 UNK         0.0600 
    194 H194       -3.9133  -22.0925  -43.9933 H         1 UNK         0.0600 
    195 H195       -0.8834  -24.6950  -43.6985 H         1 UNK         0.3000 
    196 H196       -1.6723  -27.3746  -43.0340 H         1 UNK         0.0600 
    197 H197        0.7220  -27.6057  -42.3719 H         1 UNK         0.0600 
    198 H198        0.0279  -26.1195  -41.7400 H         1 UNK         0.0600 
    199 H199        1.0976  -26.0669  -43.1385 H         1 UNK         0.0600 
    200 H200        0.2559  -25.9860  -45.7176 H         1 UNK         0.3000 
    201 H201        1.1182  -28.4765  -46.7886 H         1 UNK         0.0600 
    202 H202        2.3606  -26.3936  -47.1688 H         1 UNK         0.0600 
    203 H203        1.0035  -25.6882  -48.0442 H         1 UNK         0.0600 
    204 H204        1.8692  -27.0652  -48.7153 H         1 UNK         0.0600 
    205 H205       -1.5047  -26.2494  -47.8760 H         1 UNK         0.3000 
    206 H206       -2.9044  -28.4393  -49.2468 H         1 UNK         0.0600 
    207 H207       -1.1591  -27.9126  -50.9358 H         1 UNK         0.0600 
    208 H208       -2.7173  -27.3562  -51.5163 H         1 UNK         0.0600 
    209 H209       -1.5647  -26.1984  -50.8639 H         1 UNK         0.0600 
    210 H210       -2.8121  -25.1288  -48.1137 H         1 UNK         0.3000 
    211 H211       -4.2798  -23.5561  -47.7722 H         1 UNK         0.0600 
    212 H212       -6.5304  -25.6082  -48.0803 H         1 UNK         0.0600 
    213 H213       -6.6103  -24.0679  -47.2394 H         1 UNK         0.0600 
    214 H214       -5.6048  -25.3585  -46.6016 H         1 UNK         0.0600 
    215 H215       -3.3192  -23.9927  -50.4596 H         1 UNK         0.3000 
    216 H216       -4.9675  -22.0017  -51.7198 H         1 UNK         0.0600 
    217 H217       -4.5284  -24.7026  -53.1225 H         1 UNK         0.0600 
    218 H218       -5.1804  -23.2544  -53.8856 H         1 UNK         0.0600 
    219 H219       -6.0861  -24.0538  -52.6101 H         1 UNK         0.0600 
    220 H220       -3.7223  -20.7643  -53.1489 H         1 UNK         0.3000 
    221 H221       -0.8280  -21.4369  -53.4310 H         1 UNK         0.0600 
    222 H222       -1.1259  -19.6641  -51.7089 H         1 UNK         0.0600 
    223 H223       -2.1278  -18.7272  -52.8105 H         1 UNK         0.0600 
    224 H224       -0.4223  -18.9767  -53.1668 H         1 UNK         0.0600 
    225 H225        0.0428  -20.9466  -55.4137 H         1 UNK         0.3000 
    226 H226       -1.5864  -21.0952  -57.6970 H         1 UNK         0.0600 
    227 H227        0.7579  -21.9058  -57.6148 H         1 UNK         0.0600 
    228 H228        0.5745  -20.7409  -58.9163 H         1 UNK         0.0600 
    229 H229        1.3517  -20.2565  -57.4141 H         1 UNK         0.0600 
    230 H230       -2.3344  -19.6623  -59.1328 H         1 UNK         0.3000 
    231 H231       -3.1025  -17.8864  -60.1280 H         1 UNK         0.0600 
    232 H232       -0.7971  -16.2575  -58.9408 H         1 UNK         0.0600 
    233 H233       -1.8222  -15.7900  -60.2870 H         1 UNK         0.0600 
    234 H234       -0.7414  -17.1650  -60.4519 H         1 UNK         0.0600 
    235 H235       -2.4128  -17.3084  -56.7062 H         1 UNK         0.3000 
    236 H236       -4.3092  -15.2003  -56.2938 H         1 UNK         0.0600 
    237 H237       -2.3781  -15.6699  -54.7703 H         1 UNK         0.0600 
    238 H238       -3.9042  -15.6650  -53.9003 H         1 UNK         0.0600 
    239 H239       -3.1245  -17.1946  -54.2913 H         1 UNK         0.0600 
    240 H240       -4.5425  -18.7591  -56.0361 H         1 UNK         0.3000 
    241 H241       -7.3966  -18.6774  -56.3746 H         1 UNK         0.0600 
    242 H242       -5.1630  -21.9639  -57.0840 H         1 UNK         0.3800 
    243 H243       -4.4025  -20.6323  -56.2475 H         1 UNK         0.3800 
    244 H244       -7.9667  -19.9707  -54.2620 H         1 UNK         0.0800 
    245 H245       -7.5849  -18.2959  -54.0383 H         1 UNK         0.0800 
    246 H246       -5.9822  -17.3915  -52.5195 H         1 UNK         0.0800 
    247 H247       -6.8360  -18.3867  -51.3593 H         1 UNK         0.0800 
@<TRIPOS>BOND
     1    1    2 1    
     2    1  127 1    
     3    1  128 1    
     4    1  129 1    
     5    2    3 2    
     6    2    4 am   BACKBONE|DICT|INTERRES
     7    4    5 1    
     8    4  130 1    
     9    5    6 1    
    10    5   65 1    
    11    5  131 1    
    12    6    7 1    
    13    6  132 1    
    14    6  133 1    
    15    7    8 1    
    16    8    9 1    
    17    8  134 1    
    18    8  135 1    
    19    9   10 ar   
    20    9   14 ar   
    21   10   11 ar   
    22   10  136 1    
    23   11   12 ar   
    24   11  126 1    
    25   12   13 ar   
    26   12  137 1    
    27   13   14 ar   
    28   13   15 1    
    29   14  138 1    
    30   15   16 1    
    31   15  139 1    
    32   15  140 1    
    33   16   17 1    
    34   17   18 1    
    35   17  141 1    
    36   17  142 1    
    37   18   19 1    
    38   18   67 1    
    39   18  143 1    
    40   19   20 am   BACKBONE|DICT|INTERRES
    41   19  144 1    
    42   20   21 2    
    43   20   22 1    
    44   22   23 1    
    45   22   24 1    
    46   22  145 1    
    47   23  146 1    
    48   23  147 1    
    49   23  148 1    
    50   24   25 am   BACKBONE|DICT|INTERRES
    51   24  149 1    
    52   25   26 2    
    53   25   27 1    
    54   27   28 1    
    55   27   29 1    
    56   27  150 1    
    57   28  151 1    
    58   28  152 1    
    59   28  153 1    
    60   29   30 am   BACKBONE|DICT|INTERRES
    61   29  154 1    
    62   30   31 2    
    63   30   32 1    
    64   32   33 1    
    65   32   34 1    
    66   32  155 1    
    67   33  156 1    
    68   33  157 1    
    69   33  158 1    
    70   34   35 am   BACKBONE|DICT|INTERRES
    71   34  159 1    
    72   35   36 2    
    73   35   37 1    
    74   37   38 1    
    75   37   39 1    
    76   37  160 1    
    77   38  161 1    
    78   38  162 1    
    79   38  163 1    
    80   39   40 am   BACKBONE|DICT|INTERRES
    81   39  164 1    
    82   40   41 2    
    83   40   42 1    
    84   42   43 1    
    85   42   44 1    
    86   42  165 1    
    87   43  166 1    
    88   43  167 1    
    89   43  168 1    
    90   44   45 am   BACKBONE|DICT|INTERRES
    91   44  169 1    
    92   45   46 2    
    93   45   47 1    
    94   47   48 1    
    95   47   49 1    
    96   47  170 1    
    97   48  171 1    
    98   48  172 1    
    99   48  173 1    
   100   49   50 am   BACKBONE|DICT|INTERRES
   101   49  174 1    
   102   50   51 2    
   103   50   52 1    
   104   52   53 1    
   105   52   54 1    
   106   52  175 1    
   107   53  176 1    
   108   53  177 1    
   109   53  178 1    
   110   54   55 am   BACKBONE|DICT|INTERRES
   111   54  179 1    
   112   55   56 2    
   113   55   57 1    
   114   57   58 1    
   115   57   59 1    
   116   57  180 1    
   117   58  181 1    
   118   58  182 1    
   119   58  183 1    
   120   59   60 am   BACKBONE|DICT|INTERRES
   121   59  184 1    
   122   60   61 2    
   123   60   62 1    
   124   62   63 1    
   125   62   64 1    
   126   62  185 1    
   127   63  186 1    
   128   63  187 1    
   129   63  188 1    
   130   64   65 am   BACKBONE|DICT|INTERRES
   131   64  189 1    
   132   65   66 2    
   133   67   68 2    
   134   67   69 am   BACKBONE|DICT|INTERRES
   135   69   70 1    
   136   69  190 1    
   137   70   71 1    
   138   70   72 1    
   139   70  191 1    
   140   71  192 1    
   141   71  193 1    
   142   71  194 1    
   143   72   73 2    
   144   72   74 am   BACKBONE|DICT|INTERRES
   145   74   75 1    
   146   74  195 1    
   147   75   76 1    
   148   75   77 1    
   149   75  196 1    
   150   76  197 1    
   151   76  198 1    
   152   76  199 1    
   153   77   78 2    
   154   77   79 am   BACKBONE|DICT|INTERRES
   155   79   80 1    
   156   79  200 1    
   157   80   81 1    
   158   80   82 1    
   159   80  201 1    
   160   81  202 1    
   161   81  203 1    
   162   81  204 1    
   163   82   83 2    
   164   82   84 am   BACKBONE|DICT|INTERRES
   165   84   85 1    
   166   84  205 1    
   167   85   86 1    
   168   85   87 1    
   169   85  206 1    
   170   86  207 1    
   171   86  208 1    
   172   86  209 1    
   173   87   88 2    
   174   87   89 am   BACKBONE|DICT|INTERRES
   175   89   90 1    
   176   89  210 1    
   177   90   91 1    
   178   90   92 1    
   179   90  211 1    
   180   91  212 1    
   181   91  213 1    
   182   91  214 1    
   183   92   93 2    
   184   92   94 am   BACKBONE|DICT|INTERRES
   185   94   95 1    
   186   94  215 1    
   187   95   96 1    
   188   95   97 1    
   189   95  216 1    
   190   96  217 1    
   191   96  218 1    
   192   96  219 1    
   193   97   98 2    
   194   97   99 am   BACKBONE|DICT|INTERRES
   195   99  100 1    
   196   99  220 1    
   197  100  101 1    
   198  100  102 1    
   199  100  221 1    
   200  101  222 1    
   201  101  223 1    
   202  101  224 1    
   203  102  103 2    
   204  102  104 am   BACKBONE|DICT|INTERRES
   205  104  105 1    
   206  104  225 1    
   207  105  106 1    
   208  105  107 1    
   209  105  226 1    
   210  106  227 1    
   211  106  228 1    
   212  106  229 1    
   213  107  108 2    
   214  107  109 am   BACKBONE|DICT|INTERRES
   215  109  110 1    
   216  109  230 1    
   217  110  111 1    
   218  110  112 1    
   219  110  231 1    
   220  111  232 1    
   221  111  233 1    
   222  111  234 1    
   223  112  113 2    
   224  112  114 am   BACKBONE|DICT|INTERRES
   225  114  115 1    
   226  114  235 1    
   227  115  116 1    
   228  115  117 1    
   229  115  236 1    
   230  116  237 1    
   231  116  238 1    
   232  116  239 1    
   233  117  118 2    
   234  117  119 am   BACKBONE|DICT|INTERRES
   235  119  120 1    
   236  119  240 1    
   237  120  121 1    
   238  120  124 1    
   239  120  241 1    
   240  121  122 am   BACKBONE|DICT|INTERRES
   241  121  123 2    
   242  122  242 1    
   243  122  243 1    
   244  124  125 1    
   245  124  244 1    
   246  124  245 1    
   247  125  126 1    
   248  126  246 1    
   249  126  247 1    
@<TRIPOS>SUBSTRUCTURE
     1 UNK         1 GROUP             0       ****    0 ROOT    
