@<TRIPOS>MOLECULE
3R540
247   249    1
SMALL
USER_CHARGES


@<TRIPOS>ATOM
      1 CA         -1.9235  -15.0946  -47.4952 C.3       0 UNK        -0.1800 
      2 C          -0.7998  -14.1027  -47.7514 C.2       0 UNK         0.5000 
      3 O          -0.4674  -13.2990  -46.8795 O.2       0 UNK        -0.5000 
      4 N          -0.2042  -14.1601  -48.9487 N.am      1 UNK        -0.5000 
      5 CA          0.8292  -13.2307  -49.4321 C.3       1 UNK         0.1400 
      6 C6          1.0915  -13.3767  -50.9517 C.3       23 UNK        -0.0398 
      7 S7         -0.4291  -13.2275  -51.9554 S.3       23 UNK        -0.2404 
      8 C8         -0.5628  -14.8836  -52.7032 C.3       23 UNK        -0.0205 
      9 C9         -0.9198  -15.9539  -51.6821 C.ar      23 UNK        -0.0193 
     10 C10        -2.2557  -16.1758  -51.3308 C.ar      23 UNK        -0.1150 
     11 C11        -2.5916  -17.1784  -50.4152 C.ar      23 UNK        -0.0193 
     12 C12        -1.5769  -17.9459  -49.8393 C.ar      23 UNK        -0.1150 
     13 C13        -0.2411  -17.7389  -50.1860 C.ar      23 UNK        -0.0193 
     14 C14         0.0827  -16.7432  -51.1098 C.ar      23 UNK        -0.1150 
     15 C15         0.8366  -18.6352  -49.6036 C.3       23 UNK        -0.0205 
     16 S16         1.0061  -18.4266  -47.8029 S.3       23 UNK        -0.2404 
     17 C17         1.9383  -19.9520  -47.4119 C.3       23 UNK        -0.0398 
     18 CA          1.1279  -21.1446  -46.8259 C.3       11 UNK         0.1400 
     19 N           1.0139  -21.0946  -45.3658 N.am      11 UNK        -0.5000 
     20 C           0.7817  -22.1701  -44.5983 C.2       10 UNK         0.5000 
     21 O           0.5882  -23.2982  -45.0513 O.2       10 UNK        -0.5000 
     22 CA          0.7537  -21.9592  -43.0735 C.3       10 UNK         0.1400 
     23 CB          2.1737  -21.8039  -42.5077 C.3       10 UNK        -0.1800 
     24 N          -0.0559  -20.8085  -42.6867 N.am      10 UNK        -0.5000 
     25 C          -1.3883  -20.7443  -42.8117 C.2       9 UNK         0.5000 
     26 O          -2.0901  -21.6771  -43.2035 O.2       9 UNK        -0.5000 
     27 CA         -2.0423  -19.3953  -42.4674 C.3       9 UNK         0.1400 
     28 CB         -2.3486  -19.2994  -40.9650 C.3       9 UNK        -0.1800 
     29 N          -1.2161  -18.2575  -42.8717 N.am      9 UNK        -0.5000 
     30 C          -0.9509  -17.9377  -44.1456 C.2       8 UNK         0.5000 
     31 O          -1.3729  -18.5680  -45.1122 O.2       8 UNK        -0.5000 
     32 CA         -0.0394  -16.7219  -44.3706 C.3       8 UNK         0.1400 
     33 CB         -0.8315  -15.4319  -44.1148 C.3       8 UNK        -0.1800 
     34 N           1.1651  -16.7416  -43.5364 N.am      8 UNK        -0.5000 
     35 C           2.0808  -17.7217  -43.5372 C.2       7 UNK         0.5000 
     36 O           2.0379  -18.6951  -44.2867 O.2       7 UNK        -0.5000 
     37 CA          3.2069  -17.6398  -42.4926 C.3       7 UNK         0.1400 
     38 CB          4.3449  -16.7293  -42.9685 C.3       7 UNK        -0.1800 
     39 N           2.7581  -17.1928  -41.1767 N.am      7 UNK        -0.5000 
     40 C           1.8319  -17.7841  -40.4144 C.2       6 UNK         0.5000 
     41 O           1.1833  -18.7671  -40.7760 O.2       6 UNK        -0.5000 
     42 CA          1.5677  -17.1814  -39.0187 C.3       6 UNK         0.1400 
     43 CB          2.3649  -17.9354  -37.9384 C.3       6 UNK        -0.1800 
     44 N           1.7696  -15.7280  -38.9099 N.am      6 UNK        -0.5000 
     45 C           2.8896  -14.9980  -39.0122 C.2       5 UNK         0.5000 
     46 O           3.9986  -15.4798  -39.2480 O.2       5 UNK        -0.5000 
     47 CA          2.7176  -13.4672  -38.8842 C.3       5 UNK         0.1400 
     48 CB          4.0590  -12.7137  -38.9329 C.3       5 UNK        -0.1800 
     49 N           1.8436  -12.9267  -39.9280 N.am      5 UNK        -0.5000 
     50 C           0.5136  -13.0660  -39.9887 C.2       4 UNK         0.5000 
     51 O          -0.1432  -13.6313  -39.1123 O.2       4 UNK        -0.5000 
     52 CA         -0.2202  -12.5024  -41.2216 C.3       4 UNK         0.1400 
     53 CB         -1.1422  -11.3428  -40.8111 C.3       4 UNK        -0.1800 
     54 N           0.6241  -12.0490  -42.3322 N.am      4 UNK        -0.5000 
     55 C           1.4243  -12.8057  -43.0952 C.2       3 UNK         0.5000 
     56 O           1.7120  -13.9771  -42.8410 O.2       3 UNK        -0.5000 
     57 CA          1.9510  -12.1091  -44.3621 C.3       3 UNK         0.1400 
     58 CB          3.0958  -11.1250  -44.0449 C.3       3 UNK        -0.1800 
     59 N           2.2776  -13.0375  -45.4513 N.am      3 UNK        -0.5000 
     60 C           3.3990  -13.7458  -45.6616 C.2       2 UNK         0.5000 
     61 O           4.3749  -13.7353  -44.9114 O.2       2 UNK        -0.5000 
     62 CA          3.4735  -14.5921  -46.9556 C.3       2 UNK         0.1400 
     63 CB          3.5794  -16.0898  -46.6392 C.3       2 UNK        -0.1800 
     64 N           2.3469  -14.3902  -47.8688 N.am      2 UNK        -0.5000 
     65 C           2.1564  -13.3116  -48.6421 C.2       1 UNK         0.5000 
     66 O           2.9677  -12.3892  -48.7292 O.2       1 UNK        -0.5000 
     67 C          -0.2300  -21.3999  -47.5181 C.2       11 UNK         0.5000 
     68 O          -0.2645  -22.1086  -48.5221 O.2       11 UNK        -0.5000 
     69 N          -1.3234  -20.8562  -46.9618 N.am      12 UNK        -0.5000 
     70 CA         -2.6866  -20.9914  -47.4837 C.3       12 UNK         0.1400 
     71 CB         -3.5640  -19.8634  -46.9168 C.3       12 UNK        -0.1800 
     72 C          -3.3363  -22.3658  -47.2276 C.2       12 UNK         0.5000 
     73 O          -4.4870  -22.5576  -47.6253 O.2       12 UNK        -0.5000 
     74 N          -2.6179  -23.3011  -46.5877 N.am      13 UNK        -0.5000 
     75 CA         -3.0359  -24.6858  -46.3608 C.3       13 UNK         0.1400 
     76 CB         -1.9245  -25.4369  -45.6140 C.3       13 UNK        -0.1800 
     77 C          -3.3865  -25.3915  -47.6848 C.2       13 UNK         0.5000 
     78 O          -2.5375  -25.4776  -48.5758 O.2       13 UNK        -0.5000 
     79 N          -4.6550  -25.8071  -47.8115 N.am      14 UNK        -0.5000 
     80 CA         -5.2811  -26.3638  -49.0181 C.3       14 UNK         0.1400 
     81 CB         -4.7102  -27.7647  -49.3260 C.3       14 UNK        -0.1800 
     82 C          -5.2085  -25.4126  -50.2349 C.2       14 UNK         0.5000 
     83 O          -5.0841  -25.8785  -51.3675 O.2       14 UNK        -0.5000 
     84 N          -5.2355  -24.0943  -49.9788 N.am      15 UNK        -0.5000 
     85 CA         -5.0462  -23.0054  -50.9445 C.3       15 UNK         0.1400 
     86 CB         -6.2303  -22.9380  -51.9314 C.3       15 UNK        -0.1800 
     87 C          -3.6658  -23.0537  -51.6364 C.2       15 UNK         0.5000 
     88 O          -3.5625  -22.7711  -52.8326 O.2       15 UNK        -0.5000 
     89 N          -2.6420  -23.4500  -50.8635 N.am      16 UNK        -0.5000 
     90 CA         -1.2662  -23.7416  -51.2781 C.3       16 UNK         0.1400 
     91 CB         -0.5654  -22.4795  -51.8229 C.3       16 UNK        -0.1800 
     92 C          -1.2219  -24.9280  -52.2601 C.2       16 UNK         0.5000 
     93 O          -0.5892  -24.8383  -53.3116 O.2       16 UNK        -0.5000 
     94 N          -1.9566  -25.9996  -51.9230 N.am      17 UNK        -0.5000 
     95 CA         -2.2473  -27.1644  -52.7716 C.3       17 UNK         0.1400 
     96 CB         -0.9824  -28.0230  -52.9767 C.3       17 UNK        -0.1800 
     97 C          -2.9287  -26.7526  -54.0971 C.2       17 UNK         0.5000 
     98 O          -2.5344  -27.2014  -55.1745 O.2       17 UNK        -0.5000 
     99 N          -3.9164  -25.8558  -53.9701 N.am      18 UNK        -0.5000 
    100 CA        -4.7021  -25.1891  -55.0127 C.3       18 UNK         0.1400 
    101 CB        -5.5172  -26.2172  -55.8232 C.3       18 UNK        -0.1800 
    102 C         -3.9144  -24.2242  -55.9277 C.2       18 UNK         0.5000 
    103 O         -4.5077  -23.6858  -56.8638 O.2       18 UNK        -0.5000 
    104 N         -2.6198  -23.9940  -55.6634 N.am      19 UNK        -0.5000 
    105 CA        -1.7604  -23.1449  -56.4905 C.3       19 UNK         0.1400 
    106 CB        -0.2865  -23.4909  -56.2330 C.3       19 UNK        -0.1800 
    107 C         -1.9995  -21.6402  -56.2745 C.2       19 UNK         0.5000 
    108 O         -1.8499  -20.8706  -57.2249 O.2       19 UNK        -0.5000 
    109 N         -2.3516  -21.2412  -55.0444 N.am      20 UNK        -0.5000 
    110 CA        -2.5923  -19.8421  -54.6820 C.3       20 UNK         0.1400 
    111 CB        -2.1175  -19.5953  -53.2438 C.3       20 UNK        -0.1800 
    112 C         -4.0667  -19.4374  -54.8551 C.2       20 UNK         0.5000 
    113 O         -4.3417  -18.2491  -55.0251 O.2       20 UNK        -0.5000 
    114 N         -4.9761  -20.4262  -54.8342 N.am      21 UNK        -0.5000 
    115 CA        -6.4252  -20.3008  -55.0418 C.3       21 UNK         0.1400 
    116 CB        -6.7288  -19.9282  -56.5078 C.3       21 UNK        -0.1800 
    117 C         -7.1017  -19.3573  -54.0214 C.2       21 UNK         0.5000 
    118 O         -7.8971  -18.4939  -54.3960 O.2       21 UNK        -0.5000 
    119 N         -6.7478  -19.5419  -52.7436 N.am      22 UNK        -0.5000 
    120 CA        -7.1736  -18.7260  -51.5923 C.3       22 UNK         0.1400 
    121 C         -8.6958  -18.7591  -51.2618 C.2       22 UNK         0.5000 
    122 N         -9.4716  -19.7049  -51.7771 N.am      22 UNK        -0.7600 
    123 O         -9.1803  -17.9088  -50.5202 O.2       22 UNK        -0.5000 
    124 C124       -6.3516  -19.0594  -50.3175 C.3       23 UNK        -0.0398 
    125 S125       -4.5521  -19.1069  -50.6083 S.3       23 UNK        -0.2404 
    126 C126       -4.0446  -17.4496  -50.0559 C.3       23 UNK        -0.0205 
    127 H127       -2.5875  -14.7274  -46.7132 H         1 UNK         0.0600 
    128 H128       -1.5203  -16.0593  -47.1861 H         1 UNK         0.0600 
    129 H129       -2.5223  -15.2399  -48.3931 H         1 UNK         0.0600 
    130 H130       -0.5207  -14.8429  -49.6251 H         1 UNK         0.3000 
    131 H131        0.4417  -12.2231  -49.2663 H         1 UNK         0.0600 
    132 H132        1.5923  -14.3200  -51.1694 H         1 UNK         0.0800 
    133 H133        1.7761  -12.5961  -51.2885 H         1 UNK         0.0800 
    134 H134       -1.3287  -14.8556  -53.4797 H         1 UNK         0.0800 
    135 H135        0.3702  -15.1324  -53.2115 H         1 UNK         0.0800 
    136 H136       -3.0333  -15.5765  -51.7833 H         1 UNK         0.1150 
    137 H137       -1.8273  -18.7250  -49.1355 H         1 UNK         0.1150 
    138 H138        1.1143  -16.5955  -51.3959 H         1 UNK         0.1150 
    139 H139        0.5793  -19.6696  -49.8355 H         1 UNK         0.0800 
    140 H140        1.8015  -18.4436  -50.0753 H         1 UNK         0.0800 
    141 H141        2.7479  -19.6835  -46.7319 H         1 UNK         0.0800 
    142 H142        2.4432  -20.2837  -48.3203 H         1 UNK         0.0800 
    143 H143        1.7303  -22.0306  -47.0405 H         1 UNK         0.0600 
    144 H144        1.2001  -20.1941  -44.9277 H         1 UNK         0.3000 
    145 H145        0.3092  -22.8490  -42.6224 H         1 UNK         0.0600 
    146 H146        2.1563  -21.6990  -41.4227 H         1 UNK         0.0600 
    147 H147        2.7832  -22.6775  -42.7417 H         1 UNK         0.0600 
    148 H148        2.6812  -20.9314  -42.9184 H         1 UNK         0.0600 
    149 H149        0.4353  -20.0021  -42.3169 H         1 UNK         0.3000 
    150 H150       -2.9870  -19.3363  -43.0122 H         1 UNK         0.0600 
    151 H151       -2.9937  -20.1194  -40.6470 H         1 UNK         0.0600 
    152 H152       -2.8643  -18.3692  -40.7259 H         1 UNK         0.0600 
    153 H153       -1.4409  -19.3449  -40.3627 H         1 UNK         0.0600 
    154 H154       -0.7791  -17.7242  -42.1347 H         1 UNK         0.3000 
    155 H155        0.2733  -16.7313  -45.4159 H         1 UNK         0.0600 
    156 H156       -1.8165  -15.4697  -44.5804 H         1 UNK         0.0600 
    157 H157       -0.3160  -14.5696  -44.5319 H         1 UNK         0.0600 
    158 H158       -0.9838  -15.2565  -43.0500 H         1 UNK         0.0600 
    159 H159        1.3281  -15.9244  -42.9559 H         1 UNK         0.3000 
    160 H160        3.6113  -18.6460  -42.3678 H         1 UNK         0.0600 
    161 H161        5.1577  -16.6997  -42.2428 H         1 UNK         0.0600 
    162 H162        3.9996  -15.7070  -43.1247 H         1 UNK         0.0600 
    163 H163        4.7645  -17.0906  -43.9067 H         1 UNK         0.0600 
    164 H164        3.2666  -16.4193  -40.7609 H         1 UNK         0.3000 
    165 H165        0.5081  -17.3435  -38.8151 H         1 UNK         0.0600 
    166 H166        3.4411  -17.8407  -38.0851 H         1 UNK         0.0600 
    167 H167        2.1274  -17.5639  -36.9416 H         1 UNK         0.0600 
    168 H168        2.1281  -19.0000  -37.9533 H         1 UNK         0.0600 
    169 H169        0.9140  -15.1910  -38.7917 H         1 UNK         0.3000 
    170 H170        2.2623  -13.2728  -37.9109 H         1 UNK         0.0600 
    171 H171        4.7345  -13.0657  -38.1522 H         1 UNK         0.0600 
    172 H172        4.5629  -12.8491  -39.8908 H         1 UNK         0.0600 
    173 H173        3.9159  -11.6441  -38.7778 H         1 UNK         0.0600 
    174 H174        2.3018  -12.4936  -40.7160 H         1 UNK         0.3000 
    175 H175       -0.8479  -13.3100  -41.6018 H         1 UNK         0.0600 
    176 H176       -0.5722  -10.4878  -40.4452 H         1 UNK         0.0600 
    177 H177       -1.7528  -11.0068  -41.6494 H         1 UNK         0.0600 
    178 H178       -1.8270  -11.6442  -40.0171 H         1 UNK         0.0600 
    179 H179        0.4818  -11.0884  -42.6092 H         1 UNK         0.3000 
    180 H180        1.1232  -11.5188  -44.7586 H         1 UNK         0.0600 
    181 H181        3.4906  -10.6697  -44.9533 H         1 UNK         0.0600 
    182 H182        3.9208  -11.6107  -43.5233 H         1 UNK         0.0600 
    183 H183        2.7466  -10.3152  -43.4035 H         1 UNK         0.0600 
    184 H184        1.5220  -13.1712  -46.1141 H         1 UNK         0.3000 
    185 H185        4.3872  -14.2966  -47.4754 H         1 UNK         0.0600 
    186 H186        4.4645  -16.2987  -46.0396 H         1 UNK         0.0600 
    187 H187        2.7091  -16.4441  -46.0885 H         1 UNK         0.0600 
    188 H188        3.6635  -16.6825  -47.5502 H         1 UNK         0.0600 
    189 H189        1.6275  -15.0988  -47.8609 H         1 UNK         0.3000 
    190 H190       -1.2102  -20.2372  -46.1635 H         1 UNK         0.3000 
    191 H191       -2.6469  -20.8687  -48.5679 H         1 UNK         0.0600 
    192 H192       -3.6699  -19.9461  -45.8344 H         1 UNK         0.0600 
    193 H193       -3.1425  -18.8832  -47.1384 H         1 UNK         0.0600 
    194 H194       -4.5650  -19.8854  -47.3495 H         1 UNK         0.0600 
    195 H195       -1.6776  -23.0651  -46.3028 H         1 UNK         0.3000 
    196 H196       -3.9205  -24.6624  -45.7213 H         1 UNK         0.0600 
    197 H197       -1.7150  -24.9728  -44.6498 H         1 UNK         0.0600 
    198 H198       -0.9957  -25.4525  -46.1862 H         1 UNK         0.0600 
    199 H199       -2.2113  -26.4716  -45.4226 H         1 UNK         0.0600 
    200 H200       -5.2825  -25.6599  -47.0327 H         1 UNK         0.3000 
    201 H201       -6.3415  -26.4811  -48.7910 H         1 UNK         0.0600 
    202 H202       -5.2556  -28.2404  -50.1419 H         1 UNK         0.0600 
    203 H203       -4.7903  -28.4211  -48.4596 H         1 UNK         0.0600 
    204 H204       -3.6602  -27.7216  -49.6167 H         1 UNK         0.0600 
    205 H205       -5.2770  -23.7948  -49.0091 H         1 UNK         0.3000 
    206 H206       -5.0492  -22.0809  -50.3670 H         1 UNK         0.0600 
    207 H207       -7.1585  -22.7054  -51.4096 H         1 UNK         0.0600 
    208 H208       -6.3773  -23.8763  -52.4637 H         1 UNK         0.0600 
    209 H209       -6.0781  -22.1662  -52.6817 H         1 UNK         0.0600 
    210 H210       -2.8499  -23.7166  -49.9098 H         1 UNK         0.3000 
    211 H211       -0.7344  -24.0581  -50.3799 H         1 UNK         0.0600 
    212 H212       -0.7077  -21.6261  -51.1601 H         1 UNK         0.0600 
    213 H213        0.5080  -22.6451  -51.9167 H         1 UNK         0.0600 
    214 H214       -0.9360  -22.2045  -52.8088 H         1 UNK         0.0600 
    215 H215       -2.4494  -25.9673  -51.0402 H         1 UNK         0.3000 
    216 H216       -2.9742  -27.7699  -52.2283 H         1 UNK         0.0600 
    217 H217       -1.2195  -28.9442  -53.5100 H         1 UNK         0.0600 
    218 H218       -0.2227  -27.4972  -53.5558 H         1 UNK         0.0600 
    219 H219       -0.5399  -28.3058  -52.0216 H         1 UNK         0.0600 
    220 H220       -4.1865  -25.6134  -53.0200 H         1 UNK         0.3000 
    221 H221       -5.4150  -24.5603  -54.4800 H         1 UNK         0.0600 
    222 H222       -4.8766  -26.8470  -56.4407 H         1 UNK         0.0600 
    223 H223       -6.0959  -26.8669  -55.1665 H         1 UNK         0.0600 
    224 H224       -6.2240  -25.7210  -56.4893 H         1 UNK         0.0600 
    225 H225       -2.1879  -24.4448  -54.8662 H         1 UNK         0.3000 
    226 H226       -1.9718  -23.3672  -57.5388 H         1 UNK         0.0600 
    227 H227       -0.1042  -24.5607  -56.3377 H         1 UNK         0.0600 
    228 H228        0.3615  -22.9777  -56.9444 H         1 UNK         0.0600 
    229 H229        0.0293  -23.1905  -55.2336 H         1 UNK         0.0600 
    230 H230       -2.5107  -21.9347  -54.3195 H         1 UNK         0.3000 
    231 H231       -2.0039  -19.1888  -55.3299 H         1 UNK         0.0600 
    232 H232       -2.3228  -18.5694  -52.9397 H         1 UNK         0.0600 
    233 H233       -1.0425  -19.7474  -53.1502 H         1 UNK         0.0600 
    234 H234       -2.6142  -20.2538  -52.5326 H         1 UNK         0.0600 
    235 H235       -4.6297  -21.3623  -54.6756 H         1 UNK         0.3000 
    236 H236       -6.8478  -21.2912  -54.8675 H         1 UNK         0.0600 
    237 H237       -6.2628  -20.6334  -57.1963 H         1 UNK         0.0600 
    238 H238       -7.8018  -19.9468  -56.7020 H         1 UNK         0.0600 
    239 H239       -6.3685  -18.9294  -56.7561 H         1 UNK         0.0600 
    240 H240       -6.0433  -20.2340  -52.5415 H         1 UNK         0.3000 
    241 H241       -6.9517  -17.6908  -51.8583 H         1 UNK         0.0600 
    242 H242       -9.0908  -20.4015  -52.3962 H         1 UNK         0.3800 
    243 H243      -10.4555  -19.7130  -51.5578 H         1 UNK         0.3800 
    244 H244       -6.5654  -18.3427  -49.5224 H         1 UNK         0.0800 
    245 H245       -6.6435  -20.0359  -49.9270 H         1 UNK         0.0800 
    246 H246       -4.1743  -17.3681  -48.9760 H         1 UNK         0.0800 
    247 H247       -4.6975  -16.7030  -50.5103 H         1 UNK         0.0800 
@<TRIPOS>BOND
     1    1    2 1    
     2    1  127 1    
     3    1  128 1    
     4    1  129 1    
     5    2    3 2    
     6    2    4 am   BACKBONE|DICT|INTERRES
     7    4    5 1    
     8    4  130 1    
     9    5    6 1    
    10    5   65 1    
    11    5  131 1    
    12    6    7 1    
    13    6  132 1    
    14    6  133 1    
    15    7    8 1    
    16    8    9 1    
    17    8  134 1    
    18    8  135 1    
    19    9   10 ar   
    20    9   14 ar   
    21   10   11 ar   
    22   10  136 1    
    23   11   12 ar   
    24   11  126 1    
    25   12   13 ar   
    26   12  137 1    
    27   13   14 ar   
    28   13   15 1    
    29   14  138 1    
    30   15   16 1    
    31   15  139 1    
    32   15  140 1    
    33   16   17 1    
    34   17   18 1    
    35   17  141 1    
    36   17  142 1    
    37   18   19 1    
    38   18   67 1    
    39   18  143 1    
    40   19   20 am   BACKBONE|DICT|INTERRES
    41   19  144 1    
    42   20   21 2    
    43   20   22 1    
    44   22   23 1    
    45   22   24 1    
    46   22  145 1    
    47   23  146 1    
    48   23  147 1    
    49   23  148 1    
    50   24   25 am   BACKBONE|DICT|INTERRES
    51   24  149 1    
    52   25   26 2    
    53   25   27 1    
    54   27   28 1    
    55   27   29 1    
    56   27  150 1    
    57   28  151 1    
    58   28  152 1    
    59   28  153 1    
    60   29   30 am   BACKBONE|DICT|INTERRES
    61   29  154 1    
    62   30   31 2    
    63   30   32 1    
    64   32   33 1    
    65   32   34 1    
    66   32  155 1    
    67   33  156 1    
    68   33  157 1    
    69   33  158 1    
    70   34   35 am   BACKBONE|DICT|INTERRES
    71   34  159 1    
    72   35   36 2    
    73   35   37 1    
    74   37   38 1    
    75   37   39 1    
    76   37  160 1    
    77   38  161 1    
    78   38  162 1    
    79   38  163 1    
    80   39   40 am   BACKBONE|DICT|INTERRES
    81   39  164 1    
    82   40   41 2    
    83   40   42 1    
    84   42   43 1    
    85   42   44 1    
    86   42  165 1    
    87   43  166 1    
    88   43  167 1    
    89   43  168 1    
    90   44   45 am   BACKBONE|DICT|INTERRES
    91   44  169 1    
    92   45   46 2    
    93   45   47 1    
    94   47   48 1    
    95   47   49 1    
    96   47  170 1    
    97   48  171 1    
    98   48  172 1    
    99   48  173 1    
   100   49   50 am   BACKBONE|DICT|INTERRES
   101   49  174 1    
   102   50   51 2    
   103   50   52 1    
   104   52   53 1    
   105   52   54 1    
   106   52  175 1    
   107   53  176 1    
   108   53  177 1    
   109   53  178 1    
   110   54   55 am   BACKBONE|DICT|INTERRES
   111   54  179 1    
   112   55   56 2    
   113   55   57 1    
   114   57   58 1    
   115   57   59 1    
   116   57  180 1    
   117   58  181 1    
   118   58  182 1    
   119   58  183 1    
   120   59   60 am   BACKBONE|DICT|INTERRES
   121   59  184 1    
   122   60   61 2    
   123   60   62 1    
   124   62   63 1    
   125   62   64 1    
   126   62  185 1    
   127   63  186 1    
   128   63  187 1    
   129   63  188 1    
   130   64   65 am   BACKBONE|DICT|INTERRES
   131   64  189 1    
   132   65   66 2    
   133   67   68 2    
   134   67   69 am   BACKBONE|DICT|INTERRES
   135   69   70 1    
   136   69  190 1    
   137   70   71 1    
   138   70   72 1    
   139   70  191 1    
   140   71  192 1    
   141   71  193 1    
   142   71  194 1    
   143   72   73 2    
   144   72   74 am   BACKBONE|DICT|INTERRES
   145   74   75 1    
   146   74  195 1    
   147   75   76 1    
   148   75   77 1    
   149   75  196 1    
   150   76  197 1    
   151   76  198 1    
   152   76  199 1    
   153   77   78 2    
   154   77   79 am   BACKBONE|DICT|INTERRES
   155   79   80 1    
   156   79  200 1    
   157   80   81 1    
   158   80   82 1    
   159   80  201 1    
   160   81  202 1    
   161   81  203 1    
   162   81  204 1    
   163   82   83 2    
   164   82   84 am   BACKBONE|DICT|INTERRES
   165   84   85 1    
   166   84  205 1    
   167   85   86 1    
   168   85   87 1    
   169   85  206 1    
   170   86  207 1    
   171   86  208 1    
   172   86  209 1    
   173   87   88 2    
   174   87   89 am   BACKBONE|DICT|INTERRES
   175   89   90 1    
   176   89  210 1    
   177   90   91 1    
   178   90   92 1    
   179   90  211 1    
   180   91  212 1    
   181   91  213 1    
   182   91  214 1    
   183   92   93 2    
   184   92   94 am   BACKBONE|DICT|INTERRES
   185   94   95 1    
   186   94  215 1    
   187   95   96 1    
   188   95   97 1    
   189   95  216 1    
   190   96  217 1    
   191   96  218 1    
   192   96  219 1    
   193   97   98 2    
   194   97   99 am   BACKBONE|DICT|INTERRES
   195   99  100 1    
   196   99  220 1    
   197  100  101 1    
   198  100  102 1    
   199  100  221 1    
   200  101  222 1    
   201  101  223 1    
   202  101  224 1    
   203  102  103 2    
   204  102  104 am   BACKBONE|DICT|INTERRES
   205  104  105 1    
   206  104  225 1    
   207  105  106 1    
   208  105  107 1    
   209  105  226 1    
   210  106  227 1    
   211  106  228 1    
   212  106  229 1    
   213  107  108 2    
   214  107  109 am   BACKBONE|DICT|INTERRES
   215  109  110 1    
   216  109  230 1    
   217  110  111 1    
   218  110  112 1    
   219  110  231 1    
   220  111  232 1    
   221  111  233 1    
   222  111  234 1    
   223  112  113 2    
   224  112  114 am   BACKBONE|DICT|INTERRES
   225  114  115 1    
   226  114  235 1    
   227  115  116 1    
   228  115  117 1    
   229  115  236 1    
   230  116  237 1    
   231  116  238 1    
   232  116  239 1    
   233  117  118 2    
   234  117  119 am   BACKBONE|DICT|INTERRES
   235  119  120 1    
   236  119  240 1    
   237  120  121 1    
   238  120  124 1    
   239  120  241 1    
   240  121  122 am   BACKBONE|DICT|INTERRES
   241  121  123 2    
   242  122  242 1    
   243  122  243 1    
   244  124  125 1    
   245  124  244 1    
   246  124  245 1    
   247  125  126 1    
   248  126  246 1    
   249  126  247 1    
@<TRIPOS>SUBSTRUCTURE
     1 UNK         1 GROUP             0       ****    0 ROOT    
