@<TRIPOS>MOLECULE
3R540
247   249    1
SMALL
USER_CHARGES


@<TRIPOS>ATOM
      1 CA          2.8897  -14.5999  -55.2870 C.3       0 UNK        -0.1800 
      2 C           3.3646  -14.6290  -53.8409 C.2       0 UNK         0.5000 
      3 O           4.4001  -14.0428  -53.5230 O.2       0 UNK        -0.5000 
      4 N           2.6181  -15.3154  -52.9685 N.am      1 UNK        -0.5000 
      5 CA          2.8616  -15.3892  -51.5255 C.3       1 UNK         0.1400 
      6 C6          2.1120  -16.5837  -50.8762 C.3       23 UNK        -0.0398 
      7 S7          0.3095  -16.6136  -51.1957 S.3       23 UNK        -0.2404 
      8 C8          0.0020  -18.3938  -51.4240 C.3       23 UNK        -0.0205 
      9 C9         -0.0281  -19.1296  -50.0951 C.ar      23 UNK        -0.0193 
     10 C10        -1.1796  -19.0863  -49.3045 C.ar      23 UNK        -0.1150 
     11 C11        -1.2209  -19.7562  -48.0809 C.ar      23 UNK        -0.0193 
     12 C12        -0.1101  -20.4890  -47.6619 C.ar      23 UNK        -0.1150 
     13 C13         1.0554  -20.5426  -48.4370 C.ar      23 UNK        -0.0193 
     14 C14         1.0842  -19.8559  -49.6564 C.ar      23 UNK        -0.1150 
     15 C15         2.2877  -21.3397  -48.0056 C.3       23 UNK        -0.0205 
     16 S16         2.4589  -21.5661  -46.1996 S.3       23 UNK        -0.2404 
     17 C17         2.1198  -23.3533  -45.9696 C.3       23 UNK        -0.0398 
     18 CA          0.6344  -23.7448  -45.7129 C.3       11 UNK         0.1400 
     19 N          -0.0231  -22.7998  -44.8012 N.am      11 UNK        -0.5000 
     20 C          -1.1092  -23.0031  -44.0464 C.2       10 UNK         0.5000 
     21 O          -1.7339  -24.0651  -44.0335 O.2       10 UNK        -0.5000 
     22 CA         -1.5853  -21.8072  -43.1959 C.3       10 UNK         0.1400 
     23 CB         -2.4590  -22.2279  -41.9971 C.3       10 UNK        -0.1800 
     24 N          -0.4954  -20.9263  -42.7644 N.am      10 UNK        -0.5000 
     25 C           0.5378  -21.2218  -41.9612 C.2       9 UNK         0.5000 
     26 O           0.7468  -22.3359  -41.4801 O.2       9 UNK        -0.5000 
     27 CA          1.4915  -20.0587  -41.6240 C.3       9 UNK         0.1400 
     28 CB          2.5519  -19.8863  -42.7224 C.3       9 UNK        -0.1800 
     29 N           0.7828  -18.7920  -41.4290 N.am      9 UNK        -0.5000 
     30 C          -0.0401  -18.5296  -40.4031 C.2       8 UNK         0.5000 
     31 O          -0.2176  -19.2949  -39.4545 O.2       8 UNK        -0.5000 
     32 CA         -0.8157  -17.2002  -40.4559 C.3       8 UNK         0.1400 
     33 CB          0.0226  -16.0437  -39.8896 C.3       8 UNK        -0.1800 
     34 N          -1.2583  -16.8714  -41.8111 N.am      8 UNK        -0.5000 
     35 C          -2.2476  -17.5063  -42.4566 C.2       7 UNK         0.5000 
     36 O          -2.9268  -18.4038  -41.9583 O.2       7 UNK        -0.5000 
     37 CA         -2.5174  -17.0743  -43.9096 C.3       7 UNK         0.1400 
     38 CB         -3.4661  -15.8664  -43.9238 C.3       7 UNK        -0.1800 
     39 N          -1.2979  -16.7462  -44.6515 N.am      7 UNK        -0.5000 
     40 C          -0.2973  -17.6027  -44.9056 C.2       6 UNK         0.5000 
     41 O          -0.3166  -18.7875  -44.5765 O.2       6 UNK        -0.5000 
     42 CA          0.9645  -17.0264  -45.5718 C.3       6 UNK         0.1400 
     43 CB          0.7788  -16.8625  -47.0847 C.3       6 UNK        -0.1800 
     44 N           1.3539  -15.7398  -45.0034 N.am      6 UNK        -0.5000 
     45 C           1.7238  -15.5348  -43.7336 C.2       5 UNK         0.5000 
     46 O           1.7841  -16.4249  -42.8859 O.2       5 UNK        -0.5000 
     47 CA          2.0451  -14.0833  -43.3451 C.3       5 UNK         0.1400 
     48 CB          3.4925  -13.7274  -43.7170 C.3       5 UNK        -0.1800 
     49 N           1.1307  -13.1465  -43.9976 N.am      5 UNK        -0.5000 
     50 C          -0.1165  -12.8969  -43.5782 C.2       4 UNK         0.5000 
     51 O          -0.6076  -13.3912  -42.5627 O.2       4 UNK        -0.5000 
     52 CA         -0.9642  -11.9526  -44.4532 C.3       4 UNK         0.1400 
     53 CB         -0.6694  -10.4850  -44.1081 C.3       4 UNK        -0.1800 
     54 N          -0.7703  -12.1598  -45.8911 N.am      4 UNK        -0.5000 
     55 C          -1.1298  -13.2732  -46.5439 C.2       3 UNK         0.5000 
     56 O          -1.6456  -14.2457  -45.9973 O.2       3 UNK        -0.5000 
     57 CA         -0.8385  -13.3336  -48.0546 C.3       3 UNK         0.1400 
     58 CB         -1.9472  -12.6198  -48.8423 C.3       3 UNK        -0.1800 
     59 N           0.4657  -12.8172  -48.4849 N.am      3 UNK        -0.5000 
     60 C           1.6598  -13.0754  -47.9346 C.2       2 UNK         0.5000 
     61 O           1.8193  -13.6523  -46.8588 O.2       2 UNK        -0.5000 
     62 CA          2.8885  -12.6944  -48.7778 C.3       2 UNK         0.1400 
     63 CB          4.1241  -12.4111  -47.9052 C.3       2 UNK        -0.1800 
     64 N           3.1926  -13.7961  -49.6901 N.am      2 UNK        -0.5000 
     65 C           2.5266  -14.0536  -50.8235 C.2       1 UNK         0.5000 
     66 O           1.6644  -13.3025  -51.2896 O.2       1 UNK        -0.5000 
     67 C          -0.1734  -24.0353  -47.0062 C.2       11 UNK         0.5000 
     68 O           0.3965  -24.0956  -48.0969 O.2       11 UNK        -0.5000 
     69 N          -1.4892  -24.2484  -46.8673 N.am      12 UNK        -0.5000 
     70 CA         -2.4540  -24.4776  -47.9475 C.3       12 UNK         0.1400 
     71 CB         -3.8539  -24.6573  -47.3404 C.3       12 UNK        -0.1800 
     72 C          -2.1144  -25.6764  -48.8523 C.2       12 UNK         0.5000 
     73 O          -2.3493  -25.6142  -50.0592 O.2       12 UNK        -0.5000 
     74 N          -1.5346  -26.7292  -48.2592 N.am      13 UNK        -0.5000 
     75 CA         -1.0815  -27.9347  -48.9550 C.3       13 UNK         0.1400 
     76 CB         -0.7183  -29.0065  -47.9163 C.3       13 UNK        -0.1800 
     77 C           0.1038  -27.6816  -49.9070 C.2       13 UNK         0.5000 
     78 O           0.2107  -28.3612  -50.9283 O.2       13 UNK        -0.5000 
     79 N           0.9607  -26.7087  -49.5665 N.am      14 UNK        -0.5000 
     80 CA          2.0658  -26.2578  -50.4119 C.3       14 UNK         0.1400 
     81 CB          3.1798  -25.6712  -49.5311 C.3       14 UNK        -0.1800 
     82 C           1.5888  -25.2227  -51.4445 C.2       14 UNK         0.5000 
     83 O           2.0811  -25.2211  -52.5732 O.2       14 UNK        -0.5000 
     84 N           0.6387  -24.3679  -51.0389 N.am      15 UNK        -0.5000 
     85 CA          0.0344  -23.3261  -51.8670 C.3       15 UNK         0.1400 
     86 CB         -0.8674  -22.4490  -50.9885 C.3       15 UNK        -0.1800 
     87 C          -0.7869  -23.8888  -53.0383 C.2       15 UNK         0.5000 
     88 O          -0.7079  -23.3554  -54.1456 O.2       15 UNK        -0.5000 
     89 N          -1.5882  -24.9260  -52.7524 N.am      16 UNK        -0.5000 
     90 CA         -2.5501  -25.6218  -53.6152 C.3       16 UNK         0.1400 
     91 CB         -1.8621  -26.2664  -54.8336 C.3       16 UNK        -0.1800 
     92 C          -3.7502  -24.7474  -54.0305 C.2       16 UNK         0.5000 
     93 O          -4.8943  -25.1317  -53.7870 O.2       16 UNK        -0.5000 
     94 N          -3.4725  -23.5824  -54.6282 N.am      17 UNK        -0.5000 
     95 CA         -4.4603  -22.5720  -55.0094 C.3       17 UNK         0.1400 
     96 CB         -3.8482  -21.6580  -56.0818 C.3       17 UNK        -0.1800 
     97 C          -4.9458  -21.7362  -53.8097 C.2       17 UNK         0.5000 
     98 O          -6.0547  -21.2048  -53.8546 O.2       17 UNK        -0.5000 
     99 N          -4.0974  -21.6158  -52.7757 N.am      18 UNK        -0.5000 
    100 CA        -4.3144  -20.9474  -51.4822 C.3       18 UNK         0.1400 
    101 CB        -5.4821  -21.6061  -50.7262 C.3       18 UNK        -0.1800 
    102 C         -4.4678  -19.4111  -51.5302 C.2       18 UNK         0.5000 
    103 O         -4.5474  -18.7901  -50.4692 O.2       18 UNK        -0.5000 
    104 N         -4.5126  -18.8207  -52.7354 N.am      19 UNK        -0.5000 
    105 CA        -4.5567  -17.3834  -53.0528 C.3       19 UNK         0.1400 
    106 CB        -3.1868  -16.7431  -52.7504 C.3       19 UNK        -0.1800 
    107 C         -5.7166  -16.5964  -52.3986 C.2       19 UNK         0.5000 
    108 O         -5.6315  -15.3734  -52.2801 O.2       19 UNK        -0.5000 
    109 N         -6.7599  -17.3142  -51.9536 N.am      20 UNK        -0.5000 
    110 CA        -7.8652  -16.8562  -51.1003 C.3       20 UNK         0.1400 
    111 CB        -8.7295  -15.8030  -51.8243 C.3       20 UNK        -0.1800 
    112 C         -7.4195  -16.3901  -49.6917 C.2       20 UNK         0.5000 
    113 O         -8.2131  -15.7752  -48.9777 O.2       20 UNK        -0.5000 
    114 N         -6.1762  -16.7054  -49.3031 N.am      21 UNK        -0.5000 
    115 CA        -5.5838  -16.3829  -48.0064 C.3       21 UNK         0.1400 
    116 CB        -4.0843  -16.1066  -48.2070 C.3       21 UNK        -0.1800 
    117 C         -5.8093  -17.5119  -46.9848 C.2       21 UNK         0.5000 
    118 O         -5.8945  -17.2367  -45.7884 O.2       21 UNK        -0.5000 
    119 N         -5.9237  -18.7534  -47.4700 N.am      22 UNK        -0.5000 
    120 CA        -6.1622  -19.9631  -46.6651 C.3       22 UNK         0.1400 
    121 C         -7.1555  -20.9637  -47.3236 C.2       22 UNK         0.5000 
    122 N         -7.9344  -20.5565  -48.3194 N.am      22 UNK        -0.7600 
    123 O         -7.2490  -22.1171  -46.9137 O.2       22 UNK        -0.5000 
    124 C124       -4.8433  -20.6129  -46.1634 C.3       23 UNK        -0.0398 
    125 S125       -3.6325  -20.9759  -47.4841 S.3       23 UNK        -0.2404 
    126 C126       -2.4371  -19.6494  -47.1795 C.3       23 UNK        -0.0205 
    127 H127        2.7044  -13.5724  -55.6001 H         1 UNK         0.0600 
    128 H128        3.6510  -15.0251  -55.9411 H         1 UNK         0.0600 
    129 H129        1.9689  -15.1678  -55.4228 H         1 UNK         0.0600 
    130 H130        1.7554  -15.7409  -53.2764 H         1 UNK         0.3000 
    131 H131        3.9308  -15.5648  -51.3862 H         1 UNK         0.0600 
    132 H132        2.2742  -16.6068  -49.7981 H         1 UNK         0.0800 
    133 H133        2.5495  -17.5096  -51.2507 H         1 UNK         0.0800 
    134 H134        0.7492  -18.8233  -52.0928 H         1 UNK         0.0800 
    135 H135       -0.9580  -18.5284  -51.9223 H         1 UNK         0.0800 
    136 H136       -2.0353  -18.5154  -49.6344 H         1 UNK         0.1150 
    137 H137       -0.1623  -20.9997  -46.7156 H         1 UNK         0.1150 
    138 H138        1.9732  -19.8927  -50.2697 H         1 UNK         0.1150 
    139 H139        2.2786  -22.3040  -48.5132 H         1 UNK         0.0800 
    140 H140        3.1842  -20.8243  -48.3531 H         1 UNK         0.0800 
    141 H141        2.6957  -23.6464  -45.0909 H         1 UNK         0.0800 
    142 H142        2.5642  -23.9267  -46.7835 H         1 UNK         0.0800 
    143 H143        0.6610  -24.7059  -45.1952 H         1 UNK         0.0600 
    144 H144        0.4144  -21.8902  -44.7500 H         1 UNK         0.3000 
    145 H145       -2.2088  -21.2029  -43.8566 H         1 UNK         0.0600 
    146 H146       -2.7886  -21.3582  -41.4281 H         1 UNK         0.0600 
    147 H147       -3.3540  -22.7546  -42.3301 H         1 UNK         0.0600 
    148 H148       -1.9228  -22.8907  -41.3174 H         1 UNK         0.0600 
    149 H149       -0.5087  -19.9974  -43.1805 H         1 UNK         0.3000 
    150 H150        2.0047  -20.3069  -40.6927 H         1 UNK         0.0600 
    151 H151        3.1115  -20.8101  -42.8745 H         1 UNK         0.0600 
    152 H152        3.2694  -19.1090  -42.4589 H         1 UNK         0.0600 
    153 H153        2.1039  -19.6146  -43.6782 H         1 UNK         0.0600 
    154 H154        0.9240  -18.0749  -42.1334 H         1 UNK         0.3000 
    155 H155       -1.7020  -17.3082  -39.8269 H         1 UNK         0.0600 
    156 H156        0.9406  -15.8892  -40.4559 H         1 UNK         0.0600 
    157 H157        0.3070  -16.2413  -38.8554 H         1 UNK         0.0600 
    158 H158       -0.5376  -15.1084  -39.9005 H         1 UNK         0.0600 
    159 H159       -0.7454  -16.1489  -42.2967 H         1 UNK         0.3000 
    160 H160       -3.0086  -17.9041  -44.4216 H         1 UNK         0.0600 
    161 H161       -3.7552  -15.6010  -44.9394 H         1 UNK         0.0600 
    162 H162       -3.0072  -14.9883  -43.4674 H         1 UNK         0.0600 
    163 H163       -4.3844  -16.0831  -43.3765 H         1 UNK         0.0600 
    164 H164       -1.2320  -15.7947  -45.0050 H         1 UNK         0.3000 
    165 H165        1.7874  -17.7237  -45.4023 H         1 UNK         0.0600 
    166 H166        1.6066  -16.3127  -47.5305 H         1 UNK         0.0600 
    167 H167        0.7479  -17.8328  -47.5710 H         1 UNK         0.0600 
    168 H168       -0.1460  -16.3415  -47.3297 H         1 UNK         0.0600 
    169 H169        1.3770  -14.9495  -45.6437 H         1 UNK         0.3000 
    170 H170        1.9397  -13.9918  -42.2618 H         1 UNK         0.0600 
    171 H171        4.1968  -14.4013  -43.2276 H         1 UNK         0.0600 
    172 H172        3.6639  -13.7975  -44.7918 H         1 UNK         0.0600 
    173 H173        3.7412  -12.7133  -43.4040 H         1 UNK         0.0600 
    174 H174        1.4258  -12.7770  -44.8923 H         1 UNK         0.3000 
    175 H175       -2.0141  -12.1498  -44.2255 H         1 UNK         0.0600 
    176 H176       -1.3280   -9.8110  -44.6560 H         1 UNK         0.0600 
    177 H177       -0.8239  -10.2956  -43.0449 H         1 UNK         0.0600 
    178 H178        0.3606  -10.2144  -44.3436 H         1 UNK         0.0600 
    179 H179       -0.3336  -11.4129  -46.4109 H         1 UNK         0.3000 
    180 H180       -0.8626  -14.3860  -48.3412 H         1 UNK         0.0600 
    181 H181       -1.9237  -11.5414  -48.6814 H         1 UNK         0.0600 
    182 H182       -2.9342  -12.9743  -48.5426 H         1 UNK         0.0600 
    183 H183       -1.8499  -12.8027  -49.9127 H         1 UNK         0.0600 
    184 H184        0.4730  -12.3844  -49.3988 H         1 UNK         0.3000 
    185 H185        2.6608  -11.7912  -49.3480 H         1 UNK         0.0600 
    186 H186        4.4337  -13.2899  -47.3379 H         1 UNK         0.0600 
    187 H187        4.9701  -12.0926  -48.5144 H         1 UNK         0.0600 
    188 H188        3.9205  -11.6139  -47.1892 H         1 UNK         0.0600 
    189 H189        3.8749  -14.4631  -49.3594 H         1 UNK         0.3000 
    190 H190       -1.8615  -24.2228  -45.9225 H         1 UNK         0.3000 
    191 H191       -2.4613  -23.5821  -48.5701 H         1 UNK         0.0600 
    192 H192       -3.9112  -25.5514  -46.7184 H         1 UNK         0.0600 
    193 H193       -4.6089  -24.7492  -48.1223 H         1 UNK         0.0600 
    194 H194       -4.1333  -23.8055  -46.7211 H         1 UNK         0.0600 
    195 H195       -1.3801  -26.6915  -47.2625 H         1 UNK         0.3000 
    196 H196       -1.9127  -28.3088  -49.5564 H         1 UNK         0.0600 
    197 H197       -0.3994  -29.9293  -48.4027 H         1 UNK         0.0600 
    198 H198       -1.5737  -29.2519  -47.2865 H         1 UNK         0.0600 
    199 H199        0.0950  -28.6795  -47.2673 H         1 UNK         0.0600 
    200 H200        0.7703  -26.1558  -48.7412 H         1 UNK         0.3000 
    201 H201        2.4799  -27.1116  -50.9526 H         1 UNK         0.0600 
    202 H202        3.5198  -26.3938  -48.7892 H         1 UNK         0.0600 
    203 H203        2.8498  -24.7767  -49.0038 H         1 UNK         0.0600 
    204 H204        4.0443  -25.3924  -50.1347 H         1 UNK         0.0600 
    205 H205        0.3478  -24.3996  -50.0675 H         1 UNK         0.3000 
    206 H206        0.8403  -22.7080  -52.2678 H         1 UNK         0.0600 
    207 H207       -0.3828  -22.1979  -50.0483 H         1 UNK         0.0600 
    208 H208       -1.1090  -21.5152  -51.4961 H         1 UNK         0.0600 
    209 H209       -1.8056  -22.9453  -50.7417 H         1 UNK         0.0600 
    210 H210       -1.6241  -25.2227  -51.7796 H         1 UNK         0.3000 
    211 H211       -2.9506  -26.4323  -53.0041 H         1 UNK         0.0600 
    212 H212       -1.4412  -25.5236  -55.5115 H         1 UNK         0.0600 
    213 H213       -2.5716  -26.8638  -55.4074 H         1 UNK         0.0600 
    214 H214       -1.0552  -26.9298  -54.5220 H         1 UNK         0.0600 
    215 H215       -2.4912  -23.3515  -54.7629 H         1 UNK         0.3000 
    216 H216       -5.3295  -23.0733  -55.4405 H         1 UNK         0.0600 
    217 H217       -4.5634  -20.9010  -56.4064 H         1 UNK         0.0600 
    218 H218       -3.5573  -22.2279  -56.9645 H         1 UNK         0.0600 
    219 H219       -2.9630  -21.1386  -55.7121 H         1 UNK         0.0600 
    220 H220       -3.2041  -22.0739  -52.8759 H         1 UNK         0.3000 
    221 H221       -3.4151  -21.1241  -50.8929 H         1 UNK         0.0600 
    222 H222       -6.4410  -21.4291  -51.2135 H         1 UNK         0.0600 
    223 H223       -5.3394  -22.6832  -50.6391 H         1 UNK         0.0600 
    224 H224       -5.5554  -21.2108  -49.7154 H         1 UNK         0.0600 
    225 H225       -4.5164  -19.4372  -53.5355 H         1 UNK         0.3000 
    226 H226       -4.7233  -17.3141  -54.1285 H         1 UNK         0.0600 
    227 H227       -2.3903  -17.2504  -53.2936 H         1 UNK         0.0600 
    228 H228       -3.1581  -15.6963  -53.0545 H         1 UNK         0.0600 
    229 H229       -2.9496  -16.7812  -51.6863 H         1 UNK         0.0600 
    230 H230       -6.7229  -18.3112  -52.1138 H         1 UNK         0.3000 
    231 H231       -8.4930  -17.7328  -50.9354 H         1 UNK         0.0600 
    232 H232       -9.0286  -16.1500  -52.8133 H         1 UNK         0.0600 
    233 H233       -8.2026  -14.8563  -51.9449 H         1 UNK         0.0600 
    234 H234       -9.6428  -15.5959  -51.2654 H         1 UNK         0.0600 
    235 H235       -5.5953  -17.2558  -49.9289 H         1 UNK         0.3000 
    236 H236       -6.0425  -15.4767  -47.6054 H         1 UNK         0.0600 
    237 H237       -3.5804  -15.9224  -47.2583 H         1 UNK         0.0600 
    238 H238       -3.5807  -16.9422  -48.6912 H         1 UNK         0.0600 
    239 H239       -3.9314  -15.2278  -48.8328 H         1 UNK         0.0600 
    240 H240       -5.7742  -18.9056  -48.4588 H         1 UNK         0.3000 
    241 H241       -6.7059  -19.6559  -45.7699 H         1 UNK         0.0600 
    242 H242       -8.5842  -21.2082  -48.7300 H         1 UNK         0.3800 
    243 H243       -7.9313  -19.5965  -48.6187 H         1 UNK         0.3800 
    244 H244       -4.3842  -19.9523  -45.4272 H         1 UNK         0.0800 
    245 H245       -5.0460  -21.5373  -45.6207 H         1 UNK         0.0800 
    246 H246       -2.9194  -18.6817  -47.3087 H         1 UNK         0.0800 
    247 H247       -2.1249  -19.6995  -46.1375 H         1 UNK         0.0800 
@<TRIPOS>BOND
     1    1    2 1    
     2    1  127 1    
     3    1  128 1    
     4    1  129 1    
     5    2    3 2    
     6    2    4 am   BACKBONE|DICT|INTERRES
     7    4    5 1    
     8    4  130 1    
     9    5    6 1    
    10    5   65 1    
    11    5  131 1    
    12    6    7 1    
    13    6  132 1    
    14    6  133 1    
    15    7    8 1    
    16    8    9 1    
    17    8  134 1    
    18    8  135 1    
    19    9   10 ar   
    20    9   14 ar   
    21   10   11 ar   
    22   10  136 1    
    23   11   12 ar   
    24   11  126 1    
    25   12   13 ar   
    26   12  137 1    
    27   13   14 ar   
    28   13   15 1    
    29   14  138 1    
    30   15   16 1    
    31   15  139 1    
    32   15  140 1    
    33   16   17 1    
    34   17   18 1    
    35   17  141 1    
    36   17  142 1    
    37   18   19 1    
    38   18   67 1    
    39   18  143 1    
    40   19   20 am   BACKBONE|DICT|INTERRES
    41   19  144 1    
    42   20   21 2    
    43   20   22 1    
    44   22   23 1    
    45   22   24 1    
    46   22  145 1    
    47   23  146 1    
    48   23  147 1    
    49   23  148 1    
    50   24   25 am   BACKBONE|DICT|INTERRES
    51   24  149 1    
    52   25   26 2    
    53   25   27 1    
    54   27   28 1    
    55   27   29 1    
    56   27  150 1    
    57   28  151 1    
    58   28  152 1    
    59   28  153 1    
    60   29   30 am   BACKBONE|DICT|INTERRES
    61   29  154 1    
    62   30   31 2    
    63   30   32 1    
    64   32   33 1    
    65   32   34 1    
    66   32  155 1    
    67   33  156 1    
    68   33  157 1    
    69   33  158 1    
    70   34   35 am   BACKBONE|DICT|INTERRES
    71   34  159 1    
    72   35   36 2    
    73   35   37 1    
    74   37   38 1    
    75   37   39 1    
    76   37  160 1    
    77   38  161 1    
    78   38  162 1    
    79   38  163 1    
    80   39   40 am   BACKBONE|DICT|INTERRES
    81   39  164 1    
    82   40   41 2    
    83   40   42 1    
    84   42   43 1    
    85   42   44 1    
    86   42  165 1    
    87   43  166 1    
    88   43  167 1    
    89   43  168 1    
    90   44   45 am   BACKBONE|DICT|INTERRES
    91   44  169 1    
    92   45   46 2    
    93   45   47 1    
    94   47   48 1    
    95   47   49 1    
    96   47  170 1    
    97   48  171 1    
    98   48  172 1    
    99   48  173 1    
   100   49   50 am   BACKBONE|DICT|INTERRES
   101   49  174 1    
   102   50   51 2    
   103   50   52 1    
   104   52   53 1    
   105   52   54 1    
   106   52  175 1    
   107   53  176 1    
   108   53  177 1    
   109   53  178 1    
   110   54   55 am   BACKBONE|DICT|INTERRES
   111   54  179 1    
   112   55   56 2    
   113   55   57 1    
   114   57   58 1    
   115   57   59 1    
   116   57  180 1    
   117   58  181 1    
   118   58  182 1    
   119   58  183 1    
   120   59   60 am   BACKBONE|DICT|INTERRES
   121   59  184 1    
   122   60   61 2    
   123   60   62 1    
   124   62   63 1    
   125   62   64 1    
   126   62  185 1    
   127   63  186 1    
   128   63  187 1    
   129   63  188 1    
   130   64   65 am   BACKBONE|DICT|INTERRES
   131   64  189 1    
   132   65   66 2    
   133   67   68 2    
   134   67   69 am   BACKBONE|DICT|INTERRES
   135   69   70 1    
   136   69  190 1    
   137   70   71 1    
   138   70   72 1    
   139   70  191 1    
   140   71  192 1    
   141   71  193 1    
   142   71  194 1    
   143   72   73 2    
   144   72   74 am   BACKBONE|DICT|INTERRES
   145   74   75 1    
   146   74  195 1    
   147   75   76 1    
   148   75   77 1    
   149   75  196 1    
   150   76  197 1    
   151   76  198 1    
   152   76  199 1    
   153   77   78 2    
   154   77   79 am   BACKBONE|DICT|INTERRES
   155   79   80 1    
   156   79  200 1    
   157   80   81 1    
   158   80   82 1    
   159   80  201 1    
   160   81  202 1    
   161   81  203 1    
   162   81  204 1    
   163   82   83 2    
   164   82   84 am   BACKBONE|DICT|INTERRES
   165   84   85 1    
   166   84  205 1    
   167   85   86 1    
   168   85   87 1    
   169   85  206 1    
   170   86  207 1    
   171   86  208 1    
   172   86  209 1    
   173   87   88 2    
   174   87   89 am   BACKBONE|DICT|INTERRES
   175   89   90 1    
   176   89  210 1    
   177   90   91 1    
   178   90   92 1    
   179   90  211 1    
   180   91  212 1    
   181   91  213 1    
   182   91  214 1    
   183   92   93 2    
   184   92   94 am   BACKBONE|DICT|INTERRES
   185   94   95 1    
   186   94  215 1    
   187   95   96 1    
   188   95   97 1    
   189   95  216 1    
   190   96  217 1    
   191   96  218 1    
   192   96  219 1    
   193   97   98 2    
   194   97   99 am   BACKBONE|DICT|INTERRES
   195   99  100 1    
   196   99  220 1    
   197  100  101 1    
   198  100  102 1    
   199  100  221 1    
   200  101  222 1    
   201  101  223 1    
   202  101  224 1    
   203  102  103 2    
   204  102  104 am   BACKBONE|DICT|INTERRES
   205  104  105 1    
   206  104  225 1    
   207  105  106 1    
   208  105  107 1    
   209  105  226 1    
   210  106  227 1    
   211  106  228 1    
   212  106  229 1    
   213  107  108 2    
   214  107  109 am   BACKBONE|DICT|INTERRES
   215  109  110 1    
   216  109  230 1    
   217  110  111 1    
   218  110  112 1    
   219  110  231 1    
   220  111  232 1    
   221  111  233 1    
   222  111  234 1    
   223  112  113 2    
   224  112  114 am   BACKBONE|DICT|INTERRES
   225  114  115 1    
   226  114  235 1    
   227  115  116 1    
   228  115  117 1    
   229  115  236 1    
   230  116  237 1    
   231  116  238 1    
   232  116  239 1    
   233  117  118 2    
   234  117  119 am   BACKBONE|DICT|INTERRES
   235  119  120 1    
   236  119  240 1    
   237  120  121 1    
   238  120  124 1    
   239  120  241 1    
   240  121  122 am   BACKBONE|DICT|INTERRES
   241  121  123 2    
   242  122  242 1    
   243  122  243 1    
   244  124  125 1    
   245  124  244 1    
   246  124  245 1    
   247  125  126 1    
   248  126  246 1    
   249  126  247 1    
@<TRIPOS>SUBSTRUCTURE
     1 UNK         1 GROUP             0       ****    0 ROOT    
