@<TRIPOS>MOLECULE
3R540
247   249    1
SMALL
USER_CHARGES


@<TRIPOS>ATOM
      1 CA         -0.0801  -16.0750  -49.3687 C.3       0 UNK        -0.1800 
      2 C           0.5810  -14.8178  -48.8267 C.2       0 UNK         0.5000 
      3 O          -0.0603  -13.7692  -48.7529 O.2       0 UNK        -0.5000 
      4 N           1.8599  -14.9132  -48.4462 N.am      1 UNK        -0.5000 
      5 CA          2.6848  -13.8347  -47.8927 C.3       1 UNK         0.1400 
      6 C6          4.2035  -14.0634  -48.1376 C.3       23 UNK        -0.0398 
      7 S7          4.8140  -15.7546  -47.7879 S.3       23 UNK        -0.2404 
      8 C8          5.3737  -16.3202  -49.4274 C.3       23 UNK        -0.0205 
      9 C9          4.2161  -16.7760  -50.3035 C.ar      23 UNK        -0.0193 
     10 C10         3.5591  -15.8669  -51.1352 C.ar      23 UNK        -0.1150 
     11 C11         2.4931  -16.2706  -51.9430 C.ar      23 UNK        -0.0193 
     12 C12         2.0927  -17.6133  -51.9127 C.ar      23 UNK        -0.1150 
     13 C13         2.7495  -18.5432  -51.0988 C.ar      23 UNK        -0.0193 
     14 C14         3.8135  -18.1137  -50.2972 C.ar      23 UNK        -0.1150 
     15 C15         2.3121  -20.0075  -51.1411 C.3       23 UNK        -0.0205 
     16 S16         2.4676  -20.9204  -49.5654 S.3       23 UNK        -0.2404 
     17 C17         1.3226  -20.0041  -48.4822 C.3       23 UNK        -0.0398 
     18 CA         -0.0537  -20.6876  -48.2983 C.3       11 UNK         0.1400 
     19 N          -0.6942  -20.2588  -47.0491 N.am      11 UNK        -0.5000 
     20 C          -1.8390  -20.7543  -46.5536 C.2       10 UNK         0.5000 
     21 O          -2.4472  -21.6886  -47.0733 O.2       10 UNK        -0.5000 
     22 CA         -2.4451  -20.0765  -45.3081 C.3       10 UNK         0.1400 
     23 CB         -2.2746  -20.9744  -44.0736 C.3       10 UNK        -0.1800 
     24 N          -1.9064  -18.7481  -45.0098 N.am      10 UNK        -0.5000 
     25 C          -1.9728  -17.6700  -45.8050 C.2       9 UNK         0.5000 
     26 O          -2.5150  -17.6655  -46.9103 O.2       9 UNK        -0.5000 
     27 CA         -1.2457  -16.4089  -45.2982 C.3       9 UNK         0.1400 
     28 CB         -2.1465  -15.6404  -44.3185 C.3       9 UNK        -0.1800 
     29 N           0.0334  -16.7302  -44.6544 N.am      9 UNK        -0.5000 
     30 C           1.0626  -17.3338  -45.2701 C.2       8 UNK         0.5000 
     31 O           1.0681  -17.6030  -46.4704 O.2       8 UNK        -0.5000 
     32 CA          2.2540  -17.7669  -44.4003 C.3       8 UNK         0.1400 
     33 CB          3.2890  -16.6493  -44.2873 C.3       8 UNK        -0.1800 
     34 N           1.8297  -18.1484  -43.0576 N.am      8 UNK        -0.5000 
     35 C           1.4310  -19.3785  -42.7111 C.2       7 UNK         0.5000 
     36 O           1.4328  -20.3409  -43.4786 O.2       7 UNK        -0.5000 
     37 CA          0.9234  -19.5596  -41.2671 C.3       7 UNK         0.1400 
     38 CB          2.0777  -19.9605  -40.3364 C.3       7 UNK        -0.1800 
     39 N           0.2717  -18.3617  -40.7332 N.am      7 UNK        -0.5000 
     40 C          -0.8652  -17.8407  -41.2133 C.2       6 UNK         0.5000 
     41 O          -1.5048  -18.3377  -42.1394 O.2       6 UNK        -0.5000 
     42 CA         -1.3451  -16.5185  -40.5887 C.3       6 UNK         0.1400 
     43 CB         -2.2865  -16.7969  -39.4078 C.3       6 UNK        -0.1800 
     44 N          -0.2686  -15.6273  -40.1462 N.am      6 UNK        -0.5000 
     45 C           0.7065  -15.1220  -40.9157 C.2       5 UNK         0.5000 
     46 O           0.8620  -15.4245  -42.1016 O.2       5 UNK        -0.5000 
     47 CA          1.6176  -14.0825  -40.2321 C.3       5 UNK         0.1400 
     48 CB          2.1422  -14.5586  -38.8587 C.3       5 UNK        -0.1800 
     49 N           2.7090  -13.5952  -41.0812 N.am      5 UNK        -0.5000 
     50 C           3.8406  -14.2190  -41.4414 C.2       4 UNK         0.5000 
     51 O           4.1179  -15.3749  -41.1180 O.2       4 UNK        -0.5000 
     52 CA          4.8463  -13.3896  -42.2759 C.3       4 UNK         0.1400 
     53 CB          5.7591  -14.2508  -43.1670 C.3       4 UNK        -0.1800 
     54 N           4.1756  -12.3920  -43.1110 N.am      4 UNK        -0.5000 
     55 C           3.9715  -11.1069  -42.7858 C.2       3 UNK         0.5000 
     56 O           4.4098  -10.5854  -41.7604 O.2       3 UNK        -0.5000 
     57 CA          3.0868  -10.2721  -43.7383 C.3       3 UNK         0.1400 
     58 CB          3.9581   -9.4739  -44.7197 C.3       3 UNK        -0.1800 
     59 N           2.1335  -11.0822  -44.5005 N.am      3 UNK        -0.5000 
     60 C           1.1634  -11.8390  -43.9690 C.2       2 UNK         0.5000 
     61 O           0.8594  -11.8044  -42.7760 O.2       2 UNK        -0.5000 
     62 CA          0.4372  -12.8298  -44.9033 C.3       2 UNK         0.1400 
     63 CB         -1.0009  -12.3576  -45.1655 C.3       2 UNK        -0.1800 
     64 N           1.0797  -13.0942  -46.1967 N.am      2 UNK        -0.5000 
     65 C           2.3226  -13.5449  -46.4175 C.2       1 UNK         0.5000 
     66 O           3.1514  -13.7078  -45.5226 O.2       1 UNK        -0.5000 
     67 C          -0.9667  -20.4803  -49.5311 C.2       11 UNK         0.5000 
     68 O          -0.8962  -21.2635  -50.4775 O.2       11 UNK        -0.5000 
     69 N          -1.8577  -19.4773  -49.4739 N.am      12 UNK        -0.5000 
     70 CA         -2.8853  -19.2225  -50.4865 C.3       12 UNK         0.1400 
     71 CB         -3.4899  -17.8315  -50.2437 C.3       12 UNK        -0.1800 
     72 C          -3.9998  -20.2928  -50.5360 C.2       12 UNK         0.5000 
     73 O          -4.7730  -20.3084  -51.4943 O.2       12 UNK        -0.5000 
     74 N          -4.0779  -21.1571  -49.5152 N.am      13 UNK        -0.5000 
     75 CA         -5.0664  -22.2234  -49.3730 C.3       13 UNK         0.1400 
     76 CB         -6.0946  -21.8072  -48.3070 C.3       13 UNK        -0.1800 
     77 C          -4.3770  -23.5639  -49.0476 C.2       13 UNK         0.5000 
     78 O          -4.9312  -24.3842  -48.3124 O.2       13 UNK        -0.5000 
     79 N          -3.1610  -23.7568  -49.5809 N.am      14 UNK        -0.5000 
     80 CA         -2.2848  -24.8923  -49.2824 C.3       14 UNK         0.1400 
     81 CB         -0.8931  -24.6293  -49.8782 C.3       14 UNK        -0.1800 
     82 C          -2.8112  -26.2657  -49.7432 C.2       14 UNK         0.5000 
     83 O          -2.3872  -27.2813  -49.1889 O.2       14 UNK        -0.5000 
     84 N          -3.7252  -26.2977  -50.7229 N.am      15 UNK        -0.5000 
     85 CA         -4.3275  -27.5199  -51.2614 C.3       15 UNK         0.1400 
     86 CB         -4.7525  -27.2813  -52.7219 C.3       15 UNK        -0.1800 
     87 C          -5.4819  -28.0248  -50.3719 C.2       15 UNK         0.5000 
     88 O          -6.6133  -28.1528  -50.8383 O.2       15 UNK        -0.5000 
     89 N          -5.1761  -28.2897  -49.0937 N.am      16 UNK        -0.5000 
     90 CA         -6.0814  -28.7943  -48.0539 C.3       16 UNK         0.1400 
     91 CB         -6.4444  -30.2685  -48.3296 C.3       16 UNK        -0.1800 
     92 C          -7.3199  -27.8938  -47.8538 C.2       16 UNK         0.5000 
     93 O          -8.4510  -28.3819  -47.8508 O.2       16 UNK        -0.5000 
     94 N          -7.0634  -26.5847  -47.7227 N.am      17 UNK        -0.5000 
     95 CA         -8.0144  -25.4784  -47.5649 C.3       17 UNK         0.1400 
     96 CB         -9.0387  -25.7302  -46.4383 C.3       17 UNK        -0.1800 
     97 C          -8.6852  -25.0168  -48.8749 C.2       17 UNK         0.5000 
     98 O          -9.3707  -23.9930  -48.8526 O.2       17 UNK        -0.5000 
     99 N          -8.4571  -25.7150  -49.9971 N.am      18 UNK        -0.5000 
    100 CA        -8.7725  -25.2116  -51.3350 C.3       18 UNK         0.1400 
    101 CB        -8.9719  -26.3856  -52.3055 C.3       18 UNK        -0.1800 
    102 C         -7.6361  -24.2915  -51.8137 C.2       18 UNK         0.5000 
    103 O         -6.4902  -24.4651  -51.3898 O.2       18 UNK        -0.5000 
    104 N         -7.9752  -23.3297  -52.6814 N.am      19 UNK        -0.5000 
    105 CA        -7.0607  -22.3161  -53.2117 C.3       19 UNK         0.1400 
    106 CB        -7.8424  -21.3605  -54.1259 C.3       19 UNK        -0.1800 
    107 C         -5.8575  -22.9200  -53.9614 C.2       19 UNK         0.5000 
    108 O         -6.0354  -23.8483  -54.7543 O.2       19 UNK        -0.5000 
    109 N         -4.6667  -22.3712  -53.7085 N.am      20 UNK        -0.5000 
    110 CA        -3.4035  -22.7970  -54.3021 C.3       20 UNK         0.1400 
    111 CB        -2.7865  -23.9057  -53.4350 C.3       20 UNK        -0.1800 
    112 C         -2.4589  -21.5940  -54.3840 C.2       20 UNK         0.5000 
    113 O         -2.5853  -20.6733  -53.5756 O.2       20 UNK        -0.5000 
    114 N         -1.5166  -21.6296  -55.3366 N.am      21 UNK        -0.5000 
    115 CA        -0.4803  -20.6177  -55.5754 C.3       21 UNK         0.1400 
    116 CB         0.5925  -20.6903  -54.4641 C.3       21 UNK        -0.1800 
    117 C         -1.0822  -19.2079  -55.7698 C.2       21 UNK         0.5000 
    118 O         -1.6757  -18.9455  -56.8172 O.2       21 UNK        -0.5000 
    119 N         -0.9388  -18.3480  -54.7555 N.am      22 UNK        -0.5000 
    120 CA        -1.5257  -17.0014  -54.6893 C.3       22 UNK         0.1400 
    121 C         -3.0373  -16.9749  -54.3122 C.2       22 UNK         0.5000 
    122 N         -3.6550  -18.0797  -53.9133 N.am      22 UNK        -0.7600 
    123 O         -3.6676  -15.9242  -54.3925 O.2       22 UNK        -0.5000 
    124 C124       -0.7097  -16.0771  -53.7510 C.3       23 UNK        -0.0398 
    125 S125        1.0067  -15.8429  -54.3256 S.3       23 UNK        -0.2404 
    126 C126        1.8013  -15.2152  -52.8076 C.3       23 UNK        -0.0205 
    127 H127       -0.5328  -15.8727  -50.3385 H         1 UNK         0.0600 
    128 H128        0.6399  -16.8814  -49.4930 H         1 UNK         0.0600 
    129 H129       -0.8589  -16.4141  -48.6871 H         1 UNK         0.0600 
    130 H130        2.3234  -15.8108  -48.4956 H         1 UNK         0.3000 
    131 H131        2.4314  -12.9207  -48.4344 H         1 UNK         0.0600 
    132 H132        4.4305  -13.8175  -49.1740 H         1 UNK         0.0800 
    133 H133        4.8003  -13.3590  -47.5555 H         1 UNK         0.0800 
    134 H134        6.0722  -17.1465  -49.2875 H         1 UNK         0.0800 
    135 H135        5.9418  -15.5309  -49.9221 H         1 UNK         0.0800 
    136 H136        3.8756  -14.8342  -51.1521 H         1 UNK         0.1150 
    137 H137        1.2726  -17.9461  -52.5301 H         1 UNK         0.1150 
    138 H138        4.3365  -18.8198  -49.6682 H         1 UNK         0.1150 
    139 H139        1.2770  -20.0764  -51.4724 H         1 UNK         0.0800 
    140 H140        2.9087  -20.5199  -51.8965 H         1 UNK         0.0800 
    141 H141        1.2136  -18.9750  -48.8219 H         1 UNK         0.0800 
    142 H142        1.8271  -19.9386  -47.5173 H         1 UNK         0.0800 
    143 H143        0.1124  -21.7618  -48.1978 H         1 UNK         0.0600 
    144 H144       -0.2687  -19.4705  -46.5787 H         1 UNK         0.3000 
    145 H145       -3.5137  -19.9596  -45.4992 H         1 UNK         0.0600 
    146 H146       -2.7957  -20.5611  -43.2100 H         1 UNK         0.0600 
    147 H147       -2.6835  -21.9700  -44.2513 H         1 UNK         0.0600 
    148 H148       -1.2242  -21.0929  -43.8063 H         1 UNK         0.0600 
    149 H149       -1.4945  -18.6337  -44.0882 H         1 UNK         0.3000 
    150 H150       -1.0314  -15.7641  -46.1528 H         1 UNK         0.0600 
    151 H151       -2.9779  -15.1742  -44.8480 H         1 UNK         0.0600 
    152 H152       -1.6060  -14.8517  -43.7973 H         1 UNK         0.0600 
    153 H153       -2.5773  -16.2985  -43.5645 H         1 UNK         0.0600 
    154 H154        0.1345  -16.4875  -43.6751 H         1 UNK         0.3000 
    155 H155        2.7336  -18.6179  -44.8887 H         1 UNK         0.0600 
    156 H156        2.8642  -15.7534  -43.8354 H         1 UNK         0.0600 
    157 H157        3.6676  -16.3740  -45.2690 H         1 UNK         0.0600 
    158 H158        4.1416  -16.9595  -43.6832 H         1 UNK         0.0600 
    159 H159        1.7587  -17.3975  -42.3820 H         1 UNK         0.3000 
    160 H160        0.1898  -20.3686  -41.2740 H         1 UNK         0.0600 
    161 H161        1.7185  -20.1665  -39.3280 H         1 UNK         0.0600 
    162 H162        2.8331  -19.1762  -40.2714 H         1 UNK         0.0600 
    163 H163        2.5724  -20.8642  -40.6951 H         1 UNK         0.0600 
    164 H164        0.7387  -17.8838  -39.9767 H         1 UNK         0.3000 
    165 H165       -1.9120  -15.9825  -41.3506 H         1 UNK         0.0600 
    166 H166       -2.7194  -15.8741  -39.0212 H         1 UNK         0.0600 
    167 H167       -3.1145  -17.4393  -39.7111 H         1 UNK         0.0600 
    168 H168       -1.7677  -17.2951  -38.5878 H         1 UNK         0.0600 
    169 H169       -0.3205  -15.3238  -39.1847 H         1 UNK         0.3000 
    170 H170        0.9885  -13.2088  -40.0560 H         1 UNK         0.0600 
    171 H171        1.3311  -14.6744  -38.1396 H         1 UNK         0.0600 
    172 H172        2.6540  -15.5189  -38.9284 H         1 UNK         0.0600 
    173 H173        2.8407  -13.8382  -38.4326 H         1 UNK         0.0600 
    174 H174        2.5445  -12.6802  -41.4793 H         1 UNK         0.3000 
    175 H175        5.4908  -12.8870  -41.5523 H         1 UNK         0.0600 
    176 H176        5.2043  -14.7265  -43.9738 H         1 UNK         0.0600 
    177 H177        6.5397  -13.6423  -43.6235 H         1 UNK         0.0600 
    178 H178        6.2567  -15.0348  -42.5952 H         1 UNK         0.0600 
    179 H179        3.7634  -12.7514  -43.9693 H         1 UNK         0.3000 
    180 H180        2.5172   -9.5676  -43.1288 H         1 UNK         0.0600 
    181 H181        4.5355  -10.1316  -45.3708 H         1 UNK         0.0600 
    182 H182        4.6648   -8.8373  -44.1857 H         1 UNK         0.0600 
    183 H183        3.3501   -8.8247  -45.3501 H         1 UNK         0.0600 
    184 H184        2.3129  -11.1777  -45.4886 H         1 UNK         0.3000 
    185 H185        0.4017  -13.7818  -44.3718 H         1 UNK         0.0600 
    186 H186       -1.5476  -12.2237  -44.2310 H         1 UNK         0.0600 
    187 H187       -1.0177  -11.4049  -45.6962 H         1 UNK         0.0600 
    188 H188       -1.5539  -13.0818  -45.7637 H         1 UNK         0.0600 
    189 H189        0.4770  -13.0289  -47.0119 H         1 UNK         0.3000 
    190 H190       -1.8933  -18.8961  -48.6441 H         1 UNK         0.3000 
    191 H191       -2.3965  -19.2096  -51.4612 H         1 UNK         0.0600 
    192 H192       -3.9723  -17.7678  -49.2677 H         1 UNK         0.0600 
    193 H193       -4.2419  -17.5942  -50.9972 H         1 UNK         0.0600 
    194 H194       -2.7290  -17.0541  -50.2957 H         1 UNK         0.0600 
    195 H195       -3.3884  -21.1125  -48.7717 H         1 UNK         0.3000 
    196 H196       -5.5940  -22.3647  -50.3146 H         1 UNK         0.0600 
    197 H197       -6.9073  -22.5297  -48.2440 H         1 UNK         0.0600 
    198 H198       -6.5422  -20.8427  -48.5468 H         1 UNK         0.0600 
    199 H199       -5.6380  -21.7302  -47.3194 H         1 UNK         0.0600 
    200 H200       -2.7670  -23.0224  -50.1527 H         1 UNK         0.3000 
    201 H201       -2.1792  -24.9424  -48.1967 H         1 UNK         0.0600 
    202 H202       -0.9321  -24.4995  -50.9598 H         1 UNK         0.0600 
    203 H203       -0.4427  -23.7360  -49.4486 H         1 UNK         0.0600 
    204 H204       -0.2145  -25.4583  -49.6726 H         1 UNK         0.0600 
    205 H205       -4.1000  -25.4238  -51.0660 H         1 UNK         0.3000 
    206 H206       -3.5754  -28.3115  -51.2751 H         1 UNK         0.0600 
    207 H207       -5.4528  -26.4513  -52.8132 H         1 UNK         0.0600 
    208 H208       -3.8890  -27.0650  -53.3501 H         1 UNK         0.0600 
    209 H209       -5.2352  -28.1653  -53.1405 H         1 UNK         0.0600 
    210 H210       -4.2162  -28.1230  -48.8093 H         1 UNK         0.3000 
    211 H211       -5.5252  -28.7625  -47.1160 H         1 UNK         0.0600 
    212 H212       -7.0294  -30.3783  -49.2433 H         1 UNK         0.0600 
    213 H213       -7.0332  -30.6856  -47.5118 H         1 UNK         0.0600 
    214 H214       -5.5493  -30.8824  -48.4294 H         1 UNK         0.0600 
    215 H215       -6.0996  -26.2815  -47.8054 H         1 UNK         0.3000 
    216 H216       -7.4035  -24.6361  -47.2399 H         1 UNK         0.0600 
    217 H217       -9.7803  -26.4785  -46.7177 H         1 UNK         0.0600 
    218 H218       -9.5829  -24.8156  -46.2003 H         1 UNK         0.0600 
    219 H219       -8.5489  -26.0623  -45.5230 H         1 UNK         0.0600 
    220 H220       -7.8473  -26.5226  -49.9604 H         1 UNK         0.3000 
    221 H221       -9.7034  -24.6418  -51.2970 H         1 UNK         0.0600 
    222 H222       -8.0343  -26.8917  -52.5326 H         1 UNK         0.0600 
    223 H223       -9.6655  -27.1235  -51.9019 H         1 UNK         0.0600 
    224 H224       -9.3827  -26.0359  -53.2531 H         1 UNK         0.0600 
    225 H225       -8.9297  -23.2796  -53.0055 H         1 UNK         0.3000 
    226 H226       -6.6950  -21.7436  -52.3598 H         1 UNK         0.0600 
    227 H227       -8.6549  -20.8728  -53.5869 H         1 UNK         0.0600 
    228 H228       -7.1929  -20.5740  -54.5125 H         1 UNK         0.0600 
    229 H229       -8.2708  -21.8836  -54.9819 H         1 UNK         0.0600 
    230 H230       -4.5939  -21.5764  -53.0764 H         1 UNK         0.3000 
    231 H231       -3.5764  -23.1713  -55.3133 H         1 UNK         0.0600 
    232 H232       -3.4555  -24.7606  -53.3587 H         1 UNK         0.0600 
    233 H233       -2.5825  -23.5487  -52.4257 H         1 UNK         0.0600 
    234 H234       -1.8460  -24.2616  -53.8568 H         1 UNK         0.0600 
    235 H235       -1.5063  -22.4145  -55.9725 H         1 UNK         0.3000 
    236 H236        0.0039  -20.8763  -56.5182 H         1 UNK         0.0600 
    237 H237        1.3720  -19.9419  -54.6137 H         1 UNK         0.0600 
    238 H238        0.1656  -20.5388  -53.4728 H         1 UNK         0.0600 
    239 H239        1.0809  -21.6647  -54.4609 H         1 UNK         0.0600 
    240 H240       -0.4752  -18.6734  -53.9221 H         1 UNK         0.3000 
    241 H241       -1.4727  -16.5709  -55.6912 H         1 UNK         0.0600 
    242 H242       -3.1618  -18.9668  -53.8326 H         1 UNK         0.3800 
    243 H243       -4.6325  -18.0384  -53.6772 H         1 UNK         0.3800 
    244 H244       -1.1682  -15.0886  -53.6867 H         1 UNK         0.0800 
    245 H245       -0.7045  -16.4795  -52.7370 H         1 UNK         0.0800 
    246 H246        2.5374  -14.4722  -53.1184 H         1 UNK         0.0800 
    247 H247        1.0710  -14.6796  -52.1997 H         1 UNK         0.0800 
@<TRIPOS>BOND
     1    1    2 1    
     2    1  127 1    
     3    1  128 1    
     4    1  129 1    
     5    2    3 2    
     6    2    4 am   BACKBONE|DICT|INTERRES
     7    4    5 1    
     8    4  130 1    
     9    5    6 1    
    10    5   65 1    
    11    5  131 1    
    12    6    7 1    
    13    6  132 1    
    14    6  133 1    
    15    7    8 1    
    16    8    9 1    
    17    8  134 1    
    18    8  135 1    
    19    9   10 ar   
    20    9   14 ar   
    21   10   11 ar   
    22   10  136 1    
    23   11   12 ar   
    24   11  126 1    
    25   12   13 ar   
    26   12  137 1    
    27   13   14 ar   
    28   13   15 1    
    29   14  138 1    
    30   15   16 1    
    31   15  139 1    
    32   15  140 1    
    33   16   17 1    
    34   17   18 1    
    35   17  141 1    
    36   17  142 1    
    37   18   19 1    
    38   18   67 1    
    39   18  143 1    
    40   19   20 am   BACKBONE|DICT|INTERRES
    41   19  144 1    
    42   20   21 2    
    43   20   22 1    
    44   22   23 1    
    45   22   24 1    
    46   22  145 1    
    47   23  146 1    
    48   23  147 1    
    49   23  148 1    
    50   24   25 am   BACKBONE|DICT|INTERRES
    51   24  149 1    
    52   25   26 2    
    53   25   27 1    
    54   27   28 1    
    55   27   29 1    
    56   27  150 1    
    57   28  151 1    
    58   28  152 1    
    59   28  153 1    
    60   29   30 am   BACKBONE|DICT|INTERRES
    61   29  154 1    
    62   30   31 2    
    63   30   32 1    
    64   32   33 1    
    65   32   34 1    
    66   32  155 1    
    67   33  156 1    
    68   33  157 1    
    69   33  158 1    
    70   34   35 am   BACKBONE|DICT|INTERRES
    71   34  159 1    
    72   35   36 2    
    73   35   37 1    
    74   37   38 1    
    75   37   39 1    
    76   37  160 1    
    77   38  161 1    
    78   38  162 1    
    79   38  163 1    
    80   39   40 am   BACKBONE|DICT|INTERRES
    81   39  164 1    
    82   40   41 2    
    83   40   42 1    
    84   42   43 1    
    85   42   44 1    
    86   42  165 1    
    87   43  166 1    
    88   43  167 1    
    89   43  168 1    
    90   44   45 am   BACKBONE|DICT|INTERRES
    91   44  169 1    
    92   45   46 2    
    93   45   47 1    
    94   47   48 1    
    95   47   49 1    
    96   47  170 1    
    97   48  171 1    
    98   48  172 1    
    99   48  173 1    
   100   49   50 am   BACKBONE|DICT|INTERRES
   101   49  174 1    
   102   50   51 2    
   103   50   52 1    
   104   52   53 1    
   105   52   54 1    
   106   52  175 1    
   107   53  176 1    
   108   53  177 1    
   109   53  178 1    
   110   54   55 am   BACKBONE|DICT|INTERRES
   111   54  179 1    
   112   55   56 2    
   113   55   57 1    
   114   57   58 1    
   115   57   59 1    
   116   57  180 1    
   117   58  181 1    
   118   58  182 1    
   119   58  183 1    
   120   59   60 am   BACKBONE|DICT|INTERRES
   121   59  184 1    
   122   60   61 2    
   123   60   62 1    
   124   62   63 1    
   125   62   64 1    
   126   62  185 1    
   127   63  186 1    
   128   63  187 1    
   129   63  188 1    
   130   64   65 am   BACKBONE|DICT|INTERRES
   131   64  189 1    
   132   65   66 2    
   133   67   68 2    
   134   67   69 am   BACKBONE|DICT|INTERRES
   135   69   70 1    
   136   69  190 1    
   137   70   71 1    
   138   70   72 1    
   139   70  191 1    
   140   71  192 1    
   141   71  193 1    
   142   71  194 1    
   143   72   73 2    
   144   72   74 am   BACKBONE|DICT|INTERRES
   145   74   75 1    
   146   74  195 1    
   147   75   76 1    
   148   75   77 1    
   149   75  196 1    
   150   76  197 1    
   151   76  198 1    
   152   76  199 1    
   153   77   78 2    
   154   77   79 am   BACKBONE|DICT|INTERRES
   155   79   80 1    
   156   79  200 1    
   157   80   81 1    
   158   80   82 1    
   159   80  201 1    
   160   81  202 1    
   161   81  203 1    
   162   81  204 1    
   163   82   83 2    
   164   82   84 am   BACKBONE|DICT|INTERRES
   165   84   85 1    
   166   84  205 1    
   167   85   86 1    
   168   85   87 1    
   169   85  206 1    
   170   86  207 1    
   171   86  208 1    
   172   86  209 1    
   173   87   88 2    
   174   87   89 am   BACKBONE|DICT|INTERRES
   175   89   90 1    
   176   89  210 1    
   177   90   91 1    
   178   90   92 1    
   179   90  211 1    
   180   91  212 1    
   181   91  213 1    
   182   91  214 1    
   183   92   93 2    
   184   92   94 am   BACKBONE|DICT|INTERRES
   185   94   95 1    
   186   94  215 1    
   187   95   96 1    
   188   95   97 1    
   189   95  216 1    
   190   96  217 1    
   191   96  218 1    
   192   96  219 1    
   193   97   98 2    
   194   97   99 am   BACKBONE|DICT|INTERRES
   195   99  100 1    
   196   99  220 1    
   197  100  101 1    
   198  100  102 1    
   199  100  221 1    
   200  101  222 1    
   201  101  223 1    
   202  101  224 1    
   203  102  103 2    
   204  102  104 am   BACKBONE|DICT|INTERRES
   205  104  105 1    
   206  104  225 1    
   207  105  106 1    
   208  105  107 1    
   209  105  226 1    
   210  106  227 1    
   211  106  228 1    
   212  106  229 1    
   213  107  108 2    
   214  107  109 am   BACKBONE|DICT|INTERRES
   215  109  110 1    
   216  109  230 1    
   217  110  111 1    
   218  110  112 1    
   219  110  231 1    
   220  111  232 1    
   221  111  233 1    
   222  111  234 1    
   223  112  113 2    
   224  112  114 am   BACKBONE|DICT|INTERRES
   225  114  115 1    
   226  114  235 1    
   227  115  116 1    
   228  115  117 1    
   229  115  236 1    
   230  116  237 1    
   231  116  238 1    
   232  116  239 1    
   233  117  118 2    
   234  117  119 am   BACKBONE|DICT|INTERRES
   235  119  120 1    
   236  119  240 1    
   237  120  121 1    
   238  120  124 1    
   239  120  241 1    
   240  121  122 am   BACKBONE|DICT|INTERRES
   241  121  123 2    
   242  122  242 1    
   243  122  243 1    
   244  124  125 1    
   245  124  244 1    
   246  124  245 1    
   247  125  126 1    
   248  126  246 1    
   249  126  247 1    
@<TRIPOS>SUBSTRUCTURE
     1 UNK         1 GROUP             0       ****    0 ROOT    
