@<TRIPOS>MOLECULE
3R540
247   249    1
SMALL
USER_CHARGES


@<TRIPOS>ATOM
      1 CA          3.3195  -14.0327  -42.9704 C.3       0 UNK        -0.1800 
      2 C           1.9881  -13.3135  -43.1344 C.2       0 UNK         0.5000 
      3 O           1.8394  -12.1872  -42.6592 O.2       0 UNK        -0.5000 
      4 N           1.0201  -13.9567  -43.7962 N.am      1 UNK        -0.5000 
      5 CA         -0.2970  -13.4023  -44.1132 C.3       1 UNK         0.1400 
      6 C6         -1.3112  -14.4909  -44.5374 C.3       23 UNK        -0.0398 
      7 S7         -1.6087  -15.7390  -43.2423 S.3       23 UNK        -0.2404 
      8 C8         -3.3235  -16.2312  -43.6069 C.3       23 UNK        -0.0205 
      9 C9         -3.4545  -16.9027  -44.9671 C.ar      23 UNK        -0.0193 
     10 C10        -3.9687  -16.1957  -46.0599 C.ar      23 UNK        -0.1150 
     11 C11        -4.1060  -16.8181  -47.3042 C.ar      23 UNK        -0.0193 
     12 C12        -3.7258  -18.1530  -47.4523 C.ar      23 UNK        -0.1150 
     13 C13        -3.2029  -18.8661  -46.3720 C.ar      23 UNK        -0.0193 
     14 C14        -3.0741  -18.2387  -45.1294 C.ar      23 UNK        -0.1150 
     15 C15        -2.7712  -20.3081  -46.5580 C.3       23 UNK        -0.0205 
     16 S16        -1.0250  -20.4051  -47.0567 S.3       23 UNK        -0.2404 
     17 C17        -0.9385  -22.0356  -47.8590 C.3       23 UNK        -0.0398 
     18 CA         -0.8388  -23.2641  -46.9227 C.3       11 UNK         0.1400 
     19 N           0.2126  -23.1570  -45.9043 N.am      11 UNK        -0.5000 
     20 C           0.7997  -24.2227  -45.3396 C.2       10 UNK         0.5000 
     21 O           0.5045  -25.3843  -45.6176 O.2       10 UNK        -0.5000 
     22 CA          1.8508  -23.9537  -44.2476 C.3       10 UNK         0.1400 
     23 CB          3.1785  -23.4969  -44.8706 C.3       10 UNK        -0.1800 
     24 N           1.4153  -22.9686  -43.2578 N.am      10 UNK        -0.5000 
     25 C           0.3322  -23.0829  -42.4754 C.2       9 UNK         0.5000 
     26 O          -0.4186  -24.0577  -42.4957 O.2       9 UNK        -0.5000 
     27 CA          0.0128  -21.8995  -41.5361 C.3       9 UNK         0.1400 
     28 CB          0.5099  -22.1961  -40.1138 C.3       9 UNK        -0.1800 
     29 N           0.5701  -20.6168  -41.9819 N.am      9 UNK        -0.5000 
     30 C           0.2439  -20.0052  -43.1285 C.2       8 UNK         0.5000 
     31 O          -0.5939  -20.4610  -43.9079 O.2       8 UNK        -0.5000 
     32 CA          1.0040  -18.7138  -43.4858 C.3       8 UNK         0.1400 
     33 CB          2.4938  -18.7776  -43.0724 C.3       8 UNK        -0.1800 
     34 N           0.8799  -18.4893  -44.9248 N.am      8 UNK        -0.5000 
     35 C           1.2489  -17.3904  -45.5885 C.2       7 UNK         0.5000 
     36 O           1.6792  -16.3727  -45.0443 O.2       7 UNK        -0.5000 
     37 CA          1.1039  -17.4245  -47.1206 C.3       7 UNK         0.1400 
     38 CB         -0.2274  -16.8012  -47.5619 C.3       7 UNK        -0.1800 
     39 N           2.1985  -16.7129  -47.7770 N.am      7 UNK        -0.5000 
     40 C           3.4712  -17.1305  -47.8223 C.2       6 UNK         0.5000 
     41 O           3.8488  -18.2216  -47.3934 O.2       6 UNK        -0.5000 
     42 CA          4.4965  -16.1747  -48.4659 C.3       6 UNK         0.1400 
     43 CB          4.7834  -16.5946  -49.9159 C.3       6 UNK        -0.1800 
     44 N           4.0510  -14.7809  -48.4615 N.am      6 UNK        -0.5000 
     45 C           4.0450  -13.9714  -47.3960 C.2       5 UNK         0.5000 
     46 O           4.5181  -14.2823  -46.3034 O.2       5 UNK        -0.5000 
     47 CA          3.3688  -12.5961  -47.5638 C.3       5 UNK         0.1400 
     48 CB          4.3541  -11.5373  -48.0932 C.3       5 UNK        -0.1800 
     49 N           2.1239  -12.6334  -48.3470 N.am      5 UNK        -0.5000 
     50 C           1.9515  -12.8547  -49.6591 C.2       4 UNK         0.5000 
     51 O           2.8857  -13.0493  -50.4372 O.2       4 UNK        -0.5000 
     52 CA          0.5146  -12.9275  -50.2051 C.3       4 UNK         0.1400 
     53 CB          0.1584  -14.3752  -50.5814 C.3       4 UNK        -0.1800 
     54 N          -0.4982  -12.3838  -49.2922 N.am      4 UNK        -0.5000 
     55 C          -1.6092  -11.7512  -49.7009 C.2       3 UNK         0.5000 
     56 O          -1.9123  -11.6068  -50.8861 O.2       3 UNK        -0.5000 
     57 CA         -2.5429  -11.1565  -48.6227 C.3       3 UNK         0.1400 
     58 CB         -3.7243  -12.0972  -48.3444 C.3       3 UNK        -0.1800 
     59 N          -1.8788  -10.8600  -47.3547 N.am      3 UNK        -0.5000 
     60 C          -0.9111   -9.9526  -47.1723 C.2       2 UNK         0.5000 
     61 O          -0.5286   -9.1793  -48.0509 O.2       2 UNK        -0.5000 
     62 CA         -0.2364   -9.9124  -45.7838 C.3       2 UNK         0.1400 
     63 CB         -0.6769   -8.6590  -45.0117 C.3       2 UNK        -0.1800 
     64 N          -0.4512  -11.0891  -44.9283 N.am      2 UNK        -0.5000 
     65 C          -0.1401  -12.3567  -45.2313 C.2       1 UNK         0.5000 
     66 O           0.2472  -12.7182  -46.3448 O.2       1 UNK        -0.5000 
     67 C          -2.2089  -23.6610  -46.3369 C.2       11 UNK         0.5000 
     68 O          -3.0588  -24.1374  -47.0869 O.2       11 UNK        -0.5000 
     69 N          -2.4029  -23.4700  -45.0239 N.am      12 UNK        -0.5000 
     70 CA         -3.5900  -23.9280  -44.3028 C.3       12 UNK         0.1400 
     71 CB         -3.7457  -23.1262  -43.0014 C.3       12 UNK        -0.1800 
     72 C          -3.5298  -25.4421  -44.0251 C.2       12 UNK         0.5000 
     73 O          -4.5643  -26.1082  -44.0711 O.2       12 UNK        -0.5000 
     74 N          -2.3213  -25.9576  -43.7560 N.am      13 UNK        -0.5000 
     75 CA         -2.0392  -27.3841  -43.6006 C.3       13 UNK         0.1400 
     76 CB         -0.6814  -27.5574  -42.9023 C.3       13 UNK        -0.1800 
     77 C          -2.0645  -28.1361  -44.9456 C.2       13 UNK         0.5000 
     78 O          -2.5666  -29.2598  -45.0031 O.2       13 UNK        -0.5000 
     79 N          -1.5243  -27.5057  -45.9974 N.am      14 UNK        -0.5000 
     80 CA         -1.5265  -28.0034  -47.3739 C.3       14 UNK         0.1400 
     81 CB         -0.4243  -27.2730  -48.1625 C.3       14 UNK        -0.1800 
     82 C          -2.9002  -27.8518  -48.0646 C.2       14 UNK         0.5000 
     83 O          -3.8664  -27.3765  -47.4634 O.2       14 UNK        -0.5000 
     84 N          -2.9583  -28.2724  -49.3345 N.am      15 UNK        -0.5000 
     85 CA         -4.1178  -28.1280  -50.2143 C.3       15 UNK         0.1400 
     86 CB         -3.8828  -28.9784  -51.4732 C.3       15 UNK        -0.1800 
     87 C          -4.3784  -26.6607  -50.6077 C.2       15 UNK         0.5000 
     88 O          -3.4605  -25.8362  -50.5857 O.2       15 UNK        -0.5000 
     89 N          -5.6176  -26.3803  -51.0358 N.am      16 UNK        -0.5000 
     90 CA         -6.1045  -25.0597  -51.4562 C.3       16 UNK         0.1400 
     91 CB         -7.5983  -25.1623  -51.7974 C.3       16 UNK        -0.1800 
     92 C          -5.3294  -24.4231  -52.6283 C.2       16 UNK         0.5000 
     93 O          -5.3462  -23.2010  -52.7684 O.2       16 UNK        -0.5000 
     94 N          -4.6220  -25.2449  -53.4157 N.am      17 UNK        -0.5000 
     95 CA         -3.6934  -24.8170  -54.4632 C.3       17 UNK         0.1400 
     96 CB         -3.1834  -26.0567  -55.2132 C.3       17 UNK        -0.1800 
     97 C          -2.5086  -23.9803  -53.9353 C.2       17 UNK         0.5000 
     98 O          -1.9924  -23.1427  -54.6749 O.2       17 UNK        -0.5000 
     99 N          -2.1116  -24.1948  -52.6714 N.am      18 UNK        -0.5000 
    100 CA        -1.1022  -23.3858  -51.9878 C.3       18 UNK         0.1400 
    101 CB        -0.5192  -24.1831  -50.8102 C.3       18 UNK        -0.1800 
    102 C         -1.6858  -22.0460  -51.5034 C.2       18 UNK         0.5000 
    103 O         -1.0092  -21.0214  -51.5814 O.2       18 UNK        -0.5000 
    104 N         -2.9383  -22.0745  -51.0239 N.am      19 UNK        -0.5000 
    105 CA        -3.6714  -20.9069  -50.5241 C.3       19 UNK         0.1400 
    106 CB        -4.9039  -21.3838  -49.7412 C.3       19 UNK        -0.1800 
    107 C         -4.0795  -19.9252  -51.6390 C.2       19 UNK         0.5000 
    108 O         -4.2388  -18.7330  -51.3745 O.2       19 UNK        -0.5000 
    109 N         -4.1973  -20.4358  -52.8733 N.am      20 UNK        -0.5000 
    110 CA        -4.4975  -19.6939  -54.1004 C.3       20 UNK         0.1400 
    111 CB        -4.6523  -20.6923  -55.2576 C.3       20 UNK        -0.1800 
    112 C         -3.4716  -18.5981  -54.4627 C.2       20 UNK         0.5000 
    113 O         -3.7849  -17.7371  -55.2863 O.2       20 UNK        -0.5000 
    114 N         -2.2925  -18.6080  -53.8201 N.am      21 UNK        -0.5000 
    115 CA        -1.2600  -17.5688  -53.8948 C.3       21 UNK         0.1400 
    116 CB        -0.0843  -17.9721  -52.9913 C.3       21 UNK        -0.1800 
    117 C         -1.7583  -16.1563  -53.5191 C.2       21 UNK         0.5000 
    118 O         -1.2042  -15.1725  -54.0104 O.2       21 UNK        -0.5000 
    119 N         -2.8062  -16.0830  -52.6877 N.am      22 UNK        -0.5000 
    120 CA        -3.5315  -14.8478  -52.3508 C.3       22 UNK         0.1400 
    121 C         -4.4261  -14.2886  -53.4990 C.2       22 UNK         0.5000 
    122 N         -4.6377  -14.9968  -54.6031 N.am      22 UNK        -0.7600 
    123 O         -4.9414  -13.1797  -53.3877 O.2       22 UNK        -0.5000 
    124 C124       -4.3594  -15.0114  -51.0522 C.3       23 UNK        -0.0398 
    125 S125       -3.3533  -15.5196  -49.6184 S.3       23 UNK        -0.2404 
    126 C126       -4.6731  -16.0662  -48.4952 C.3       23 UNK        -0.0205 
    127 H127        4.1117  -13.4702  -43.4644 H         1 UNK         0.0600 
    128 H128        3.2973  -15.0332  -43.4022 H         1 UNK         0.0600 
    129 H129        3.5705  -14.1247  -41.9139 H         1 UNK         0.0600 
    130 H130        1.2231  -14.8689  -44.2055 H         1 UNK         0.3000 
    131 H131       -0.6862  -12.9103  -43.2193 H         1 UNK         0.0600 
    132 H132       -2.2639  -14.0273  -44.7983 H         1 UNK         0.0800 
    133 H133       -0.9702  -15.0128  -45.4304 H         1 UNK         0.0800 
    134 H134       -3.6627  -16.9198  -42.8317 H         1 UNK         0.0800 
    135 H135       -3.9749  -15.3584  -43.5422 H         1 UNK         0.0800 
    136 H136       -4.2652  -15.1630  -45.9429 H         1 UNK         0.1150 
    137 H137       -3.8237  -18.6281  -48.4176 H         1 UNK         0.1150 
    138 H138       -2.6668  -18.7866  -44.2913 H         1 UNK         0.1150 
    139 H139       -2.9119  -20.8515  -45.6237 H         1 UNK         0.0800 
    140 H140       -3.4051  -20.7926  -47.2999 H         1 UNK         0.0800 
    141 H141       -0.0567  -22.0138  -48.5000 H         1 UNK         0.0800 
    142 H142       -1.7831  -22.1405  -48.5385 H         1 UNK         0.0800 
    143 H143       -0.5608  -24.0936  -47.5738 H         1 UNK         0.0600 
    144 H144        0.4517  -22.2255  -45.5943 H         1 UNK         0.3000 
    145 H145        2.0267  -24.8944  -43.7216 H         1 UNK         0.0600 
    146 H146        3.9568  -23.4013  -44.1133 H         1 UNK         0.0600 
    147 H147        3.5321  -24.2186  -45.6083 H         1 UNK         0.0600 
    148 H148        3.0798  -22.5341  -45.3738 H         1 UNK         0.0600 
    149 H149        1.9764  -22.1351  -43.1709 H         1 UNK         0.3000 
    150 H150       -1.0736  -21.7961  -41.5036 H         1 UNK         0.0600 
    151 H151        1.5964  -22.2852  -40.0775 H         1 UNK         0.0600 
    152 H152        0.0911  -23.1319  -39.7409 H         1 UNK         0.0600 
    153 H153        0.2127  -21.4100  -39.4195 H         1 UNK         0.0600 
    154 H154        1.2673  -20.1966  -41.3847 H         1 UNK         0.3000 
    155 H155        0.5180  -17.8897  -42.9615 H         1 UNK         0.0600 
    156 H156        3.0043  -19.6171  -43.5460 H         1 UNK         0.0600 
    157 H157        2.6087  -18.8819  -41.9934 H         1 UNK         0.0600 
    158 H158        3.0298  -17.8699  -43.3481 H         1 UNK         0.0600 
    159 H159        0.4192  -19.2459  -45.4185 H         1 UNK         0.3000 
    160 H160        1.1298  -18.4648  -47.4489 H         1 UNK         0.0600 
    161 H161       -0.2196  -15.7155  -47.4674 H         1 UNK         0.0600 
    162 H162       -1.0526  -17.1726  -46.9572 H         1 UNK         0.0600 
    163 H163       -0.4541  -17.0501  -48.5986 H         1 UNK         0.0600 
    164 H164        1.9967  -15.7829  -48.1076 H         1 UNK         0.3000 
    165 H165        5.4246  -16.2483  -47.8952 H         1 UNK         0.0600 
    166 H166        5.1415  -17.6239  -49.9616 H         1 UNK         0.0600 
    167 H167        3.8896  -16.5290  -50.5378 H         1 UNK         0.0600 
    168 H168        5.5512  -15.9638  -50.3643 H         1 UNK         0.0600 
    169 H169        3.6836  -14.4064  -49.3314 H         1 UNK         0.3000 
    170 H170        3.0662  -12.2813  -46.5635 H         1 UNK         0.0600 
    171 H171        3.8777  -10.5601  -48.1707 H         1 UNK         0.0600 
    172 H172        4.7500  -11.7980  -49.0748 H         1 UNK         0.0600 
    173 H173        5.2054  -11.4321  -47.4198 H         1 UNK         0.0600 
    174 H174        1.2994  -12.5767  -47.7545 H         1 UNK         0.3000 
    175 H175        0.5227  -12.3320  -51.1205 H         1 UNK         0.0600 
    176 H176       -0.8171  -14.4293  -51.0591 H         1 UNK         0.0600 
    177 H177        0.8818  -14.7944  -51.2821 H         1 UNK         0.0600 
    178 H178        0.1351  -15.0202  -49.7064 H         1 UNK         0.0600 
    179 H179       -0.3311  -12.4740  -48.2971 H         1 UNK         0.3000 
    180 H180       -2.9393  -10.2193  -49.0185 H         1 UNK         0.0600 
    181 H181       -3.3925  -13.0378  -47.9033 H         1 UNK         0.0600 
    182 H182       -4.2604  -12.3327  -49.2638 H         1 UNK         0.0600 
    183 H183       -4.4409  -11.6409  -47.6613 H         1 UNK         0.0600 
    184 H184       -2.1237  -11.4459  -46.5713 H         1 UNK         0.3000 
    185 H185        0.8383   -9.8405  -45.9624 H         1 UNK         0.0600 
    186 H186       -0.4999   -7.7545  -45.5953 H         1 UNK         0.0600 
    187 H187       -1.7399   -8.6906  -44.7695 H         1 UNK         0.0600 
    188 H188       -0.1218   -8.5533  -44.0793 H         1 UNK         0.0600 
    189 H189       -0.7624  -10.8885  -43.9885 H         1 UNK         0.3000 
    190 H190       -1.6593  -23.0625  -44.4747 H         1 UNK         0.3000 
    191 H191       -4.4700  -23.7343  -44.9201 H         1 UNK         0.0600 
    192 H192       -3.7643  -22.0537  -43.1971 H         1 UNK         0.0600 
    193 H193       -4.6797  -23.3825  -42.5001 H         1 UNK         0.0600 
    194 H194       -2.9368  -23.3256  -42.2997 H         1 UNK         0.0600 
    195 H195       -1.5355  -25.3253  -43.6516 H         1 UNK         0.3000 
    196 H196       -2.8078  -27.8195  -42.9585 H         1 UNK         0.0600 
    197 H197       -0.4525  -28.6128  -42.7498 H         1 UNK         0.0600 
    198 H198       -0.6787  -27.0779  -41.9232 H         1 UNK         0.0600 
    199 H199        0.1315  -27.1250  -43.4867 H         1 UNK         0.0600 
    200 H200       -1.0830  -26.6055  -45.8462 H         1 UNK         0.3000 
    201 H201       -1.2823  -29.0674  -47.3517 H         1 UNK         0.0600 
    202 H202       -0.2679  -27.7231  -49.1430 H         1 UNK         0.0600 
    203 H203       -0.6781  -26.2264  -48.3230 H         1 UNK         0.0600 
    204 H204        0.5314  -27.3120  -47.6393 H         1 UNK         0.0600 
    205 H205       -2.1181  -28.6271  -49.7659 H         1 UNK         0.3000 
    206 H206       -4.9967  -28.5084  -49.6894 H         1 UNK         0.0600 
    207 H207       -3.7208  -30.0257  -51.2172 H         1 UNK         0.0600 
    208 H208       -4.7436  -28.9413  -52.1420 H         1 UNK         0.0600 
    209 H209       -3.0149  -28.6327  -52.0366 H         1 UNK         0.0600 
    210 H210       -6.3014  -27.1235  -51.0476 H         1 UNK         0.3000 
    211 H211       -5.9956  -24.3890  -50.6018 H         1 UNK         0.0600 
    212 H212       -7.7750  -25.8496  -52.6257 H         1 UNK         0.0600 
    213 H213       -8.0017  -24.1904  -52.0855 H         1 UNK         0.0600 
    214 H214       -8.1767  -25.5101  -50.9413 H         1 UNK         0.0600 
    215 H215       -4.6677  -26.2352  -53.2287 H         1 UNK         0.3000 
    216 H216       -4.2485  -24.1923  -55.1661 H         1 UNK         0.0600 
    217 H217       -2.5052  -25.7740  -56.0195 H         1 UNK         0.0600 
    218 H218       -4.0062  -26.6127  -55.6627 H         1 UNK         0.0600 
    219 H219       -2.6420  -26.7331  -54.5503 H         1 UNK         0.0600 
    220 H220       -2.5902  -24.8918  -52.1084 H         1 UNK         0.3000 
    221 H221       -0.2888  -23.1698  -52.6839 H         1 UNK         0.0600 
    222 H222       -1.2698  -24.3819  -50.0445 H         1 UNK         0.0600 
    223 H223       -0.1198  -25.1418  -51.1414 H         1 UNK         0.0600 
    224 H224        0.2982  -23.6378  -50.3379 H         1 UNK         0.0600 
    225 H225       -3.4325  -22.9549  -51.0220 H         1 UNK         0.3000 
    226 H226       -3.0146  -20.3678  -49.8388 H         1 UNK         0.0600 
    227 H227       -5.4065  -20.5440  -49.2597 H         1 UNK         0.0600 
    228 H228       -5.6317  -21.8687  -50.3921 H         1 UNK         0.0600 
    229 H229       -4.6300  -22.0927  -48.9594 H         1 UNK         0.0600 
    230 H230       -4.1307  -21.4422  -52.9663 H         1 UNK         0.3000 
    231 H231       -5.4566  -19.1948  -53.9496 H         1 UNK         0.0600 
    232 H232       -3.7186  -21.2168  -55.4610 H         1 UNK         0.0600 
    233 H233       -4.9492  -20.1845  -56.1761 H         1 UNK         0.0600 
    234 H234       -5.4165  -21.4383  -55.0383 H         1 UNK         0.0600 
    235 H235       -2.1217  -19.3554  -53.1611 H         1 UNK         0.3000 
    236 H236       -0.9073  -17.5290  -54.9271 H         1 UNK         0.0600 
    237 H237        0.7180  -17.2343  -53.0379 H         1 UNK         0.0600 
    238 H238       -0.3920  -18.0573  -51.9479 H         1 UNK         0.0600 
    239 H239        0.3372  -18.9307  -53.2946 H         1 UNK         0.0600 
    240 H240       -3.1909  -16.9396  -52.3081 H         1 UNK         0.3000 
    241 H241       -2.7887  -14.0708  -52.1653 H         1 UNK         0.0600 
    242 H242       -4.2294  -15.9171  -54.7330 H         1 UNK         0.3800 
    243 H243       -5.2171  -14.6086  -55.3303 H         1 UNK         0.3800 
    244 H244       -5.1463  -15.7512  -51.2096 H         1 UNK         0.0800 
    245 H245       -4.8614  -14.0779  -50.7944 H         1 UNK         0.0800 
    246 H246       -5.2510  -15.2009  -48.1673 H         1 UNK         0.0800 
    247 H247       -5.3642  -16.7188  -49.0311 H         1 UNK         0.0800 
@<TRIPOS>BOND
     1    1    2 1    
     2    1  127 1    
     3    1  128 1    
     4    1  129 1    
     5    2    3 2    
     6    2    4 am   BACKBONE|DICT|INTERRES
     7    4    5 1    
     8    4  130 1    
     9    5    6 1    
    10    5   65 1    
    11    5  131 1    
    12    6    7 1    
    13    6  132 1    
    14    6  133 1    
    15    7    8 1    
    16    8    9 1    
    17    8  134 1    
    18    8  135 1    
    19    9   10 ar   
    20    9   14 ar   
    21   10   11 ar   
    22   10  136 1    
    23   11   12 ar   
    24   11  126 1    
    25   12   13 ar   
    26   12  137 1    
    27   13   14 ar   
    28   13   15 1    
    29   14  138 1    
    30   15   16 1    
    31   15  139 1    
    32   15  140 1    
    33   16   17 1    
    34   17   18 1    
    35   17  141 1    
    36   17  142 1    
    37   18   19 1    
    38   18   67 1    
    39   18  143 1    
    40   19   20 am   BACKBONE|DICT|INTERRES
    41   19  144 1    
    42   20   21 2    
    43   20   22 1    
    44   22   23 1    
    45   22   24 1    
    46   22  145 1    
    47   23  146 1    
    48   23  147 1    
    49   23  148 1    
    50   24   25 am   BACKBONE|DICT|INTERRES
    51   24  149 1    
    52   25   26 2    
    53   25   27 1    
    54   27   28 1    
    55   27   29 1    
    56   27  150 1    
    57   28  151 1    
    58   28  152 1    
    59   28  153 1    
    60   29   30 am   BACKBONE|DICT|INTERRES
    61   29  154 1    
    62   30   31 2    
    63   30   32 1    
    64   32   33 1    
    65   32   34 1    
    66   32  155 1    
    67   33  156 1    
    68   33  157 1    
    69   33  158 1    
    70   34   35 am   BACKBONE|DICT|INTERRES
    71   34  159 1    
    72   35   36 2    
    73   35   37 1    
    74   37   38 1    
    75   37   39 1    
    76   37  160 1    
    77   38  161 1    
    78   38  162 1    
    79   38  163 1    
    80   39   40 am   BACKBONE|DICT|INTERRES
    81   39  164 1    
    82   40   41 2    
    83   40   42 1    
    84   42   43 1    
    85   42   44 1    
    86   42  165 1    
    87   43  166 1    
    88   43  167 1    
    89   43  168 1    
    90   44   45 am   BACKBONE|DICT|INTERRES
    91   44  169 1    
    92   45   46 2    
    93   45   47 1    
    94   47   48 1    
    95   47   49 1    
    96   47  170 1    
    97   48  171 1    
    98   48  172 1    
    99   48  173 1    
   100   49   50 am   BACKBONE|DICT|INTERRES
   101   49  174 1    
   102   50   51 2    
   103   50   52 1    
   104   52   53 1    
   105   52   54 1    
   106   52  175 1    
   107   53  176 1    
   108   53  177 1    
   109   53  178 1    
   110   54   55 am   BACKBONE|DICT|INTERRES
   111   54  179 1    
   112   55   56 2    
   113   55   57 1    
   114   57   58 1    
   115   57   59 1    
   116   57  180 1    
   117   58  181 1    
   118   58  182 1    
   119   58  183 1    
   120   59   60 am   BACKBONE|DICT|INTERRES
   121   59  184 1    
   122   60   61 2    
   123   60   62 1    
   124   62   63 1    
   125   62   64 1    
   126   62  185 1    
   127   63  186 1    
   128   63  187 1    
   129   63  188 1    
   130   64   65 am   BACKBONE|DICT|INTERRES
   131   64  189 1    
   132   65   66 2    
   133   67   68 2    
   134   67   69 am   BACKBONE|DICT|INTERRES
   135   69   70 1    
   136   69  190 1    
   137   70   71 1    
   138   70   72 1    
   139   70  191 1    
   140   71  192 1    
   141   71  193 1    
   142   71  194 1    
   143   72   73 2    
   144   72   74 am   BACKBONE|DICT|INTERRES
   145   74   75 1    
   146   74  195 1    
   147   75   76 1    
   148   75   77 1    
   149   75  196 1    
   150   76  197 1    
   151   76  198 1    
   152   76  199 1    
   153   77   78 2    
   154   77   79 am   BACKBONE|DICT|INTERRES
   155   79   80 1    
   156   79  200 1    
   157   80   81 1    
   158   80   82 1    
   159   80  201 1    
   160   81  202 1    
   161   81  203 1    
   162   81  204 1    
   163   82   83 2    
   164   82   84 am   BACKBONE|DICT|INTERRES
   165   84   85 1    
   166   84  205 1    
   167   85   86 1    
   168   85   87 1    
   169   85  206 1    
   170   86  207 1    
   171   86  208 1    
   172   86  209 1    
   173   87   88 2    
   174   87   89 am   BACKBONE|DICT|INTERRES
   175   89   90 1    
   176   89  210 1    
   177   90   91 1    
   178   90   92 1    
   179   90  211 1    
   180   91  212 1    
   181   91  213 1    
   182   91  214 1    
   183   92   93 2    
   184   92   94 am   BACKBONE|DICT|INTERRES
   185   94   95 1    
   186   94  215 1    
   187   95   96 1    
   188   95   97 1    
   189   95  216 1    
   190   96  217 1    
   191   96  218 1    
   192   96  219 1    
   193   97   98 2    
   194   97   99 am   BACKBONE|DICT|INTERRES
   195   99  100 1    
   196   99  220 1    
   197  100  101 1    
   198  100  102 1    
   199  100  221 1    
   200  101  222 1    
   201  101  223 1    
   202  101  224 1    
   203  102  103 2    
   204  102  104 am   BACKBONE|DICT|INTERRES
   205  104  105 1    
   206  104  225 1    
   207  105  106 1    
   208  105  107 1    
   209  105  226 1    
   210  106  227 1    
   211  106  228 1    
   212  106  229 1    
   213  107  108 2    
   214  107  109 am   BACKBONE|DICT|INTERRES
   215  109  110 1    
   216  109  230 1    
   217  110  111 1    
   218  110  112 1    
   219  110  231 1    
   220  111  232 1    
   221  111  233 1    
   222  111  234 1    
   223  112  113 2    
   224  112  114 am   BACKBONE|DICT|INTERRES
   225  114  115 1    
   226  114  235 1    
   227  115  116 1    
   228  115  117 1    
   229  115  236 1    
   230  116  237 1    
   231  116  238 1    
   232  116  239 1    
   233  117  118 2    
   234  117  119 am   BACKBONE|DICT|INTERRES
   235  119  120 1    
   236  119  240 1    
   237  120  121 1    
   238  120  124 1    
   239  120  241 1    
   240  121  122 am   BACKBONE|DICT|INTERRES
   241  121  123 2    
   242  122  242 1    
   243  122  243 1    
   244  124  125 1    
   245  124  244 1    
   246  124  245 1    
   247  125  126 1    
   248  126  246 1    
   249  126  247 1    
@<TRIPOS>SUBSTRUCTURE
     1 UNK         1 GROUP             0       ****    0 ROOT    
