@<TRIPOS>MOLECULE
3R540
247   249    1
SMALL
USER_CHARGES


@<TRIPOS>ATOM
      1 CA         -2.9931  -11.2191  -41.4796 C.3       0 UNK        -0.1800 
      2 C          -2.3878  -10.9350  -42.8468 C.2       0 UNK         0.5000 
      3 O          -1.7140   -9.9193  -43.0194 O.2       0 UNK        -0.5000 
      4 N          -2.6266  -11.8277  -43.8163 N.am      1 UNK        -0.5000 
      5 CA         -2.1266  -11.7266  -45.1953 C.3       1 UNK         0.1400 
      6 C6         -2.8843  -12.6737  -46.1536 C.3       23 UNK        -0.0398 
      7 S7         -4.6549  -12.2436  -46.2789 S.3       23 UNK        -0.2404 
      8 C8         -5.4640  -13.6780  -45.4904 C.3       23 UNK        -0.0205 
      9 C9         -5.1898  -14.9917  -46.2136 C.ar      23 UNK        -0.0193 
     10 C10        -5.3662  -15.0903  -47.5969 C.ar      23 UNK        -0.1150 
     11 C11        -5.0795  -16.2802  -48.2682 C.ar      23 UNK        -0.0193 
     12 C12        -4.6405  -17.3915  -47.5440 C.ar      23 UNK        -0.1150 
     13 C13        -4.4830  -17.3149  -46.1565 C.ar      23 UNK        -0.0193 
     14 C14        -4.7562  -16.1121  -45.4975 C.ar      23 UNK        -0.1150 
     15 C15        -3.9879  -18.5230  -45.3783 C.3       23 UNK        -0.0205 
     16 S16        -5.2788  -19.7965  -45.2396 S.3       23 UNK        -0.2404 
     17 C17        -4.3887  -21.0840  -44.3053 C.3       23 UNK        -0.0398 
     18 CA         -3.8133  -22.1880  -45.2250 C.3       11 UNK         0.1400 
     19 N          -2.7907  -21.6753  -46.1338 N.am      11 UNK        -0.5000 
     20 C          -2.6371  -22.0630  -47.4049 C.2       10 UNK         0.5000 
     21 O          -3.3715  -22.8770  -47.9609 O.2       10 UNK        -0.5000 
     22 CA         -1.4294  -21.4813  -48.1678 C.3       10 UNK         0.1400 
     23 CB         -1.8185  -20.1773  -48.8718 C.3       10 UNK        -0.1800 
     24 N          -0.2667  -21.2394  -47.3133 N.am      10 UNK        -0.5000 
     25 C           0.3387  -22.1801  -46.5735 C.2       9 UNK         0.5000 
     26 O           0.0333  -23.3727  -46.6048 O.2       9 UNK        -0.5000 
     27 CA          1.4051  -21.7116  -45.5702 C.3       9 UNK         0.1400 
     28 CB          2.8082  -21.9043  -46.1576 C.3       9 UNK        -0.1800 
     29 N           1.2231  -20.3253  -45.1270 N.am      9 UNK        -0.5000 
     30 C           0.1510  -19.8642  -44.4615 C.2       8 UNK         0.5000 
     31 O          -0.8093  -20.5787  -44.1643 O.2       8 UNK        -0.5000 
     32 CA          0.0875  -18.3596  -44.1229 C.3       8 UNK         0.1400 
     33 CB         -0.3996  -18.1074  -42.6825 C.3       8 UNK        -0.1800 
     34 N           1.3149  -17.6112  -44.4138 N.am      8 UNK        -0.5000 
     35 C           2.5156  -17.7132  -43.8246 C.2       7 UNK         0.5000 
     36 O           2.7594  -18.4464  -42.8660 O.2       7 UNK        -0.5000 
     37 CA          3.6294  -16.8586  -44.4643 C.3       7 UNK         0.1400 
     38 CB          5.0505  -17.2486  -44.0060 C.3       7 UNK        -0.1800 
     39 N           3.5158  -16.8371  -45.9301 N.am      7 UNK        -0.5000 
     40 C           3.6666  -17.8781  -46.7624 C.2       6 UNK         0.5000 
     41 O           4.0106  -18.9988  -46.3911 O.2       6 UNK        -0.5000 
     42 CA          3.3370  -17.6191  -48.2469 C.3       6 UNK         0.1400 
     43 CB          3.3511  -18.9027  -49.1043 C.3       6 UNK        -0.1800 
     44 N           2.0804  -16.8833  -48.4278 N.am      6 UNK        -0.5000 
     45 C           0.8457  -17.2694  -48.0625 C.2       5 UNK         0.5000 
     46 O           0.6052  -18.3422  -47.5041 O.2       5 UNK        -0.5000 
     47 CA         -0.3063  -16.2756  -48.3260 C.3       5 UNK         0.1400 
     48 CB         -1.3012  -16.2430  -47.1558 C.3       5 UNK        -0.1800 
     49 N           0.1954  -14.9180  -48.5260 N.am      5 UNK        -0.5000 
     50 C           0.2491  -14.2570  -49.6897 C.2       4 UNK         0.5000 
     51 O          -0.1650  -14.7013  -50.7592 O.2       4 UNK        -0.5000 
     52 CA          0.9180  -12.8672  -49.6616 C.3       4 UNK         0.1400 
     53 CB         -0.1433  -11.7580  -49.6123 C.3       4 UNK        -0.1800 
     54 N           1.8545  -12.6958  -48.5453 N.am      4 UNK        -0.5000 
     55 C           3.0105  -13.3658  -48.4223 C.2       3 UNK         0.5000 
     56 O           3.4133  -14.1829  -49.2503 O.2       3 UNK        -0.5000 
     57 CA          3.8286  -13.1431  -47.1362 C.3       3 UNK         0.1400 
     58 CB          4.8736  -12.0388  -47.3512 C.3       3 UNK        -0.1800 
     59 N           3.0272  -12.8188  -45.9536 N.am      3 UNK        -0.5000 
     60 C           2.0428  -13.5645  -45.4338 C.2       2 UNK         0.5000 
     61 O           1.6602  -14.6273  -45.9284 O.2       2 UNK        -0.5000 
     62 CA          1.3622  -13.0467  -44.1502 C.3       2 UNK         0.1400 
     63 CB          2.0610  -11.8246  -43.5141 C.3       2 UNK        -0.1800 
     64 N          -0.0589  -12.7558  -44.3508 N.am      2 UNK        -0.5000 
     65 C          -0.6039  -11.9637  -45.2885 C.2       1 UNK         0.5000 
     66 O           0.0380  -11.4141  -46.1855 O.2       1 UNK        -0.5000 
     67 C          -3.2285  -23.3363  -44.3849 C.2       11 UNK         0.5000 
     68 O          -3.8425  -24.3993  -44.3007 O.2       11 UNK        -0.5000 
     69 N          -2.0642  -23.0962  -43.7656 N.am      12 UNK        -0.5000 
     70 CA         -1.4814  -23.9637  -42.7423 C.3       12 UNK         0.1400 
     71 CB         -0.4044  -23.1804  -41.9758 C.3       12 UNK        -0.1800 
     72 C          -0.9115  -25.2931  -43.2681 C.2       12 UNK         0.5000 
     73 O          -0.9523  -26.2828  -42.5356 O.2       12 UNK        -0.5000 
     74 N          -0.3813  -25.2989  -44.4980 N.am      13 UNK        -0.5000 
     75 CA          0.2625  -26.4629  -45.1091 C.3       13 UNK         0.1400 
     76 CB          1.7205  -26.1200  -45.4591 C.3       13 UNK        -0.1800 
     77 C          -0.5020  -26.9364  -46.3526 C.2       13 UNK         0.5000 
     78 O          -0.7472  -28.1357  -46.4874 O.2       13 UNK        -0.5000 
     79 N          -0.8729  -25.9993  -47.2367 N.am      14 UNK        -0.5000 
     80 CA         -1.5400  -26.2970  -48.5085 C.3       14 UNK         0.1400 
     81 CB         -1.2042  -25.2025  -49.5329 C.3       14 UNK        -0.1800 
     82 C          -3.0644  -26.4991  -48.3777 C.2       14 UNK         0.5000 
     83 O          -3.6955  -26.8846  -49.3608 O.2       14 UNK        -0.5000 
     84 N          -3.6260  -26.2585  -47.1827 N.am      15 UNK        -0.5000 
     85 CA         -5.0193  -26.5130  -46.7952 C.3       15 UNK         0.1400 
     86 CB         -5.3095  -28.0291  -46.7871 C.3       15 UNK        -0.1800 
     87 C          -6.0516  -25.7029  -47.6090 C.2       15 UNK         0.5000 
     88 O          -7.0854  -26.2414  -48.0091 O.2       15 UNK        -0.5000 
     89 N          -5.7494  -24.4150  -47.8227 N.am      16 UNK        -0.5000 
     90 CA         -6.5502  -23.4122  -48.5340 C.3       16 UNK         0.1400 
     91 CB         -7.9323  -23.2113  -47.8766 C.3       16 UNK        -0.1800 
     92 C          -6.6185  -23.6483  -50.0568 C.2       16 UNK         0.5000 
     93 O          -7.5847  -23.2377  -50.7032 O.2       16 UNK        -0.5000 
     94 N          -5.5734  -24.2767  -50.6104 N.am      17 UNK        -0.5000 
     95 CA         -5.3173  -24.3627  -52.0478 C.3       17 UNK         0.1400 
     96 CB         -4.3388  -25.5201  -52.3044 C.3       17 UNK        -0.1800 
     97 C          -4.7527  -23.0350  -52.5948 C.2       17 UNK         0.5000 
     98 O          -4.4623  -22.1173  -51.8227 O.2       17 UNK        -0.5000 
     99 N          -4.5863  -22.9660  -53.9239 N.am      18 UNK        -0.5000 
    100 CA        -4.0251  -21.8128  -54.6365 C.3       18 UNK         0.1400 
    101 CB        -4.1649  -22.0309  -56.1503 C.3       18 UNK        -0.1800 
    102 C         -2.5583  -21.5163  -54.2684 C.2       18 UNK         0.5000 
    103 O         -2.1674  -20.3501  -54.2474 O.2       18 UNK        -0.5000 
    104 N         -1.7788  -22.5743  -53.9887 N.am      19 UNK        -0.5000 
    105 CA        -0.4476  -22.5902  -53.3558 C.3       19 UNK         0.1400 
    106 CB        -0.5980  -22.1733  -51.8776 C.3       19 UNK        -0.1800 
    107 C          0.6701  -21.7668  -54.0427 C.2       19 UNK         0.5000 
    108 O          1.7627  -21.6630  -53.4839 O.2       19 UNK        -0.5000 
    109 N          0.3748  -21.1684  -55.2065 N.am      20 UNK        -0.5000 
    110 CA         1.1059  -20.0723  -55.8560 C.3       20 UNK         0.1400 
    111 CB         2.4904  -20.5397  -56.3521 C.3       20 UNK        -0.1800 
    112 C          1.1730  -18.7974  -54.9777 C.2       20 UNK         0.5000 
    113 O          2.1098  -18.0080  -55.1114 O.2       20 UNK        -0.5000 
    114 N          0.1817  -18.6225  -54.0926 N.am      21 UNK        -0.5000 
    115 CA         0.1107  -17.5902  -53.0624 C.3       21 UNK         0.1400 
    116 CB         1.1881  -17.8336  -51.9840 C.3       21 UNK        -0.1800 
    117 C         -1.3113  -17.6006  -52.4809 C.2       21 UNK         0.5000 
    118 O         -1.5039  -18.0337  -51.3457 O.2       21 UNK        -0.5000 
    119 N         -2.2792  -17.1983  -53.3159 N.am      22 UNK        -0.5000 
    120 CA        -3.7440  -17.1191  -53.1140 C.3       22 UNK         0.1400 
    121 C         -4.5027  -18.3972  -52.6402 C.2       22 UNK         0.5000 
    122 N         -3.8885  -19.2957  -51.8901 N.am      22 UNK        -0.7600 
    123 O         -5.6633  -18.5842  -52.9959 O.2       22 UNK        -0.5000 
    124 C124       -4.2096  -15.8441  -52.3562 C.3       23 UNK        -0.0398 
    125 S125       -3.7282  -15.7313  -50.5980 S.3       23 UNK        -0.2404 
    126 C126       -5.2280  -16.3506  -49.7770 C.3       23 UNK        -0.0205 
    127 H127       -3.5686  -12.1452  -41.4747 H         1 UNK         0.0600 
    128 H128       -3.6567  -10.4055  -41.1868 H         1 UNK         0.0600 
    129 H129       -2.2054  -11.3043  -40.7310 H         1 UNK         0.0600 
    130 H130       -3.2070  -12.6287  -43.6164 H         1 UNK         0.3000 
    131 H131       -2.2999  -10.7029  -45.5350 H         1 UNK         0.0600 
    132 H132       -2.7673  -13.7113  -45.8381 H         1 UNK         0.0800 
    133 H133       -2.4690  -12.6176  -47.1612 H         1 UNK         0.0800 
    134 H134       -6.5412  -13.5080  -45.4755 H         1 UNK         0.0800 
    135 H135       -5.1470  -13.7338  -44.4482 H         1 UNK         0.0800 
    136 H136       -5.7013  -14.2296  -48.1584 H         1 UNK         0.1150 
    137 H137       -4.4143  -18.3142  -48.0600 H         1 UNK         0.1150 
    138 H138       -4.6243  -16.0473  -44.4266 H         1 UNK         0.1150 
    139 H139       -3.6604  -18.2285  -44.3800 H         1 UNK         0.0800 
    140 H140       -3.1143  -18.9390  -45.8796 H         1 UNK         0.0800 
    141 H141       -5.0998  -21.5149  -43.5981 H         1 UNK         0.0800 
    142 H142       -3.6047  -20.6233  -43.7012 H         1 UNK         0.0800 
    143 H143       -4.6462  -22.5982  -45.7998 H         1 UNK         0.0600 
    144 H144       -2.0973  -21.0613  -45.7258 H         1 UNK         0.3000 
    145 H145       -1.1298  -22.2008  -48.9291 H         1 UNK         0.0600 
    146 H146       -2.0997  -19.3994  -48.1620 H         1 UNK         0.0600 
    147 H147       -2.6625  -20.3335  -49.5441 H         1 UNK         0.0600 
    148 H148       -0.9897  -19.7986  -49.4695 H         1 UNK         0.0600 
    149 H149        0.0597  -20.2791  -47.2489 H         1 UNK         0.3000 
    150 H150        1.3234  -22.3497  -44.6897 H         1 UNK         0.0600 
    151 H151        2.9416  -21.3294  -47.0741 H         1 UNK         0.0600 
    152 H152        2.9876  -22.9521  -46.4018 H         1 UNK         0.0600 
    153 H153        3.5796  -21.5992  -45.4503 H         1 UNK         0.0600 
    154 H154        1.9541  -19.6736  -45.3800 H         1 UNK         0.3000 
    155 H155       -0.6689  -17.9489  -44.7917 H         1 UNK         0.0600 
    156 H156        0.2629  -18.5593  -41.9441 H         1 UNK         0.0600 
    157 H157       -1.3933  -18.5291  -42.5264 H         1 UNK         0.0600 
    158 H158       -0.4650  -17.0405  -42.4692 H         1 UNK         0.0600 
    159 H159        1.2524  -16.9856  -45.2058 H         1 UNK         0.3000 
    160 H160        3.4561  -15.8372  -44.1255 H         1 UNK         0.0600 
    161 H161        5.2787  -18.2932  -44.2182 H         1 UNK         0.0600 
    162 H162        5.1635  -17.1057  -42.9308 H         1 UNK         0.0600 
    163 H163        5.8051  -16.6332  -44.4957 H         1 UNK         0.0600 
    164 H164        3.1297  -15.9817  -46.3115 H         1 UNK         0.3000 
    165 H165        4.1297  -16.9694  -48.6204 H         1 UNK         0.0600 
    166 H166        4.3015  -19.4289  -49.0085 H         1 UNK         0.0600 
    167 H167        2.5625  -19.5976  -48.8152 H         1 UNK         0.0600 
    168 H168        3.2219  -18.6696  -50.1600 H         1 UNK         0.0600 
    169 H169        2.1777  -15.9737  -48.8619 H         1 UNK         0.3000 
    170 H170       -0.8360  -16.6238  -49.2138 H         1 UNK         0.0600 
    171 H171       -2.1436  -15.5896  -47.3827 H         1 UNK         0.0600 
    172 H172       -1.7085  -17.2342  -46.9626 H         1 UNK         0.0600 
    173 H173       -0.8372  -15.8867  -46.2358 H         1 UNK         0.0600 
    174 H174        0.6097  -14.4886  -47.7064 H         1 UNK         0.3000 
    175 H175        1.4805  -12.7564  -50.5911 H         1 UNK         0.0600 
    176 H176       -0.7568  -11.8273  -48.7147 H         1 UNK         0.0600 
    177 H177        0.3155  -10.7693  -49.6309 H         1 UNK         0.0600 
    178 H178       -0.8134  -11.8223  -50.4706 H         1 UNK         0.0600 
    179 H179        1.5632  -12.0772  -47.7977 H         1 UNK         0.3000 
    180 H180        4.3591  -14.0735  -46.9248 H         1 UNK         0.0600 
    181 H181        4.4041  -11.0706  -47.5300 H         1 UNK         0.0600 
    182 H182        5.5067  -12.2608  -48.2114 H         1 UNK         0.0600 
    183 H183        5.5286  -11.9404  -46.4853 H         1 UNK         0.0600 
    184 H184        3.2500  -11.9483  -45.4931 H         1 UNK         0.3000 
    185 H185        1.4131  -13.8671  -43.4329 H         1 UNK         0.0600 
    186 H186        3.1074  -12.0364  -43.2901 H         1 UNK         0.0600 
    187 H187        2.0242  -10.9463  -44.1598 H         1 UNK         0.0600 
    188 H188        1.5836  -11.5545  -42.5720 H         1 UNK         0.0600 
    189 H189       -0.6850  -13.1690  -43.6751 H         1 UNK         0.3000 
    190 H190       -1.6126  -22.1934  -43.8956 H         1 UNK         0.3000 
    191 H191       -2.2738  -24.2134  -42.0333 H         1 UNK         0.0600 
    192 H192       -0.8165  -22.2740  -41.5318 H         1 UNK         0.0600 
    193 H193        0.0118  -23.7791  -41.1646 H         1 UNK         0.0600 
    194 H194        0.4214  -22.8881  -42.6234 H         1 UNK         0.0600 
    195 H195       -0.4032  -24.4527  -45.0572 H         1 UNK         0.3000 
    196 H196        0.2861  -27.3021  -44.4110 H         1 UNK         0.0600 
    197 H197        1.7893  -25.3097  -46.1847 H         1 UNK         0.0600 
    198 H198        2.2310  -26.9841  -45.8861 H         1 UNK         0.0600 
    199 H199        2.2769  -25.8201  -44.5710 H         1 UNK         0.0600 
    200 H200       -0.6109  -25.0302  -47.0700 H         1 UNK         0.3000 
    201 H201       -1.1293  -27.2321  -48.8955 H         1 UNK         0.0600 
    202 H202       -1.7988  -24.3073  -49.3738 H         1 UNK         0.0600 
    203 H203       -0.1509  -24.9231  -49.4973 H         1 UNK         0.0600 
    204 H204       -1.4112  -25.5488  -50.5452 H         1 UNK         0.0600 
    205 H205       -3.0248  -25.9153  -46.4471 H         1 UNK         0.3000 
    206 H206       -5.1178  -26.1666  -45.7664 H         1 UNK         0.0600 
    207 H207       -4.5805  -28.5662  -46.1802 H         1 UNK         0.0600 
    208 H208       -6.2946  -28.2367  -46.3678 H         1 UNK         0.0600 
    209 H209       -5.2865  -28.4524  -47.7918 H         1 UNK         0.0600 
    210 H210       -4.8278  -24.0854  -47.5494 H         1 UNK         0.3000 
    211 H211       -6.0091  -22.4724  -48.4156 H         1 UNK         0.0600 
    212 H212       -7.8377  -23.0416  -46.8040 H         1 UNK         0.0600 
    213 H213       -8.4398  -22.3423  -48.2967 H         1 UNK         0.0600 
    214 H214       -8.5852  -24.0711  -48.0268 H         1 UNK         0.0600 
    215 H215       -4.8222  -24.5701  -50.0024 H         1 UNK         0.3000 
    216 H216       -6.2554  -24.5754  -52.5644 H         1 UNK         0.0600 
    217 H217       -3.3686  -25.3323  -51.8450 H         1 UNK         0.0600 
    218 H218       -4.1734  -25.6764  -53.3706 H         1 UNK         0.0600 
    219 H219       -4.7241  -26.4567  -51.9009 H         1 UNK         0.0600 
    220 H220       -4.8556  -23.7561  -54.4919 H         1 UNK         0.3000 
    221 H221       -4.6145  -20.9354  -54.3643 H         1 UNK         0.0600 
    222 H222       -3.6201  -22.9150  -56.4836 H         1 UNK         0.0600 
    223 H223       -5.2100  -22.1518  -56.4362 H         1 UNK         0.0600 
    224 H224       -3.7755  -21.1760  -56.7050 H         1 UNK         0.0600 
    225 H225       -2.2014  -23.4845  -54.1009 H         1 UNK         0.3000 
    226 H226       -0.1141  -23.6285  -53.3776 H         1 UNK         0.0600 
    227 H227       -1.3744  -22.7558  -51.3817 H         1 UNK         0.0600 
    228 H228        0.3278  -22.3279  -51.3223 H         1 UNK         0.0600 
    229 H229       -0.8646  -21.1195  -51.7836 H         1 UNK         0.0600 
    230 H230       -0.5680  -21.3067  -55.5432 H         1 UNK         0.3000 
    231 H231        0.5191  -19.7990  -56.7339 H         1 UNK         0.0600 
    232 H232        3.1719  -20.7429  -55.5259 H         1 UNK         0.0600 
    233 H233        2.9574  -19.7785  -56.9780 H         1 UNK         0.0600 
    234 H234        2.4092  -21.4461  -56.9519 H         1 UNK         0.0600 
    235 H235       -0.5889  -19.2893  -54.0856 H         1 UNK         0.3000 
    236 H236        0.2819  -16.6124  -53.5168 H         1 UNK         0.0600 
    237 H237        1.0917  -18.8247  -51.5383 H         1 UNK         0.0600 
    238 H238        2.1945  -17.7464  -52.3921 H         1 UNK         0.0600 
    239 H239        1.1053  -17.1018  -51.1811 H         1 UNK         0.0600 
    240 H240       -1.9839  -16.9361  -54.2447 H         1 UNK         0.3000 
    241 H241       -4.1043  -16.9855  -54.1351 H         1 UNK         0.0600 
    242 H242       -4.3189  -20.1875  -51.6719 H         1 UNK         0.3800 
    243 H243       -2.9417  -19.0871  -51.5825 H         1 UNK         0.3800 
    244 H244       -5.2921  -15.7329  -52.4379 H         1 UNK         0.0800 
    245 H245       -3.7968  -14.9671  -52.8559 H         1 UNK         0.0800 
    246 H246       -5.4213  -17.3786  -50.0853 H         1 UNK         0.0800 
    247 H247       -6.0907  -15.7620  -50.0925 H         1 UNK         0.0800 
@<TRIPOS>BOND
     1    1    2 1    
     2    1  127 1    
     3    1  128 1    
     4    1  129 1    
     5    2    3 2    
     6    2    4 am   BACKBONE|DICT|INTERRES
     7    4    5 1    
     8    4  130 1    
     9    5    6 1    
    10    5   65 1    
    11    5  131 1    
    12    6    7 1    
    13    6  132 1    
    14    6  133 1    
    15    7    8 1    
    16    8    9 1    
    17    8  134 1    
    18    8  135 1    
    19    9   10 ar   
    20    9   14 ar   
    21   10   11 ar   
    22   10  136 1    
    23   11   12 ar   
    24   11  126 1    
    25   12   13 ar   
    26   12  137 1    
    27   13   14 ar   
    28   13   15 1    
    29   14  138 1    
    30   15   16 1    
    31   15  139 1    
    32   15  140 1    
    33   16   17 1    
    34   17   18 1    
    35   17  141 1    
    36   17  142 1    
    37   18   19 1    
    38   18   67 1    
    39   18  143 1    
    40   19   20 am   BACKBONE|DICT|INTERRES
    41   19  144 1    
    42   20   21 2    
    43   20   22 1    
    44   22   23 1    
    45   22   24 1    
    46   22  145 1    
    47   23  146 1    
    48   23  147 1    
    49   23  148 1    
    50   24   25 am   BACKBONE|DICT|INTERRES
    51   24  149 1    
    52   25   26 2    
    53   25   27 1    
    54   27   28 1    
    55   27   29 1    
    56   27  150 1    
    57   28  151 1    
    58   28  152 1    
    59   28  153 1    
    60   29   30 am   BACKBONE|DICT|INTERRES
    61   29  154 1    
    62   30   31 2    
    63   30   32 1    
    64   32   33 1    
    65   32   34 1    
    66   32  155 1    
    67   33  156 1    
    68   33  157 1    
    69   33  158 1    
    70   34   35 am   BACKBONE|DICT|INTERRES
    71   34  159 1    
    72   35   36 2    
    73   35   37 1    
    74   37   38 1    
    75   37   39 1    
    76   37  160 1    
    77   38  161 1    
    78   38  162 1    
    79   38  163 1    
    80   39   40 am   BACKBONE|DICT|INTERRES
    81   39  164 1    
    82   40   41 2    
    83   40   42 1    
    84   42   43 1    
    85   42   44 1    
    86   42  165 1    
    87   43  166 1    
    88   43  167 1    
    89   43  168 1    
    90   44   45 am   BACKBONE|DICT|INTERRES
    91   44  169 1    
    92   45   46 2    
    93   45   47 1    
    94   47   48 1    
    95   47   49 1    
    96   47  170 1    
    97   48  171 1    
    98   48  172 1    
    99   48  173 1    
   100   49   50 am   BACKBONE|DICT|INTERRES
   101   49  174 1    
   102   50   51 2    
   103   50   52 1    
   104   52   53 1    
   105   52   54 1    
   106   52  175 1    
   107   53  176 1    
   108   53  177 1    
   109   53  178 1    
   110   54   55 am   BACKBONE|DICT|INTERRES
   111   54  179 1    
   112   55   56 2    
   113   55   57 1    
   114   57   58 1    
   115   57   59 1    
   116   57  180 1    
   117   58  181 1    
   118   58  182 1    
   119   58  183 1    
   120   59   60 am   BACKBONE|DICT|INTERRES
   121   59  184 1    
   122   60   61 2    
   123   60   62 1    
   124   62   63 1    
   125   62   64 1    
   126   62  185 1    
   127   63  186 1    
   128   63  187 1    
   129   63  188 1    
   130   64   65 am   BACKBONE|DICT|INTERRES
   131   64  189 1    
   132   65   66 2    
   133   67   68 2    
   134   67   69 am   BACKBONE|DICT|INTERRES
   135   69   70 1    
   136   69  190 1    
   137   70   71 1    
   138   70   72 1    
   139   70  191 1    
   140   71  192 1    
   141   71  193 1    
   142   71  194 1    
   143   72   73 2    
   144   72   74 am   BACKBONE|DICT|INTERRES
   145   74   75 1    
   146   74  195 1    
   147   75   76 1    
   148   75   77 1    
   149   75  196 1    
   150   76  197 1    
   151   76  198 1    
   152   76  199 1    
   153   77   78 2    
   154   77   79 am   BACKBONE|DICT|INTERRES
   155   79   80 1    
   156   79  200 1    
   157   80   81 1    
   158   80   82 1    
   159   80  201 1    
   160   81  202 1    
   161   81  203 1    
   162   81  204 1    
   163   82   83 2    
   164   82   84 am   BACKBONE|DICT|INTERRES
   165   84   85 1    
   166   84  205 1    
   167   85   86 1    
   168   85   87 1    
   169   85  206 1    
   170   86  207 1    
   171   86  208 1    
   172   86  209 1    
   173   87   88 2    
   174   87   89 am   BACKBONE|DICT|INTERRES
   175   89   90 1    
   176   89  210 1    
   177   90   91 1    
   178   90   92 1    
   179   90  211 1    
   180   91  212 1    
   181   91  213 1    
   182   91  214 1    
   183   92   93 2    
   184   92   94 am   BACKBONE|DICT|INTERRES
   185   94   95 1    
   186   94  215 1    
   187   95   96 1    
   188   95   97 1    
   189   95  216 1    
   190   96  217 1    
   191   96  218 1    
   192   96  219 1    
   193   97   98 2    
   194   97   99 am   BACKBONE|DICT|INTERRES
   195   99  100 1    
   196   99  220 1    
   197  100  101 1    
   198  100  102 1    
   199  100  221 1    
   200  101  222 1    
   201  101  223 1    
   202  101  224 1    
   203  102  103 2    
   204  102  104 am   BACKBONE|DICT|INTERRES
   205  104  105 1    
   206  104  225 1    
   207  105  106 1    
   208  105  107 1    
   209  105  226 1    
   210  106  227 1    
   211  106  228 1    
   212  106  229 1    
   213  107  108 2    
   214  107  109 am   BACKBONE|DICT|INTERRES
   215  109  110 1    
   216  109  230 1    
   217  110  111 1    
   218  110  112 1    
   219  110  231 1    
   220  111  232 1    
   221  111  233 1    
   222  111  234 1    
   223  112  113 2    
   224  112  114 am   BACKBONE|DICT|INTERRES
   225  114  115 1    
   226  114  235 1    
   227  115  116 1    
   228  115  117 1    
   229  115  236 1    
   230  116  237 1    
   231  116  238 1    
   232  116  239 1    
   233  117  118 2    
   234  117  119 am   BACKBONE|DICT|INTERRES
   235  119  120 1    
   236  119  240 1    
   237  120  121 1    
   238  120  124 1    
   239  120  241 1    
   240  121  122 am   BACKBONE|DICT|INTERRES
   241  121  123 2    
   242  122  242 1    
   243  122  243 1    
   244  124  125 1    
   245  124  244 1    
   246  124  245 1    
   247  125  126 1    
   248  126  246 1    
   249  126  247 1    
@<TRIPOS>SUBSTRUCTURE
     1 UNK         1 GROUP             0       ****    0 ROOT    
