@<TRIPOS>MOLECULE
3R540
247   249    1
SMALL
USER_CHARGES


@<TRIPOS>ATOM
      1 CA          4.3077  -13.8229  -44.6750 C.3       0 UNK        -0.1800 
      2 C           2.9766  -13.3484  -45.2397 C.2       0 UNK         0.5000 
      3 O           2.6015  -12.1959  -45.0309 O.2       0 UNK        -0.5000 
      4 N           2.2667  -14.2326  -45.9528 N.am      1 UNK        -0.5000 
      5 CA          0.9557  -13.9780  -46.5609 C.3       1 UNK         0.1400 
      6 C6          0.3799  -15.2716  -47.1855 C.3       23 UNK        -0.0398 
      7 S7         -1.4364  -15.2290  -47.3604 S.3       23 UNK        -0.2404 
      8 C8         -1.8393  -17.0032  -47.3917 C.3       23 UNK        -0.0205 
      9 C9         -1.2335  -17.7067  -48.5960 C.ar      23 UNK        -0.0193 
     10 C10        -1.8850  -17.6852  -49.8308 C.ar      23 UNK        -0.1150 
     11 C11        -1.3476  -18.3644  -50.9286 C.ar      23 UNK        -0.0193 
     12 C12        -0.1395  -19.0550  -50.7892 C.ar      23 UNK        -0.1150 
     13 C13         0.5250  -19.0753  -49.5598 C.ar      23 UNK        -0.0193 
     14 C14        -0.0303  -18.4033  -48.4680 C.ar      23 UNK        -0.1150 
     15 C15         1.8272  -19.8476  -49.3921 C.3       23 UNK        -0.0205 
     16 S16         1.5872  -21.6555  -49.4050 S.3       23 UNK        -0.2404 
     17 C17         0.0939  -21.8459  -48.3789 C.3       23 UNK        -0.0398 
     18 CA         -0.0544  -23.2712  -47.8091 C.3       11 UNK         0.1400 
     19 N           0.9194  -23.5599  -46.7529 N.am      11 UNK        -0.5000 
     20 C           1.2323  -24.7975  -46.3420 C.2       10 UNK         0.5000 
     21 O           0.7379  -25.8167  -46.8212 O.2       10 UNK        -0.5000 
     22 CA          2.2110  -24.9196  -45.1579 C.3       10 UNK         0.1400 
     23 CB          3.6639  -24.8716  -45.6527 C.3       10 UNK        -0.1800 
     24 N           2.0106  -23.8841  -44.1435 N.am      10 UNK        -0.5000 
     25 C           0.8699  -23.6848  -43.4690 C.2       9 UNK         0.5000 
     26 O          -0.1108  -24.4218  -43.5678 O.2       9 UNK        -0.5000 
     27 CA          0.7797  -22.4299  -42.5795 C.3       9 UNK         0.1400 
     28 CB          0.9740  -22.8046  -41.1033 C.3       9 UNK        -0.1800 
     29 N           1.7183  -21.3575  -42.9256 N.am      9 UNK        -0.5000 
     30 C           1.8059  -20.7214  -44.1013 C.2       8 UNK         0.5000 
     31 O           1.1300  -21.0146  -45.0901 O.2       8 UNK        -0.5000 
     32 CA          2.8177  -19.5583  -44.1582 C.3       8 UNK         0.1400 
     33 CB          3.0693  -19.0601  -45.5912 C.3       8 UNK        -0.1800 
     34 N           2.3695  -18.4315  -43.3416 N.am      8 UNK        -0.5000 
     35 C           2.4175  -18.3604  -42.0042 C.2       7 UNK         0.5000 
     36 O           2.9196  -19.2336  -41.2945 O.2       7 UNK        -0.5000 
     37 CA          1.7883  -17.1151  -41.3493 C.3       7 UNK         0.1400 
     38 CB          2.8742  -16.0859  -41.0006 C.3       7 UNK        -0.1800 
     39 N           0.7798  -16.4646  -42.1884 N.am      7 UNK        -0.5000 
     40 C          -0.4275  -16.9551  -42.4916 C.2       6 UNK         0.5000 
     41 O          -0.8482  -18.0304  -42.0625 O.2       6 UNK        -0.5000 
     42 CA         -1.2979  -16.0896  -43.4326 C.3       6 UNK         0.1400 
     43 CB         -2.6198  -16.7808  -43.8138 C.3       6 UNK        -0.1800 
     44 N          -1.6069  -14.7644  -42.8868 N.am      6 UNK        -0.5000 
     45 C          -0.7470  -13.7503  -42.7269 C.2       5 UNK         0.5000 
     46 O           0.4530  -13.8257  -43.0012 O.2       5 UNK        -0.5000 
     47 CA         -1.3287  -12.4568  -42.1222 C.3       5 UNK         0.1400 
     48 CB         -1.5431  -12.6235  -40.6091 C.3       5 UNK        -0.1800 
     49 N          -0.4683  -11.2931  -42.3409 N.am      5 UNK        -0.5000 
     50 C          -0.2036  -10.7355  -43.5290 C.2       4 UNK         0.5000 
     51 O          -0.7328  -11.0997  -44.5841 O.2       4 UNK        -0.5000 
     52 CA          0.8035   -9.5676  -43.5383 C.3       4 UNK         0.1400 
     53 CB          1.8526   -9.6370  -42.4090 C.3       4 UNK        -0.1800 
     54 N           1.4791   -9.5562  -44.8269 N.am      4 UNK        -0.5000 
     55 C           1.9044   -8.4852  -45.5026 C.2       3 UNK         0.5000 
     56 O           1.8464   -7.3311  -45.0761 O.2       3 UNK        -0.5000 
     57 CA          2.4553   -8.7576  -46.9161 C.3       3 UNK         0.1400 
     58 CB          3.9281   -9.1908  -46.8565 C.3       3 UNK        -0.1800 
     59 N           1.6752   -9.7869  -47.6058 N.am      3 UNK        -0.5000 
     60 C           0.4205   -9.6237  -48.0452 C.2       2 UNK         0.5000 
     61 O          -0.1559   -8.5351  -48.0595 O.2       2 UNK        -0.5000 
     62 CA         -0.3441  -10.8797  -48.5060 C.3       2 UNK         0.1400 
     63 CB         -0.1248  -11.1635  -50.0046 C.3       2 UNK        -0.1800 
     64 N          -0.0976  -12.0654  -47.6736 N.am      2 UNK        -0.5000 
     65 C           1.0025  -12.8250  -47.5899 C.2       1 UNK         0.5000 
     66 O           2.0197  -12.6402  -48.2630 O.2       1 UNK        -0.5000 
     67 C          -1.5028  -23.4988  -47.3394 C.2       11 UNK         0.5000 
     68 O          -2.3516  -23.8228  -48.1697 O.2       11 UNK        -0.5000 
     69 N          -1.7724  -23.3387  -46.0371 N.am      12 UNK        -0.5000 
     70 CA         -3.0680  -23.6584  -45.4383 C.3       12 UNK         0.1400 
     71 CB         -3.2020  -22.9708  -44.0710 C.3       12 UNK        -0.1800 
     72 C          -3.2655  -25.1805  -45.3307 C.2       12 UNK         0.5000 
     73 O          -4.3361  -25.6779  -45.6780 O.2       12 UNK        -0.5000 
     74 N          -2.2117  -25.8930  -44.9058 N.am      13 UNK        -0.5000 
     75 CA         -2.1650  -27.3530  -44.8058 C.3       13 UNK         0.1400 
     76 CB         -0.8728  -27.7715  -44.0881 C.3       13 UNK        -0.1800 
     77 C          -2.2840  -28.0552  -46.1721 C.2       13 UNK         0.5000 
     78 O          -3.0146  -29.0396  -46.2875 O.2       13 UNK        -0.5000 
     79 N          -1.5909  -27.5206  -47.1875 N.am      14 UNK        -0.5000 
     80 CA         -1.6402  -27.9964  -48.5734 C.3       14 UNK         0.1400 
     81 CB         -0.4037  -27.4715  -49.3211 C.3       14 UNK        -0.1800 
     82 C          -2.9227  -27.5837  -49.3245 C.2       14 UNK         0.5000 
     83 O          -3.1685  -28.0998  -50.4148 O.2       14 UNK        -0.5000 
     84 N          -3.6876  -26.6413  -48.7526 N.am      15 UNK        -0.5000 
     85 CA         -4.8886  -25.9954  -49.2963 C.3       15 UNK         0.1400 
     86 CB         -6.0109  -27.0172  -49.5693 C.3       15 UNK        -0.1800 
     87 C          -4.6124  -25.0810  -50.5093 C.2       15 UNK         0.5000 
     88 O          -5.5539  -24.6531  -51.1761 O.2       15 UNK        -0.5000 
     89 N          -3.3387  -24.7360  -50.7390 N.am      16 UNK        -0.5000 
     90 CA         -2.8776  -23.7766  -51.7426 C.3       16 UNK         0.1400 
     91 CB         -1.3422  -23.7996  -51.7850 C.3       16 UNK        -0.1800 
     92 C          -3.3854  -22.3505  -51.4679 C.2       16 UNK         0.5000 
     93 O          -3.6936  -21.6220  -52.4126 O.2       16 UNK        -0.5000 
     94 N          -3.4990  -21.9983  -50.1788 N.am      17 UNK        -0.5000 
     95 CA         -4.0729  -20.7369  -49.7130 C.3       17 UNK         0.1400 
     96 CB         -3.7433  -20.5360  -48.2258 C.3       17 UNK        -0.1800 
     97 C          -5.5904  -20.6562  -49.9555 C.2       17 UNK         0.5000 
     98 O          -6.0894  -19.5930  -50.3226 O.2       17 UNK        -0.5000 
     99 N          -6.2883  -21.7858  -49.7719 N.am      18 UNK        -0.5000 
    100 CA        -7.7284  -21.9189  -49.9990 C.3       18 UNK         0.1400 
    101 CB        -8.2416  -23.1861  -49.2972 C.3       18 UNK        -0.1800 
    102 C         -8.0790  -21.9390  -51.4974 C.2       18 UNK         0.5000 
    103 O         -9.0572  -21.3115  -51.9040 O.2       18 UNK        -0.5000 
    104 N         -7.2570  -22.6377  -52.2922 N.am      19 UNK        -0.5000 
    105 CA        -7.3653  -22.7215  -53.7498 C.3       19 UNK         0.1400 
    106 CB        -6.4968  -23.8912  -54.2396 C.3       19 UNK        -0.1800 
    107 C         -6.9571  -21.4238  -54.4749 C.2       19 UNK         0.5000 
    108 O         -7.3085  -21.2577  -55.6435 O.2       19 UNK        -0.5000 
    109 N         -6.2082  -20.5515  -53.7825 N.am      20 UNK        -0.5000 
    110 CA        -5.5804  -19.3229  -54.2789 C.3       20 UNK         0.1400 
    111 CB        -6.6373  -18.2801  -54.6964 C.3       20 UNK        -0.1800 
    112 C         -4.5382  -19.6149  -55.3786 C.2       20 UNK         0.5000 
    113 O         -4.4487  -18.8886  -56.3709 O.2       20 UNK        -0.5000 
    114 N         -3.7535  -20.6828  -55.1698 N.am      21 UNK        -0.5000 
    115 CA        -2.7499  -21.2057  -56.1049 C.3       21 UNK         0.1400 
    116 CB        -2.2411  -22.5536  -55.5733 C.3       21 UNK        -0.1800 
    117 C         -1.5723  -20.2435  -56.3640 C.2       21 UNK         0.5000 
    118 O         -0.8785  -20.3794  -57.3722 O.2       21 UNK        -0.5000 
    119 N         -1.3890  -19.2814  -55.4550 N.am      22 UNK        -0.5000 
    120 CA        -0.4786  -18.1364  -55.5657 C.3       22 UNK         0.1400 
    121 C         -0.9100  -17.0599  -56.6088 C.2       22 UNK         0.5000 
    122 N         -2.1293  -17.0842  -57.1379 N.am      22 UNK        -0.7600 
    123 O         -0.1136  -16.1915  -56.9549 O.2       22 UNK        -0.5000 
    124 C124       -0.2054  -17.5169  -54.1688 C.3       23 UNK        -0.0398 
    125 S125       -1.7204  -16.9633  -53.3013 S.3       23 UNK        -0.2404 
    126 C126       -2.1081  -18.3933  -52.2435 C.3       23 UNK        -0.0205 
    127 H127        4.3083  -13.7227  -43.5896 H         1 UNK         0.0600 
    128 H128        5.1212  -13.2179  -45.0753 H         1 UNK         0.0600 
    129 H129        4.5050  -14.8668  -44.9200 H         1 UNK         0.0600 
    130 H130        2.6639  -15.1424  -46.1310 H         1 UNK         0.3000 
    131 H131        0.3021  -13.6687  -45.7423 H         1 UNK         0.0600 
    132 H132        0.8336  -15.4832  -48.1560 H         1 UNK         0.0800 
    133 H133        0.6231  -16.1222  -46.5479 H         1 UNK         0.0800 
    134 H134       -2.9239  -17.1192  -47.4069 H         1 UNK         0.0800 
    135 H135       -1.4971  -17.4728  -46.4692 H         1 UNK         0.0800 
    136 H136       -2.8210  -17.1538  -49.9325 H         1 UNK         0.1150 
    137 H137        0.2748  -19.5982  -51.6264 H         1 UNK         0.1150 
    138 H138        0.4670  -18.4340  -47.5106 H         1 UNK         0.1150 
    139 H139        2.3197  -19.5672  -48.4607 H         1 UNK         0.0800 
    140 H140        2.5158  -19.5752  -50.1930 H         1 UNK         0.0800 
    141 H141       -0.7526  -21.5914  -49.0196 H         1 UNK         0.0800 
    142 H142        0.1025  -21.1134  -47.5705 H         1 UNK         0.0800 
    143 H143        0.1170  -23.9775  -48.6242 H         1 UNK         0.0600 
    144 H144        1.3161  -22.7588  -46.2746 H         1 UNK         0.3000 
    145 H145        2.0405  -25.8884  -44.6841 H         1 UNK         0.0600 
    146 H146        3.8476  -25.6468  -46.3979 H         1 UNK         0.0600 
    147 H147        4.3652  -25.0364  -44.8345 H         1 UNK         0.0600 
    148 H148        3.9019  -23.9114  -46.1122 H         1 UNK         0.0600 
    149 H149        2.7676  -23.2327  -44.0003 H         1 UNK         0.3000 
    150 H150       -0.2279  -22.0270  -42.6991 H         1 UNK         0.0600 
    151 H151        0.8110  -21.9445  -40.4534 H         1 UNK         0.0600 
    152 H152        0.2680  -23.5786  -40.7989 H         1 UNK         0.0600 
    153 H153        1.9793  -23.1831  -40.9143 H         1 UNK         0.0600 
    154 H154        2.2821  -20.9938  -42.1648 H         1 UNK         0.3000 
    155 H155        3.7669  -19.9274  -43.7641 H         1 UNK         0.0600 
    156 H156        2.1714  -18.6255  -46.0281 H         1 UNK         0.0600 
    157 H157        3.3925  -19.8770  -46.2376 H         1 UNK         0.0600 
    158 H158        3.8519  -18.3015  -45.6123 H         1 UNK         0.0600 
    159 H159        1.9162  -17.6755  -43.8309 H         1 UNK         0.3000 
    160 H160        1.3065  -17.4369  -40.4238 H         1 UNK         0.0600 
    161 H161        3.6341  -16.5224  -40.3511 H         1 UNK         0.0600 
    162 H162        2.4511  -15.2294  -40.4753 H         1 UNK         0.0600 
    163 H163        3.3779  -15.7147  -41.8942 H         1 UNK         0.0600 
    164 H164        0.9978  -15.5312  -42.5312 H         1 UNK         0.3000 
    165 H165       -0.7235  -15.9500  -44.3500 H         1 UNK         0.0600 
    166 H166       -2.4413  -17.7708  -44.2352 H         1 UNK         0.0600 
    167 H167       -3.2717  -16.9071  -42.9486 H         1 UNK         0.0600 
    168 H168       -3.1635  -16.2046  -44.5629 H         1 UNK         0.0600 
    169 H169       -2.5645  -14.6277  -42.5972 H         1 UNK         0.3000 
    170 H170       -2.2923  -12.2603  -42.5968 H         1 UNK         0.0600 
    171 H171       -0.6045  -12.8237  -40.0903 H         1 UNK         0.0600 
    172 H172       -2.2191  -13.4519  -40.3934 H         1 UNK         0.0600 
    173 H173       -1.9840  -11.7275  -40.1716 H         1 UNK         0.0600 
    174 H174        0.0347  -10.9557  -41.5340 H         1 UNK         0.3000 
    175 H175        0.2235   -8.6493  -43.4283 H         1 UNK         0.0600 
    176 H176        1.3923   -9.5326  -41.4262 H         1 UNK         0.0600 
    177 H177        2.3970  -10.5825  -42.4286 H         1 UNK         0.0600 
    178 H178        2.5833   -8.8333  -42.5016 H         1 UNK         0.0600 
    179 H179        1.6011  -10.4776  -45.2374 H         1 UNK         0.3000 
    180 H180        2.3926   -7.8303  -47.4894 H         1 UNK         0.0600 
    181 H181        4.0517  -10.1270  -46.3105 H         1 UNK         0.0600 
    182 H182        4.5364   -8.4360  -46.3566 H         1 UNK         0.0600 
    183 H183        4.3385   -9.3298  -47.8567 H         1 UNK         0.0600 
    184 H184        2.0745  -10.7181  -47.6572 H         1 UNK         0.3000 
    185 H185       -1.4043  -10.6580  -48.3746 H         1 UNK         0.0600 
    186 H186       -0.4609  -10.3204  -50.6093 H         1 UNK         0.0600 
    187 H187        0.9258  -11.3308  -50.2427 H         1 UNK         0.0600 
    188 H188       -0.6871  -12.0399  -50.3269 H         1 UNK         0.0600 
    189 H189       -0.8512  -12.2800  -47.0339 H         1 UNK         0.3000 
    190 H190       -1.0221  -23.0921  -45.4082 H         1 UNK         0.3000 
    191 H191       -3.8557  -23.2654  -46.0845 H         1 UNK         0.0600 
    192 H192       -3.0655  -21.8927  -44.1574 H         1 UNK         0.0600 
    193 H193       -4.1938  -23.1400  -43.6501 H         1 UNK         0.0600 
    194 H194       -2.4762  -23.3441  -43.3495 H         1 UNK         0.0600 
    195 H195       -1.3853  -25.3918  -44.5905 H         1 UNK         0.3000 
    196 H196       -3.0117  -27.6710  -44.1941 H         1 UNK         0.0600 
    197 H197        0.0139  -27.4634  -44.6425 H         1 UNK         0.0600 
    198 H198       -0.8258  -28.8545  -43.9674 H         1 UNK         0.0600 
    199 H199       -0.8139  -27.3296  -43.0932 H         1 UNK         0.0600 
    200 H200       -0.9446  -26.7601  -46.9947 H         1 UNK         0.3000 
    201 H201       -1.5989  -29.0875  -48.5693 H         1 UNK         0.0600 
    202 H202       -0.3783  -27.8390  -50.3477 H         1 UNK         0.0600 
    203 H203        0.5173  -27.7985  -48.8381 H         1 UNK         0.0600 
    204 H204       -0.3918  -26.3817  -49.3623 H         1 UNK         0.0600 
    205 H205       -3.3863  -26.2870  -47.8548 H         1 UNK         0.3000 
    206 H206       -5.2420  -25.3316  -48.5060 H         1 UNK         0.0600 
    207 H207       -5.7751  -27.6664  -50.4126 H         1 UNK         0.0600 
    208 H208       -6.1902  -27.6472  -48.6981 H         1 UNK         0.0600 
    209 H209       -6.9496  -26.5138  -49.8026 H         1 UNK         0.0600 
    210 H210       -2.6491  -25.0633  -50.0777 H         1 UNK         0.3000 
    211 H211       -3.2601  -24.0880  -52.7165 H         1 UNK         0.0600 
    212 H212       -0.9541  -23.0811  -52.5070 H         1 UNK         0.0600 
    213 H213       -0.9709  -24.7834  -52.0723 H         1 UNK         0.0600 
    214 H214       -0.9094  -23.5484  -50.8169 H         1 UNK         0.0600 
    215 H215       -3.2095  -22.6662  -49.4705 H         1 UNK         0.3000 
    216 H216       -3.6103  -19.9269  -50.2746 H         1 UNK         0.0600 
    217 H217       -4.1377  -21.3457  -47.6116 H         1 UNK         0.0600 
    218 H218       -2.6675  -20.4822  -48.0624 H         1 UNK         0.0600 
    219 H219       -4.1696  -19.6031  -47.8547 H         1 UNK         0.0600 
    220 H220       -5.7911  -22.6222  -49.5078 H         1 UNK         0.3000 
    221 H221       -8.2286  -21.0581  -49.5498 H         1 UNK         0.0600 
    222 H222       -7.7811  -24.0884  -49.6997 H         1 UNK         0.0600 
    223 H223       -8.0381  -23.1543  -48.2267 H         1 UNK         0.0600 
    224 H224       -9.3206  -23.2878  -49.4196 H         1 UNK         0.0600 
    225 H225       -6.5230  -23.1969  -51.8644 H         1 UNK         0.3000 
    226 H226       -8.4053  -22.9323  -54.0072 H         1 UNK         0.0600 
    227 H227       -6.8063  -24.8312  -53.7824 H         1 UNK         0.0600 
    228 H228       -6.5753  -24.0140  -55.3205 H         1 UNK         0.0600 
    229 H229       -5.4439  -23.7343  -54.0021 H         1 UNK         0.0600 
    230 H230       -5.9508  -20.8166  -52.8415 H         1 UNK         0.3000 
    231 H231       -5.0279  -18.9061  -53.4369 H         1 UNK         0.0600 
    232 H232       -7.1918  -18.5920  -55.5817 H         1 UNK         0.0600 
    233 H233       -6.1682  -17.3229  -54.9269 H         1 UNK         0.0600 
    234 H234       -7.3547  -18.1050  -53.8946 H         1 UNK         0.0600 
    235 H235       -3.8550  -21.1809  -54.2894 H         1 UNK         0.3000 
    236 H236       -3.2460  -21.3781  -57.0621 H         1 UNK         0.0600 
    237 H237       -1.7351  -22.4356  -54.6157 H         1 UNK         0.0600 
    238 H238       -3.0597  -23.2607  -55.4370 H         1 UNK         0.0600 
    239 H239       -1.5315  -23.0064  -56.2669 H         1 UNK         0.0600 
    240 H240       -2.0347  -19.2460  -54.6822 H         1 UNK         0.3000 
    241 H241        0.4733  -18.5256  -55.9319 H         1 UNK         0.0600 
    242 H242       -2.3855  -16.3829  -57.8144 H         1 UNK         0.3800 
    243 H243       -2.8134  -17.7786  -56.8582 H         1 UNK         0.3800 
    244 H244        0.4711  -16.6648  -54.2546 H         1 UNK         0.0800 
    245 H245        0.3231  -18.2387  -53.5471 H         1 UNK         0.0800 
    246 H246       -1.9166  -19.3307  -52.7659 H         1 UNK         0.0800 
    247 H247       -3.1786  -18.3807  -52.0373 H         1 UNK         0.0800 
@<TRIPOS>BOND
     1    1    2 1    
     2    1  127 1    
     3    1  128 1    
     4    1  129 1    
     5    2    3 2    
     6    2    4 am   BACKBONE|DICT|INTERRES
     7    4    5 1    
     8    4  130 1    
     9    5    6 1    
    10    5   65 1    
    11    5  131 1    
    12    6    7 1    
    13    6  132 1    
    14    6  133 1    
    15    7    8 1    
    16    8    9 1    
    17    8  134 1    
    18    8  135 1    
    19    9   10 ar   
    20    9   14 ar   
    21   10   11 ar   
    22   10  136 1    
    23   11   12 ar   
    24   11  126 1    
    25   12   13 ar   
    26   12  137 1    
    27   13   14 ar   
    28   13   15 1    
    29   14  138 1    
    30   15   16 1    
    31   15  139 1    
    32   15  140 1    
    33   16   17 1    
    34   17   18 1    
    35   17  141 1    
    36   17  142 1    
    37   18   19 1    
    38   18   67 1    
    39   18  143 1    
    40   19   20 am   BACKBONE|DICT|INTERRES
    41   19  144 1    
    42   20   21 2    
    43   20   22 1    
    44   22   23 1    
    45   22   24 1    
    46   22  145 1    
    47   23  146 1    
    48   23  147 1    
    49   23  148 1    
    50   24   25 am   BACKBONE|DICT|INTERRES
    51   24  149 1    
    52   25   26 2    
    53   25   27 1    
    54   27   28 1    
    55   27   29 1    
    56   27  150 1    
    57   28  151 1    
    58   28  152 1    
    59   28  153 1    
    60   29   30 am   BACKBONE|DICT|INTERRES
    61   29  154 1    
    62   30   31 2    
    63   30   32 1    
    64   32   33 1    
    65   32   34 1    
    66   32  155 1    
    67   33  156 1    
    68   33  157 1    
    69   33  158 1    
    70   34   35 am   BACKBONE|DICT|INTERRES
    71   34  159 1    
    72   35   36 2    
    73   35   37 1    
    74   37   38 1    
    75   37   39 1    
    76   37  160 1    
    77   38  161 1    
    78   38  162 1    
    79   38  163 1    
    80   39   40 am   BACKBONE|DICT|INTERRES
    81   39  164 1    
    82   40   41 2    
    83   40   42 1    
    84   42   43 1    
    85   42   44 1    
    86   42  165 1    
    87   43  166 1    
    88   43  167 1    
    89   43  168 1    
    90   44   45 am   BACKBONE|DICT|INTERRES
    91   44  169 1    
    92   45   46 2    
    93   45   47 1    
    94   47   48 1    
    95   47   49 1    
    96   47  170 1    
    97   48  171 1    
    98   48  172 1    
    99   48  173 1    
   100   49   50 am   BACKBONE|DICT|INTERRES
   101   49  174 1    
   102   50   51 2    
   103   50   52 1    
   104   52   53 1    
   105   52   54 1    
   106   52  175 1    
   107   53  176 1    
   108   53  177 1    
   109   53  178 1    
   110   54   55 am   BACKBONE|DICT|INTERRES
   111   54  179 1    
   112   55   56 2    
   113   55   57 1    
   114   57   58 1    
   115   57   59 1    
   116   57  180 1    
   117   58  181 1    
   118   58  182 1    
   119   58  183 1    
   120   59   60 am   BACKBONE|DICT|INTERRES
   121   59  184 1    
   122   60   61 2    
   123   60   62 1    
   124   62   63 1    
   125   62   64 1    
   126   62  185 1    
   127   63  186 1    
   128   63  187 1    
   129   63  188 1    
   130   64   65 am   BACKBONE|DICT|INTERRES
   131   64  189 1    
   132   65   66 2    
   133   67   68 2    
   134   67   69 am   BACKBONE|DICT|INTERRES
   135   69   70 1    
   136   69  190 1    
   137   70   71 1    
   138   70   72 1    
   139   70  191 1    
   140   71  192 1    
   141   71  193 1    
   142   71  194 1    
   143   72   73 2    
   144   72   74 am   BACKBONE|DICT|INTERRES
   145   74   75 1    
   146   74  195 1    
   147   75   76 1    
   148   75   77 1    
   149   75  196 1    
   150   76  197 1    
   151   76  198 1    
   152   76  199 1    
   153   77   78 2    
   154   77   79 am   BACKBONE|DICT|INTERRES
   155   79   80 1    
   156   79  200 1    
   157   80   81 1    
   158   80   82 1    
   159   80  201 1    
   160   81  202 1    
   161   81  203 1    
   162   81  204 1    
   163   82   83 2    
   164   82   84 am   BACKBONE|DICT|INTERRES
   165   84   85 1    
   166   84  205 1    
   167   85   86 1    
   168   85   87 1    
   169   85  206 1    
   170   86  207 1    
   171   86  208 1    
   172   86  209 1    
   173   87   88 2    
   174   87   89 am   BACKBONE|DICT|INTERRES
   175   89   90 1    
   176   89  210 1    
   177   90   91 1    
   178   90   92 1    
   179   90  211 1    
   180   91  212 1    
   181   91  213 1    
   182   91  214 1    
   183   92   93 2    
   184   92   94 am   BACKBONE|DICT|INTERRES
   185   94   95 1    
   186   94  215 1    
   187   95   96 1    
   188   95   97 1    
   189   95  216 1    
   190   96  217 1    
   191   96  218 1    
   192   96  219 1    
   193   97   98 2    
   194   97   99 am   BACKBONE|DICT|INTERRES
   195   99  100 1    
   196   99  220 1    
   197  100  101 1    
   198  100  102 1    
   199  100  221 1    
   200  101  222 1    
   201  101  223 1    
   202  101  224 1    
   203  102  103 2    
   204  102  104 am   BACKBONE|DICT|INTERRES
   205  104  105 1    
   206  104  225 1    
   207  105  106 1    
   208  105  107 1    
   209  105  226 1    
   210  106  227 1    
   211  106  228 1    
   212  106  229 1    
   213  107  108 2    
   214  107  109 am   BACKBONE|DICT|INTERRES
   215  109  110 1    
   216  109  230 1    
   217  110  111 1    
   218  110  112 1    
   219  110  231 1    
   220  111  232 1    
   221  111  233 1    
   222  111  234 1    
   223  112  113 2    
   224  112  114 am   BACKBONE|DICT|INTERRES
   225  114  115 1    
   226  114  235 1    
   227  115  116 1    
   228  115  117 1    
   229  115  236 1    
   230  116  237 1    
   231  116  238 1    
   232  116  239 1    
   233  117  118 2    
   234  117  119 am   BACKBONE|DICT|INTERRES
   235  119  120 1    
   236  119  240 1    
   237  120  121 1    
   238  120  124 1    
   239  120  241 1    
   240  121  122 am   BACKBONE|DICT|INTERRES
   241  121  123 2    
   242  122  242 1    
   243  122  243 1    
   244  124  125 1    
   245  124  244 1    
   246  124  245 1    
   247  125  126 1    
   248  126  246 1    
   249  126  247 1    
@<TRIPOS>SUBSTRUCTURE
     1 UNK         1 GROUP             0       ****    0 ROOT    
