@<TRIPOS>MOLECULE
3R540
247   249    1
SMALL
USER_CHARGES


@<TRIPOS>ATOM
      1 CA          4.2023   -9.7420  -46.2426 C.3       0 UNK        -0.1800 
      2 C           4.3814  -11.1986  -46.6457 C.2       0 UNK         0.5000 
      3 O           5.5065  -11.6372  -46.8837 O.2       0 UNK        -0.5000 
      4 N           3.2760  -11.9470  -46.7145 N.am      1 UNK        -0.5000 
      5 CA          3.2470  -13.3917  -46.9543 C.3       1 UNK         0.1400 
      6 C6          1.8795  -13.8129  -47.5427 C.3       23 UNK        -0.0398 
      7 S7          1.7620  -15.5814  -47.9728 S.3       23 UNK        -0.2404 
      8 C8          0.7663  -15.5059  -49.4990 C.3       23 UNK        -0.0205 
      9 C9          0.2357  -16.8651  -49.9490 C.ar      23 UNK        -0.0193 
     10 C10        -1.0425  -16.9553  -50.5084 C.ar      23 UNK        -0.1150 
     11 C11        -1.5449  -18.1829  -50.9507 C.ar      23 UNK        -0.0193 
     12 C12        -0.7722  -19.3387  -50.7990 C.ar      23 UNK        -0.1150 
     13 C13         0.5116  -19.2629  -50.2523 C.ar      23 UNK        -0.0193 
     14 C14         1.0127  -18.0241  -49.8444 C.ar      23 UNK        -0.1150 
     15 C15         1.3777  -20.5074  -50.1254 C.3       23 UNK        -0.0205 
     16 S16         1.7203  -20.9184  -48.3853 S.3       23 UNK        -0.2404 
     17 C17         0.1043  -21.5508  -47.8283 C.3       23 UNK        -0.0398 
     18 CA          0.2103  -22.9880  -47.2683 C.3       11 UNK         0.1400 
     19 N           1.1301  -23.0865  -46.1323 N.am      11 UNK        -0.5000 
     20 C           1.6116  -24.2326  -45.6333 C.2       10 UNK         0.5000 
     21 O           1.3473  -25.3421  -46.0937 O.2       10 UNK        -0.5000 
     22 CA          2.4954  -24.1185  -44.3776 C.3       10 UNK         0.1400 
     23 CB          3.9433  -23.7826  -44.7642 C.3       10 UNK        -0.1800 
     24 N           1.9980  -23.1127  -43.4372 N.am      10 UNK        -0.5000 
     25 C           0.8330  -23.2022  -42.7796 C.2       9 UNK         0.5000 
     26 O           0.0883  -24.1795  -42.8442 O.2       9 UNK        -0.5000 
     27 CA          0.4003  -21.9703  -41.9606 C.3       9 UNK         0.1400 
     28 CB          0.9382  -22.0617  -40.5252 C.3       9 UNK        -0.1800 
     29 N           0.8177  -20.6964  -42.5568 N.am      9 UNK        -0.5000 
     30 C           0.4360  -20.2572  -43.7640 C.2       8 UNK         0.5000 
     31 O          -0.3080  -20.8935  -44.5140 O.2       8 UNK        -0.5000 
     32 CA          1.0524  -18.9231  -44.2251 C.3       8 UNK         0.1400 
     33 CB          2.5044  -19.1371  -44.6833 C.3       8 UNK        -0.1800 
     34 N           0.3142  -18.3024  -45.3238 N.am      8 UNK        -0.5000 
     35 C          -0.9015  -17.7534  -45.2207 C.2       7 UNK         0.5000 
     36 O          -1.5578  -17.7137  -44.1764 O.2       7 UNK        -0.5000 
     37 CA         -1.4811  -17.1611  -46.5206 C.3       7 UNK         0.1400 
     38 CB         -2.3585  -18.1938  -47.2420 C.3       7 UNK        -0.1800 
     39 N          -2.2647  -15.9429  -46.3094 N.am      7 UNK        -0.5000 
     40 C          -1.8058  -14.8081  -45.7658 C.2       6 UNK         0.5000 
     41 O          -0.6675  -14.6625  -45.3165 O.2       6 UNK        -0.5000 
     42 CA         -2.8075  -13.6390  -45.7009 C.3       6 UNK         0.1400 
     43 CB         -3.5617  -13.6533  -44.3622 C.3       6 UNK        -0.1800 
     44 N          -2.1556  -12.3387  -45.8571 N.am      6 UNK        -0.5000 
     45 C          -1.5135  -11.9132  -46.9547 C.2       5 UNK         0.5000 
     46 O          -1.4633  -12.5505  -48.0072 O.2       5 UNK        -0.5000 
     47 CA         -0.8156  -10.5379  -46.8734 C.3       5 UNK         0.1400 
     48 CB         -1.6080   -9.4847  -47.6633 C.3       5 UNK        -0.1800 
     49 N          -0.6282  -10.0557  -45.5008 N.am      5 UNK        -0.5000 
     50 C           0.2757  -10.5438  -44.6436 C.2       4 UNK         0.5000 
     51 O           1.0891  -11.4238  -44.9428 O.2       4 UNK        -0.5000 
     52 CA          0.2266   -9.9780  -43.2108 C.3       4 UNK         0.1400 
     53 CB         -0.9981  -10.5280  -42.4615 C.3       4 UNK        -0.1800 
     54 N           1.4235  -10.3575  -42.4691 N.am      4 UNK        -0.5000 
     55 C           2.6219   -9.7759  -42.5763 C.2       3 UNK         0.5000 
     56 O           2.8132   -8.6995  -43.1427 O.2       3 UNK        -0.5000 
     57 CA          3.8190  -10.5677  -42.0133 C.3       3 UNK         0.1400 
     58 CB          3.8858  -10.4980  -40.4753 C.3       3 UNK        -0.1800 
     59 N           3.8597  -11.9502  -42.5161 N.am      3 UNK        -0.5000 
     60 C           3.0266  -12.9698  -42.2536 C.2       2 UNK         0.5000 
     61 O           2.1306  -12.9307  -41.4086 O.2       2 UNK        -0.5000 
     62 CA          3.1598  -14.1793  -43.1882 C.3       2 UNK         0.1400 
     63 CB          2.1585  -15.3097  -42.8877 C.3       2 UNK        -0.1800 
     64 N           2.9524  -13.6936  -44.5471 N.am      2 UNK        -0.5000 
     65 C           3.5790  -14.1350  -45.6424 C.2       1 UNK         0.5000 
     66 O           4.4125  -15.0422  -45.6386 O.2       1 UNK        -0.5000 
     67 C          -1.1837  -23.5271  -46.9033 C.2       11 UNK         0.5000 
     68 O          -1.8251  -24.1529  -47.7465 O.2       11 UNK        -0.5000 
     69 N          -1.6234  -23.2954  -45.6590 N.am      12 UNK        -0.5000 
     70 CA         -2.8576  -23.8502  -45.1053 C.3       12 UNK         0.1400 
     71 CB         -3.1889  -23.1615  -43.7736 C.3       12 UNK        -0.1800 
     72 C          -2.7868  -25.3795  -44.9508 C.2       12 UNK         0.5000 
     73 O          -3.7241  -26.0688  -45.3522 O.2       12 UNK        -0.5000 
     74 N          -1.6607  -25.8844  -44.4264 N.am      13 UNK        -0.5000 
     75 CA         -1.3758  -27.3138  -44.2747 C.3       13 UNK         0.1400 
     76 CB         -0.0882  -27.4950  -43.4569 C.3       13 UNK        -0.1800 
     77 C          -1.2764  -28.0572  -45.6209 C.2       13 UNK         0.5000 
     78 O          -1.7785  -29.1756  -45.7367 O.2       13 UNK        -0.5000 
     79 N          -0.6606  -27.4113  -46.6206 N.am      14 UNK        -0.5000 
     80 CA         -0.5447  -27.9084  -47.9941 C.3       14 UNK         0.1400 
     81 CB          0.5768  -27.1323  -48.7035 C.3       14 UNK        -0.1800 
     82 C          -1.8521  -27.8025  -48.8066 C.2       14 UNK         0.5000 
     83 O          -1.9314  -28.3872  -49.8873 O.2       14 UNK        -0.5000 
     84 N          -2.8275  -27.0334  -48.2986 N.am      15 UNK        -0.5000 
     85 CA         -4.0970  -26.6503  -48.9294 C.3       15 UNK         0.1400 
     86 CB         -4.9801  -27.8800  -49.2231 C.3       15 UNK        -0.1800 
     87 C          -3.9225  -25.7302  -50.1583 C.2       15 UNK         0.5000 
     88 O          -4.8536  -25.5744  -50.9487 O.2       15 UNK        -0.5000 
     89 N          -2.7519  -25.0893  -50.2710 N.am      16 UNK        -0.5000 
     90 CA         -2.4371  -24.0670  -51.2668 C.3       16 UNK         0.1400 
     91 CB         -0.9177  -23.8448  -51.2993 C.3       16 UNK        -0.1800 
     92 C          -3.1687  -22.7466  -50.9750 C.2       16 UNK         0.5000 
     93 O          -3.5359  -22.0389  -51.9092 O.2       16 UNK        -0.5000 
     94 N          -3.4082  -22.4606  -49.6862 N.am      17 UNK        -0.5000 
     95 CA         -4.1668  -21.3002  -49.2105 C.3       17 UNK         0.1400 
     96 CB         -4.0817  -21.2427  -47.6793 C.3       17 UNK        -0.1800 
     97 C          -5.6464  -21.3074  -49.6458 C.2       17 UNK         0.5000 
     98 O          -6.2533  -20.2414  -49.7462 O.2       17 UNK        -0.5000 
     99 N          -6.2007  -22.5057  -49.8778 N.am      18 UNK        -0.5000 
    100 CA        -7.5868  -22.7152  -50.2936 C.3       18 UNK         0.1400 
    101 CB        -8.0078  -24.1435  -49.9132 C.3       18 UNK        -0.1800 
    102 C         -7.8134  -22.4669  -51.7972 C.2       18 UNK         0.5000 
    103 O         -8.9573  -22.2512  -52.2006 O.2       18 UNK        -0.5000 
    104 N         -6.7434  -22.5094  -52.6029 N.am      19 UNK        -0.5000 
    105 CA        -6.7889  -22.2389  -54.0367 C.3       19 UNK         0.1400 
    106 CB        -5.5704  -22.8865  -54.7139 C.3       19 UNK        -0.1800 
    107 C         -6.8063  -20.7238  -54.2894 C.2       19 UNK         0.5000 
    108 O         -5.9813  -20.0058  -53.7228 O.2       19 UNK        -0.5000 
    109 N         -7.7047  -20.2657  -55.1709 N.am      20 UNK        -0.5000 
    110 CA        -7.8377  -18.8560  -55.5593 C.3       20 UNK         0.1400 
    111 CB        -9.1196  -18.6795  -56.3875 C.3       20 UNK        -0.1800 
    112 C         -6.6158  -18.3188  -56.3315 C.2       20 UNK         0.5000 
    113 O         -6.2989  -17.1337  -56.2268 O.2       20 UNK        -0.5000 
    114 N         -5.9433  -19.2106  -57.0708 N.am      21 UNK        -0.5000 
    115 CA        -4.6908  -18.9446  -57.7801 C.3       21 UNK         0.1400 
    116 CB        -4.6394  -19.8471  -59.0242 C.3       21 UNK        -0.1800 
    117 C         -3.4433  -19.1663  -56.8979 C.2       21 UNK         0.5000 
    118 O         -2.3332  -18.8986  -57.3587 O.2       21 UNK        -0.5000 
    119 N         -3.6352  -19.6709  -55.6699 N.am      22 UNK        -0.5000 
    120 CA        -2.5954  -20.0116  -54.6820 C.3       22 UNK         0.1400 
    121 C         -1.6644  -21.1993  -55.0794 C.2       22 UNK         0.5000 
    122 N         -2.0119  -22.0117  -56.0706 N.am      22 UNK        -0.7600 
    123 O         -0.6243  -21.4143  -54.4634 O.2       22 UNK        -0.5000 
    124 C124       -1.8106  -18.7720  -54.1699 C.3       23 UNK        -0.0398 
    125 S125       -2.8873  -17.5733  -53.3084 S.3       23 UNK        -0.2404 
    126 C126       -2.9126  -18.2517  -51.6153 C.3       23 UNK        -0.0205 
    127 H127        3.1562   -9.5000  -46.0513 H         1 UNK         0.0600 
    128 H128        4.5644   -9.0853  -47.0335 H         1 UNK         0.0600 
    129 H129        4.7684   -9.5310  -45.3354 H         1 UNK         0.0600 
    130 H130        2.3971  -11.5449  -46.4053 H         1 UNK         0.3000 
    131 H131        4.0185  -13.6411  -47.6863 H         1 UNK         0.0600 
    132 H132        1.6807  -13.2230  -48.4385 H         1 UNK         0.0800 
    133 H133        1.0751  -13.5741  -46.8476 H         1 UNK         0.0800 
    134 H134       -0.0684  -14.8230  -49.3288 H         1 UNK         0.0800 
    135 H135        1.3679  -15.0767  -50.3010 H         1 UNK         0.0800 
    136 H136       -1.6443  -16.0644  -50.6218 H         1 UNK         0.1150 
    137 H137       -1.1587  -20.2901  -51.1371 H         1 UNK         0.1150 
    138 H138        2.0122  -17.9702  -49.4367 H         1 UNK         0.1150 
    139 H139        0.9188  -21.3627  -50.6232 H         1 UNK         0.0800 
    140 H140        2.3250  -20.3299  -50.6363 H         1 UNK         0.0800 
    141 H141       -0.6032  -21.5167  -48.6585 H         1 UNK         0.0800 
    142 H142       -0.2842  -20.8658  -47.0754 H         1 UNK         0.0800 
    143 H143        0.6003  -23.6273  -48.0631 H         1 UNK         0.0600 
    144 H144        1.3563  -22.2192  -45.6692 H         1 UNK         0.3000 
    145 H145        2.4898  -25.0879  -43.8750 H         1 UNK         0.0600 
    146 H146        4.5922  -23.7693  -43.8884 H         1 UNK         0.0600 
    147 H147        4.3448  -24.5264  -45.4538 H         1 UNK         0.0600 
    148 H148        4.0165  -22.8095  -45.2519 H         1 UNK         0.0600 
    149 H149        2.5535  -22.2784  -43.3219 H         1 UNK         0.3000 
    150 H150       -0.6906  -21.9726  -41.9164 H         1 UNK         0.0600 
    151 H151        2.0283  -22.0320  -40.5000 H         1 UNK         0.0600 
    152 H152        0.6240  -22.9917  -40.0494 H         1 UNK         0.0600 
    153 H153        0.5648  -21.2423  -39.9108 H         1 UNK         0.0600 
    154 H154        1.4391  -20.1259  -42.0017 H         1 UNK         0.3000 
    155 H155        1.0450  -18.2344  -43.3781 H         1 UNK         0.0600 
    156 H156        2.5638  -19.8310  -45.5228 H         1 UNK         0.0600 
    157 H157        3.1193  -19.5416  -43.8786 H         1 UNK         0.0600 
    158 H158        2.9622  -18.1977  -44.9952 H         1 UNK         0.0600 
    159 H159        0.7688  -18.3124  -46.2249 H         1 UNK         0.3000 
    160 H160       -0.6551  -16.9000  -47.1807 H         1 UNK         0.0600 
    161 H161       -1.7770  -19.0737  -47.5152 H         1 UNK         0.0600 
    162 H162       -2.7770  -17.7890  -48.1634 H         1 UNK         0.0600 
    163 H163       -3.1850  -18.5219  -46.6111 H         1 UNK         0.0600 
    164 H164       -3.2267  -15.9807  -46.6109 H         1 UNK         0.3000 
    165 H165       -3.5300  -13.7497  -46.5122 H         1 UNK         0.0600 
    166 H166       -4.3092  -12.8609  -44.3201 H         1 UNK         0.0600 
    167 H167       -4.0839  -14.6000  -44.2174 H         1 UNK         0.0600 
    168 H168       -2.8830  -13.5216  -43.5183 H         1 UNK         0.0600 
    169 H169       -2.1185  -11.7565  -45.0355 H         1 UNK         0.3000 
    170 H170        0.1658  -10.6445  -47.3405 H         1 UNK         0.0600 
    171 H171       -1.0895   -8.5258  -47.6725 H         1 UNK         0.0600 
    172 H172       -1.7388   -9.7910  -48.7020 H         1 UNK         0.0600 
    173 H173       -2.6008   -9.3270  -47.2402 H         1 UNK         0.0600 
    174 H174       -1.2605   -9.3316  -45.1904 H         1 UNK         0.3000 
    175 H175        0.1598   -8.8893  -43.2615 H         1 UNK         0.0600 
    176 H176       -1.9285  -10.2275  -42.9446 H         1 UNK         0.0600 
    177 H177       -0.9862  -11.6183  -42.4174 H         1 UNK         0.0600 
    178 H178       -1.0327  -10.1539  -41.4380 H         1 UNK         0.0600 
    179 H179        1.4015  -11.2682  -42.0196 H         1 UNK         0.3000 
    180 H180        4.7210  -10.0889  -42.3978 H         1 UNK         0.0600 
    181 H181        2.9906  -10.9022  -40.0027 H         1 UNK         0.0600 
    182 H182        3.9870   -9.4648  -40.1414 H         1 UNK         0.0600 
    183 H183        4.7452  -11.0489  -40.0933 H         1 UNK         0.0600 
    184 H184        4.5278  -12.0997  -43.2593 H         1 UNK         0.3000 
    185 H185        4.1741  -14.5674  -43.0747 H         1 UNK         0.0600 
    186 H186        2.2828  -15.6861  -41.8719 H         1 UNK         0.0600 
    187 H187        1.1265  -14.9720  -42.9949 H         1 UNK         0.0600 
    188 H188        2.3042  -16.1475  -43.5685 H         1 UNK         0.0600 
    189 H189        2.2883  -12.9282  -44.6404 H         1 UNK         0.3000 
    190 H190       -1.0676  -22.7032  -45.0509 H         1 UNK         0.3000 
    191 H191       -3.6673  -23.6342  -45.8025 H         1 UNK         0.0600 
    192 H192       -3.2553  -22.0801  -43.8956 H         1 UNK         0.0600 
    193 H193       -4.1487  -23.5062  -43.3872 H         1 UNK         0.0600 
    194 H194       -2.4383  -23.3669  -43.0115 H         1 UNK         0.0600 
    195 H195       -0.9577  -25.2425  -44.0704 H         1 UNK         0.3000 
    196 H196       -2.1997  -27.7580  -43.7122 H         1 UNK         0.0600 
    197 H197        0.1345  -28.5521  -43.3068 H         1 UNK         0.0600 
    198 H198       -0.1801  -27.0385  -42.4712 H         1 UNK         0.0600 
    199 H199        0.7714  -27.0451  -43.9542 H         1 UNK         0.0600 
    200 H200       -0.1988  -26.5292  -46.4193 H         1 UNK         0.3000 
    201 H201       -0.2634  -28.9629  -47.9601 H         1 UNK         0.0600 
    202 H202        0.7225  -27.4925  -49.7226 H         1 UNK         0.0600 
    203 H203        1.5269  -27.2469  -48.1814 H         1 UNK         0.0600 
    204 H204        0.3526  -26.0665  -48.7608 H         1 UNK         0.0600 
    205 H205       -2.6506  -26.5967  -47.4032 H         1 UNK         0.3000 
    206 H206       -4.6198  -26.0478  -48.1852 H         1 UNK         0.0600 
    207 H207       -5.0833  -28.5107  -48.3401 H         1 UNK         0.0600 
    208 H208       -5.9838  -27.5763  -49.5226 H         1 UNK         0.0600 
    209 H209       -4.5730  -28.4914  -50.0286 H         1 UNK         0.0600 
    210 H210       -2.0901  -25.1994  -49.5124 H         1 UNK         0.3000 
    211 H211       -2.7583  -24.4223  -52.2483 H         1 UNK         0.0600 
    212 H212       -0.5387  -23.5023  -50.3365 H         1 UNK         0.0600 
    213 H213       -0.6495  -23.0948  -52.0450 H         1 UNK         0.0600 
    214 H214       -0.3912  -24.7635  -51.5583 H         1 UNK         0.0600 
    215 H215       -3.0581  -23.1020  -48.9831 H         1 UNK         0.3000 
    216 H216       -3.7002  -20.4005  -49.6140 H         1 UNK         0.0600 
    217 H217       -4.5960  -20.3616  -47.2942 H         1 UNK         0.0600 
    218 H218       -3.0497  -21.1938  -47.3346 H         1 UNK         0.0600 
    219 H219       -4.5532  -22.1131  -47.2247 H         1 UNK         0.0600 
    220 H220       -5.6245  -23.3303  -49.7960 H         1 UNK         0.3000 
    221 H221       -8.2253  -22.0186  -49.7460 H         1 UNK         0.0600 
    222 H222       -7.4234  -24.8927  -50.4481 H         1 UNK         0.0600 
    223 H223       -7.8858  -24.3213  -48.8446 H         1 UNK         0.0600 
    224 H224       -9.0577  -24.3171  -50.1527 H         1 UNK         0.0600 
    225 H225       -5.8244  -22.6072  -52.1927 H         1 UNK         0.3000 
    226 H226       -7.6911  -22.6879  -54.4578 H         1 UNK         0.0600 
    227 H227       -5.5903  -22.7256  -55.7924 H         1 UNK         0.0600 
    228 H228       -4.6325  -22.4767  -54.3386 H         1 UNK         0.0600 
    229 H229       -5.5529  -23.9635  -54.5458 H         1 UNK         0.0600 
    230 H230       -8.3531  -20.9130  -55.5965 H         1 UNK         0.3000 
    231 H231       -7.9361  -18.2631  -54.6473 H         1 UNK         0.0600 
    232 H232       -9.0912  -19.2683  -57.3052 H         1 UNK         0.0600 
    233 H233       -9.2601  -17.6357  -56.6716 H         1 UNK         0.0600 
    234 H234      -10.0005  -18.9815  -55.8207 H         1 UNK         0.0600 
    235 H235       -6.2911  -20.1574  -57.1083 H         1 UNK         0.3000 
    236 H236       -4.6744  -17.9048  -58.1134 H         1 UNK         0.0600 
    237 H237       -5.4941  -19.6671  -59.6767 H         1 UNK         0.0600 
    238 H238       -3.7403  -19.6561  -59.6116 H         1 UNK         0.0600 
    239 H239       -4.6381  -20.9043  -58.7563 H         1 UNK         0.0600 
    240 H240       -4.5834  -19.7999  -55.3420 H         1 UNK         0.3000 
    241 H241       -3.1506  -20.4007  -53.8309 H         1 UNK         0.0600 
    242 H242       -2.8591  -21.8564  -56.5907 H         1 UNK         0.3800 
    243 H243       -1.4072  -22.7806  -56.3127 H         1 UNK         0.3800 
    244 H244       -1.0055  -19.0639  -53.4972 H         1 UNK         0.0800 
    245 H245       -1.3191  -18.2610  -54.9979 H         1 UNK         0.0800 
    246 H246       -3.6333  -17.6910  -51.0184 H         1 UNK         0.0800 
    247 H247       -3.2797  -19.2779  -51.6508 H         1 UNK         0.0800 
@<TRIPOS>BOND
     1    1    2 1    
     2    1  127 1    
     3    1  128 1    
     4    1  129 1    
     5    2    3 2    
     6    2    4 am   BACKBONE|DICT|INTERRES
     7    4    5 1    
     8    4  130 1    
     9    5    6 1    
    10    5   65 1    
    11    5  131 1    
    12    6    7 1    
    13    6  132 1    
    14    6  133 1    
    15    7    8 1    
    16    8    9 1    
    17    8  134 1    
    18    8  135 1    
    19    9   10 ar   
    20    9   14 ar   
    21   10   11 ar   
    22   10  136 1    
    23   11   12 ar   
    24   11  126 1    
    25   12   13 ar   
    26   12  137 1    
    27   13   14 ar   
    28   13   15 1    
    29   14  138 1    
    30   15   16 1    
    31   15  139 1    
    32   15  140 1    
    33   16   17 1    
    34   17   18 1    
    35   17  141 1    
    36   17  142 1    
    37   18   19 1    
    38   18   67 1    
    39   18  143 1    
    40   19   20 am   BACKBONE|DICT|INTERRES
    41   19  144 1    
    42   20   21 2    
    43   20   22 1    
    44   22   23 1    
    45   22   24 1    
    46   22  145 1    
    47   23  146 1    
    48   23  147 1    
    49   23  148 1    
    50   24   25 am   BACKBONE|DICT|INTERRES
    51   24  149 1    
    52   25   26 2    
    53   25   27 1    
    54   27   28 1    
    55   27   29 1    
    56   27  150 1    
    57   28  151 1    
    58   28  152 1    
    59   28  153 1    
    60   29   30 am   BACKBONE|DICT|INTERRES
    61   29  154 1    
    62   30   31 2    
    63   30   32 1    
    64   32   33 1    
    65   32   34 1    
    66   32  155 1    
    67   33  156 1    
    68   33  157 1    
    69   33  158 1    
    70   34   35 am   BACKBONE|DICT|INTERRES
    71   34  159 1    
    72   35   36 2    
    73   35   37 1    
    74   37   38 1    
    75   37   39 1    
    76   37  160 1    
    77   38  161 1    
    78   38  162 1    
    79   38  163 1    
    80   39   40 am   BACKBONE|DICT|INTERRES
    81   39  164 1    
    82   40   41 2    
    83   40   42 1    
    84   42   43 1    
    85   42   44 1    
    86   42  165 1    
    87   43  166 1    
    88   43  167 1    
    89   43  168 1    
    90   44   45 am   BACKBONE|DICT|INTERRES
    91   44  169 1    
    92   45   46 2    
    93   45   47 1    
    94   47   48 1    
    95   47   49 1    
    96   47  170 1    
    97   48  171 1    
    98   48  172 1    
    99   48  173 1    
   100   49   50 am   BACKBONE|DICT|INTERRES
   101   49  174 1    
   102   50   51 2    
   103   50   52 1    
   104   52   53 1    
   105   52   54 1    
   106   52  175 1    
   107   53  176 1    
   108   53  177 1    
   109   53  178 1    
   110   54   55 am   BACKBONE|DICT|INTERRES
   111   54  179 1    
   112   55   56 2    
   113   55   57 1    
   114   57   58 1    
   115   57   59 1    
   116   57  180 1    
   117   58  181 1    
   118   58  182 1    
   119   58  183 1    
   120   59   60 am   BACKBONE|DICT|INTERRES
   121   59  184 1    
   122   60   61 2    
   123   60   62 1    
   124   62   63 1    
   125   62   64 1    
   126   62  185 1    
   127   63  186 1    
   128   63  187 1    
   129   63  188 1    
   130   64   65 am   BACKBONE|DICT|INTERRES
   131   64  189 1    
   132   65   66 2    
   133   67   68 2    
   134   67   69 am   BACKBONE|DICT|INTERRES
   135   69   70 1    
   136   69  190 1    
   137   70   71 1    
   138   70   72 1    
   139   70  191 1    
   140   71  192 1    
   141   71  193 1    
   142   71  194 1    
   143   72   73 2    
   144   72   74 am   BACKBONE|DICT|INTERRES
   145   74   75 1    
   146   74  195 1    
   147   75   76 1    
   148   75   77 1    
   149   75  196 1    
   150   76  197 1    
   151   76  198 1    
   152   76  199 1    
   153   77   78 2    
   154   77   79 am   BACKBONE|DICT|INTERRES
   155   79   80 1    
   156   79  200 1    
   157   80   81 1    
   158   80   82 1    
   159   80  201 1    
   160   81  202 1    
   161   81  203 1    
   162   81  204 1    
   163   82   83 2    
   164   82   84 am   BACKBONE|DICT|INTERRES
   165   84   85 1    
   166   84  205 1    
   167   85   86 1    
   168   85   87 1    
   169   85  206 1    
   170   86  207 1    
   171   86  208 1    
   172   86  209 1    
   173   87   88 2    
   174   87   89 am   BACKBONE|DICT|INTERRES
   175   89   90 1    
   176   89  210 1    
   177   90   91 1    
   178   90   92 1    
   179   90  211 1    
   180   91  212 1    
   181   91  213 1    
   182   91  214 1    
   183   92   93 2    
   184   92   94 am   BACKBONE|DICT|INTERRES
   185   94   95 1    
   186   94  215 1    
   187   95   96 1    
   188   95   97 1    
   189   95  216 1    
   190   96  217 1    
   191   96  218 1    
   192   96  219 1    
   193   97   98 2    
   194   97   99 am   BACKBONE|DICT|INTERRES
   195   99  100 1    
   196   99  220 1    
   197  100  101 1    
   198  100  102 1    
   199  100  221 1    
   200  101  222 1    
   201  101  223 1    
   202  101  224 1    
   203  102  103 2    
   204  102  104 am   BACKBONE|DICT|INTERRES
   205  104  105 1    
   206  104  225 1    
   207  105  106 1    
   208  105  107 1    
   209  105  226 1    
   210  106  227 1    
   211  106  228 1    
   212  106  229 1    
   213  107  108 2    
   214  107  109 am   BACKBONE|DICT|INTERRES
   215  109  110 1    
   216  109  230 1    
   217  110  111 1    
   218  110  112 1    
   219  110  231 1    
   220  111  232 1    
   221  111  233 1    
   222  111  234 1    
   223  112  113 2    
   224  112  114 am   BACKBONE|DICT|INTERRES
   225  114  115 1    
   226  114  235 1    
   227  115  116 1    
   228  115  117 1    
   229  115  236 1    
   230  116  237 1    
   231  116  238 1    
   232  116  239 1    
   233  117  118 2    
   234  117  119 am   BACKBONE|DICT|INTERRES
   235  119  120 1    
   236  119  240 1    
   237  120  121 1    
   238  120  124 1    
   239  120  241 1    
   240  121  122 am   BACKBONE|DICT|INTERRES
   241  121  123 2    
   242  122  242 1    
   243  122  243 1    
   244  124  125 1    
   245  124  244 1    
   246  124  245 1    
   247  125  126 1    
   248  126  246 1    
   249  126  247 1    
@<TRIPOS>SUBSTRUCTURE
     1 UNK         1 GROUP             0       ****    0 ROOT    
