@<TRIPOS>MOLECULE
3R540
247   249    1
SMALL
USER_CHARGES


@<TRIPOS>ATOM
      1 CA         -0.1745  -11.4008  -53.0502 C.3       0 UNK        -0.1800 
      2 C          -0.2987  -11.8303  -51.5954 C.2       0 UNK         0.5000 
      3 O           0.5694  -11.5080  -50.7829 O.2       0 UNK        -0.5000 
      4 N          -1.3762  -12.5488  -51.2591 N.am      1 UNK        -0.5000 
      5 CA         -1.6623  -13.1003  -49.9288 C.3       1 UNK         0.1400 
      6 C6         -2.5828  -14.3439  -50.0046 C.3       23 UNK        -0.0398 
      7 S7         -1.7879  -15.6997  -50.9251 S.3       23 UNK        -0.2404 
      8 C8         -1.1948  -16.7369  -49.5456 C.3       23 UNK        -0.0205 
      9 C9         -0.2068  -17.8254  -49.9554 C.ar      23 UNK        -0.0193 
     10 C10        -0.2522  -18.4237  -51.2186 C.ar      23 UNK        -0.1150 
     11 C11         0.6915  -19.3829  -51.5907 C.ar      23 UNK        -0.0193 
     12 C12         1.6529  -19.7969  -50.6654 C.ar      23 UNK        -0.1150 
     13 C13         1.6794  -19.2477  -49.3799 C.ar      23 UNK        -0.0193 
     14 C14         0.7599  -18.2507  -49.0392 C.ar      23 UNK        -0.1150 
     15 C15         2.6974  -19.7335  -48.3574 C.3       23 UNK        -0.0205 
     16 S16         2.3341  -21.4214  -47.7707 S.3       23 UNK        -0.2404 
     17 C17         0.7254  -21.1879  -46.9465 C.3       23 UNK        -0.0398 
     18 CA          0.0659  -22.5276  -46.5607 C.3       11 UNK         0.1400 
     19 N           0.8212  -23.2269  -45.5208 N.am      11 UNK        -0.5000 
     20 C           0.5962  -24.4851  -45.1213 C.2       10 UNK         0.5000 
     21 O          -0.2632  -25.2161  -45.6100 O.2       10 UNK        -0.5000 
     22 CA          1.4397  -24.9854  -43.9356 C.3       10 UNK         0.1400 
     23 CB          2.7826  -25.5465  -44.4246 C.3       10 UNK        -0.1800 
     24 N           1.6853  -23.9368  -42.9445 N.am      10 UNK        -0.5000 
     25 C           0.7392  -23.3115  -42.2337 C.2       9 UNK         0.5000 
     26 O          -0.4600  -23.5800  -42.3159 O.2       9 UNK        -0.5000 
     27 CA          1.1967  -22.1631  -41.3192 C.3       9 UNK         0.1400 
     28 CB          1.8305  -22.6895  -40.0187 C.3       9 UNK        -0.1800 
     29 N           2.0584  -21.1799  -41.9858 N.am      9 UNK        -0.5000 
     30 C           3.3175  -21.2945  -42.4333 C.2       8 UNK         0.5000 
     31 O           3.9712  -22.3375  -42.3955 O.2       8 UNK        -0.5000 
     32 CA          3.9513  -20.0203  -43.0286 C.3       8 UNK         0.1400 
     33 CB          3.7125  -19.9527  -44.5437 C.3       8 UNK        -0.1800 
     34 N           3.4399  -18.7946  -42.4118 N.am      8 UNK        -0.5000 
     35 C           3.6862  -18.4183  -41.1482 C.2       7 UNK         0.5000 
     36 O           4.4670  -19.0031  -40.3967 O.2       7 UNK        -0.5000 
     37 CA          2.8904  -17.2095  -40.6261 C.3       7 UNK         0.1400 
     38 CB          3.5605  -15.8871  -41.0304 C.3       7 UNK        -0.1800 
     39 N           1.5072  -17.2322  -41.1057 N.am      7 UNK        -0.5000 
     40 C           0.5560  -18.0484  -40.6280 C.2       6 UNK         0.5000 
     41 O           0.7287  -18.8232  -39.6876 O.2       6 UNK        -0.5000 
     42 CA         -0.8151  -18.0104  -41.3281 C.3       6 UNK         0.1400 
     43 CB         -1.7481  -17.0073  -40.6339 C.3       6 UNK        -0.1800 
     44 N          -0.7212  -17.6702  -42.7479 N.am      6 UNK        -0.5000 
     45 C          -0.2486  -18.4867  -43.6986 C.2       5 UNK         0.5000 
     46 O           0.1410  -19.6355  -43.4907 O.2       5 UNK        -0.5000 
     47 CA         -0.1731  -17.9071  -45.1204 C.3       5 UNK         0.1400 
     48 CB         -1.5079  -18.1097  -45.8507 C.3       5 UNK        -0.1800 
     49 N           0.2036  -16.4938  -45.1567 N.am      5 UNK        -0.5000 
     50 C           1.3604  -15.9962  -44.7025 C.2       4 UNK         0.5000 
     51 O           2.2212  -16.6870  -44.1557 O.2       4 UNK        -0.5000 
     52 CA          1.5904  -14.4793  -44.8438 C.3       4 UNK         0.1400 
     53 CB          2.1976  -14.1447  -46.2196 C.3       4 UNK        -0.1800 
     54 N           0.4159  -13.6404  -44.5560 N.am      4 UNK        -0.5000 
     55 C          -0.7255  -13.5190  -45.2489 C.2       3 UNK         0.5000 
     56 O          -0.9917  -14.1839  -46.2527 O.2       3 UNK        -0.5000 
     57 CA         -1.7611  -12.4904  -44.7482 C.3       3 UNK         0.1400 
     58 CB         -1.4159  -11.8161  -43.4003 C.3       3 UNK        -0.1800 
     59 N          -2.0281  -11.5068  -45.7996 N.am      3 UNK        -0.5000 
     60 C          -1.1634  -10.6253  -46.3225 C.2       2 UNK         0.5000 
     61 O          -0.0525  -10.3768  -45.8503 O.2       2 UNK        -0.5000 
     62 CA         -1.5911   -9.9957  -47.6623 C.3       2 UNK         0.1400 
     63 CB         -0.7869   -8.7313  -48.0121 C.3       2 UNK        -0.1800 
     64 N          -1.4022  -10.9832  -48.7230 N.am      2 UNK        -0.5000 
     65 C          -2.2088  -12.0222  -48.9685 C.2       1 UNK         0.5000 
     66 O          -3.3216  -12.1467  -48.4516 O.2       1 UNK        -0.5000 
     67 C          -1.4033  -22.3083  -46.1501 C.2       11 UNK         0.5000 
     68 O          -2.2919  -22.5133  -46.9763 O.2       11 UNK        -0.5000 
     69 N          -1.6427  -21.9280  -44.8857 N.am      12 UNK        -0.5000 
     70 CA         -2.9868  -21.7817  -44.3228 C.3       12 UNK         0.1400 
     71 CB         -2.9242  -21.0596  -42.9686 C.3       12 UNK        -0.1800 
     72 C          -3.7173  -23.1293  -44.1956 C.2       12 UNK         0.5000 
     73 O          -4.9009  -23.2047  -44.5243 O.2       12 UNK        -0.5000 
     74 N          -2.9919  -24.1730  -43.7683 N.am      13 UNK        -0.5000 
     75 CA         -3.4910  -25.5469  -43.6679 C.3       13 UNK         0.1400 
     76 CB         -2.4477  -26.4196  -42.9542 C.3       13 UNK        -0.1800 
     77 C          -3.8706  -26.1504  -45.0350 C.2       13 UNK         0.5000 
     78 O          -4.8950  -26.8259  -45.1390 O.2       13 UNK        -0.5000 
     79 N          -3.0570  -25.8698  -46.0618 N.am      14 UNK        -0.5000 
     80 CA         -3.2904  -26.2686  -47.4516 C.3       14 UNK         0.1400 
     81 CB         -1.9604  -26.1804  -48.2174 C.3       14 UNK        -0.1800 
     82 C          -4.3636  -25.4239  -48.1682 C.2       14 UNK         0.5000 
     83 O          -4.8252  -25.8309  -49.2347 O.2       14 UNK        -0.5000 
     84 N          -4.7111  -24.2610  -47.5949 N.am      15 UNK        -0.5000 
     85 CA         -5.5625  -23.2062  -48.1563 C.3       15 UNK         0.1400 
     86 CB         -7.0178  -23.6892  -48.3228 C.3       15 UNK        -0.1800 
     87 C          -4.9674  -22.6191  -49.4530 C.2       15 UNK         0.5000 
     88 O          -5.6913  -22.3697  -50.4198 O.2       15 UNK        -0.5000 
     89 N          -3.6424  -22.4108  -49.4482 N.am      16 UNK        -0.5000 
     90 CA         -2.8210  -22.0209  -50.5974 C.3       16 UNK         0.1400 
     91 CB         -1.3463  -21.9951  -50.1792 C.3       16 UNK        -0.1800 
     92 C          -3.2216  -20.6855  -51.2466 C.2       16 UNK         0.5000 
     93 O          -2.9867  -20.5081  -52.4411 O.2       16 UNK        -0.5000 
     94 N          -3.8707  -19.8001  -50.4782 N.am      17 UNK        -0.5000 
     95 CA         -4.4672  -18.5493  -50.9520 C.3       17 UNK         0.1400 
     96 CB         -5.0391  -17.7818  -49.7495 C.3       17 UNK        -0.1800 
     97 C          -5.5654  -18.7495  -52.0173 C.2       17 UNK         0.5000 
     98 O          -5.7637  -17.8610  -52.8456 O.2       17 UNK        -0.5000 
     99 N          -6.2447  -19.9037  -51.9808 N.am      18 UNK        -0.5000 
    100 CA        -7.2659  -20.3035  -52.9461 C.3       18 UNK         0.1400 
    101 CB        -8.5399  -20.7069  -52.1868 C.3       18 UNK        -0.1800 
    102 C         -6.7766  -21.4662  -53.8244 C.2       18 UNK         0.5000 
    103 O         -7.0464  -21.4693  -55.0256 O.2       18 UNK        -0.5000 
    104 N         -6.0791  -22.4375  -53.2170 N.am      19 UNK        -0.5000 
    105 CA        -5.6429  -23.6756  -53.8662 C.3       19 UNK         0.1400 
    106 CB        -5.2657  -24.7034  -52.7876 C.3       19 UNK        -0.1800 
    107 C         -4.4871  -23.4918  -54.8679 C.2       19 UNK         0.5000 
    108 O         -4.3598  -24.3062  -55.7835 O.2       19 UNK        -0.5000 
    109 N         -3.6720  -22.4460  -54.6835 N.am      20 UNK        -0.5000 
    110 CA        -2.5429  -22.1066  -55.5512 C.3       20 UNK         0.1400 
    111 CB        -1.2262  -22.4342  -54.8300 C.3       20 UNK        -0.1800 
    112 C         -2.6032  -20.6381  -56.0029 C.2       20 UNK         0.5000 
    113 O         -2.3365  -20.3636  -57.1732 O.2       20 UNK        -0.5000 
    114 N         -2.9910  -19.7368  -55.0872 N.am      21 UNK        -0.5000 
    115 CA        -3.2268  -18.3036  -55.2900 C.3       21 UNK         0.1400 
    116 CB        -4.4595  -18.0797  -56.1903 C.3       21 UNK        -0.1800 
    117 C         -1.9681  -17.5560  -55.7744 C.2       21 UNK         0.5000 
    118 O         -1.9826  -16.9191  -56.8300 O.2       21 UNK        -0.5000 
    119 N         -0.8931  -17.6767  -54.9863 N.am      22 UNK        -0.5000 
    120 CA         0.4031  -17.0108  -55.1865 C.3       22 UNK         0.1400 
    121 C          0.2977  -15.4577  -55.2183 C.2       22 UNK         0.5000 
    122 N          1.0923  -14.7944  -56.0475 N.am      22 UNK        -0.7600 
    123 O         -0.4624  -14.8481  -54.4697 O.2       22 UNK        -0.5000 
    124 C124        1.4301  -17.4424  -54.1085 C.3       23 UNK        -0.0398 
    125 S125        1.8414  -19.2252  -54.1387 S.3       23 UNK        -0.2404 
    126 C126        0.6473  -19.9837  -52.9864 C.3       23 UNK        -0.0205 
    127 H127        0.7518  -11.7867  -53.4758 H         1 UNK         0.0600 
    128 H128       -1.0033  -11.7722  -53.6538 H         1 UNK         0.0600 
    129 H129       -0.1591  -10.3133  -53.1219 H         1 UNK         0.0600 
    130 H130       -2.0506  -12.7800  -51.9745 H         1 UNK         0.3000 
    131 H131       -0.7185  -13.4336  -49.4903 H         1 UNK         0.0600 
    132 H132       -2.8416  -14.7009  -49.0057 H         1 UNK         0.0800 
    133 H133       -3.5267  -14.0969  -50.4932 H         1 UNK         0.0800 
    134 H134       -2.0502  -17.2092  -49.0665 H         1 UNK         0.0800 
    135 H135       -0.7319  -16.0877  -48.7998 H         1 UNK         0.0800 
    136 H136       -1.0108  -18.1287  -51.9279 H         1 UNK         0.1150 
    137 H137        2.3712  -20.5567  -50.9396 H         1 UNK         0.1150 
    138 H138        0.7932  -17.8077  -48.0543 H         1 UNK         0.1150 
    139 H139        2.7439  -19.0581  -47.5015 H         1 UNK         0.0800 
    140 H140        3.6904  -19.7232  -48.8087 H         1 UNK         0.0800 
    141 H141        0.0750  -20.6143  -47.6068 H         1 UNK         0.0800 
    142 H142        0.8779  -20.5832  -46.0560 H         1 UNK         0.0800 
    143 H143        0.0538  -23.1681  -47.4452 H         1 UNK         0.0600 
    144 H144        1.5547  -22.7051  -45.0659 H         1 UNK         0.3000 
    145 H145        0.8867  -25.7894  -43.4463 H         1 UNK         0.0600 
    146 H146        3.3561  -25.9696  -43.5997 H         1 UNK         0.0600 
    147 H147        2.6306  -26.3413  -45.1561 H         1 UNK         0.0600 
    148 H148        3.3935  -24.7761  -44.8970 H         1 UNK         0.0600 
    149 H149        2.6449  -23.6248  -42.8194 H         1 UNK         0.3000 
    150 H150        0.2968  -21.6125  -41.0400 H         1 UNK         0.0600 
    151 H151        2.7347  -23.2687  -40.2066 H         1 UNK         0.0600 
    152 H152        1.1350  -23.3369  -39.4833 H         1 UNK         0.0600 
    153 H153        2.0906  -21.8680  -39.3507 H         1 UNK         0.0600 
    154 H154        1.5908  -20.3050  -42.1924 H         1 UNK         0.3000 
    155 H155        5.0277  -20.0721  -42.8525 H         1 UNK         0.0600 
    156 H156        2.6550  -19.8344  -44.7746 H         1 UNK         0.0600 
    157 H157        4.0620  -20.8589  -45.0402 H         1 UNK         0.0600 
    158 H158        4.2442  -19.1115  -44.9887 H         1 UNK         0.0600 
    159 H159        2.8413  -18.2079  -42.9841 H         1 UNK         0.3000 
    160 H160        2.8804  -17.2603  -39.5350 H         1 UNK         0.0600 
    161 H161        3.6310  -15.7780  -42.1125 H         1 UNK         0.0600 
    162 H162        4.5739  -15.8294  -40.6314 H         1 UNK         0.0600 
    163 H163        3.0096  -15.0307  -40.6415 H         1 UNK         0.0600 
    164 H164        1.2968  -16.6583  -41.9085 H         1 UNK         0.3000 
    165 H165       -1.2569  -19.0052  -41.2398 H         1 UNK         0.0600 
    166 H166       -2.7446  -17.0255  -41.0757 H         1 UNK         0.0600 
    167 H167       -1.3677  -15.9874  -40.7029 H         1 UNK         0.0600 
    168 H168       -1.8592  -17.2456  -39.5752 H         1 UNK         0.0600 
    169 H169       -1.0217  -16.7450  -43.0166 H         1 UNK         0.3000 
    170 H170        0.6041  -18.4484  -45.6579 H         1 UNK         0.0600 
    171 H171       -1.7983  -19.1606  -45.8576 H         1 UNK         0.0600 
    172 H172       -2.3150  -17.5484  -45.3785 H         1 UNK         0.0600 
    173 H173       -1.4409  -17.7878  -46.8871 H         1 UNK         0.0600 
    174 H174       -0.4341  -15.8450  -45.6114 H         1 UNK         0.3000 
    175 H175        2.3317  -14.2106  -44.0895 H         1 UNK         0.0600 
    176 H176        1.5342  -14.4206  -47.0399 H         1 UNK         0.0600 
    177 H177        2.4121  -13.0795  -46.3067 H         1 UNK         0.0600 
    178 H178        3.1365  -14.6792  -46.3695 H         1 UNK         0.0600 
    179 H179        0.5138  -13.0488  -43.7427 H         1 UNK         0.3000 
    180 H180       -2.6904  -13.0439  -44.6060 H         1 UNK         0.0600 
    181 H181       -0.4791  -11.2598  -43.4342 H         1 UNK         0.0600 
    182 H182       -1.3333  -12.5559  -42.6031 H         1 UNK         0.0600 
    183 H183       -2.1998  -11.1183  -43.1058 H         1 UNK         0.0600 
    184 H184       -2.8673  -11.6841  -46.3394 H         1 UNK         0.3000 
    185 H185       -2.6459   -9.7205  -47.5966 H         1 UNK         0.0600 
    186 H186       -1.1422   -8.2851  -48.9411 H         1 UNK         0.0600 
    187 H187       -0.8863   -7.9777  -47.2300 H         1 UNK         0.0600 
    188 H188        0.2761   -8.9458  -48.1309 H         1 UNK         0.0600 
    189 H189       -0.5116  -10.9633  -49.2108 H         1 UNK         0.3000 
    190 H190       -0.8678  -21.7744  -44.2554 H         1 UNK         0.3000 
    191 H191       -3.5720  -21.1592  -45.0033 H         1 UNK         0.0600 
    192 H192       -3.9013  -21.0478  -42.4840 H         1 UNK         0.0600 
    193 H193       -2.6225  -20.0218  -43.0952 H         1 UNK         0.0600 
    194 H194       -2.2234  -21.5357  -42.2828 H         1 UNK         0.0600 
    195 H195       -2.0352  -24.0104  -43.4690 H         1 UNK         0.3000 
    196 H196       -4.3931  -25.5271  -43.0528 H         1 UNK         0.0600 
    197 H197       -1.5188  -26.4823  -43.5207 H         1 UNK         0.0600 
    198 H198       -2.2106  -26.0233  -41.9666 H         1 UNK         0.0600 
    199 H199       -2.8177  -27.4364  -42.8178 H         1 UNK         0.0600 
    200 H200       -2.1881  -25.3771  -45.8752 H         1 UNK         0.3000 
    201 H201       -3.6256  -27.3077  -47.4650 H         1 UNK         0.0600 
    202 H202       -1.5719  -25.1611  -48.2279 H         1 UNK         0.0600 
    203 H203       -2.0805  -26.4971  -49.2542 H         1 UNK         0.0600 
    204 H204       -1.2030  -26.8227  -47.7678 H         1 UNK         0.0600 
    205 H205       -4.2523  -24.0236  -46.7256 H         1 UNK         0.3000 
    206 H206       -5.5643  -22.3959  -47.4260 H         1 UNK         0.0600 
    207 H207       -7.4047  -24.1008  -47.3906 H         1 UNK         0.0600 
    208 H208       -7.6708  -22.8642  -48.6098 H         1 UNK         0.0600 
    209 H209       -7.1075  -24.4563  -49.0924 H         1 UNK         0.0600 
    210 H210       -3.1401  -22.5858  -48.5794 H         1 UNK         0.3000 
    211 H211       -2.9387  -22.7948  -51.3567 H         1 UNK         0.0600 
    212 H212       -0.7010  -21.8500  -51.0451 H         1 UNK         0.0600 
    213 H213       -1.0482  -22.9327  -49.7103 H         1 UNK         0.0600 
    214 H214       -1.1455  -21.1848  -49.4792 H         1 UNK         0.0600 
    215 H215       -4.0239  -20.0387  -49.5100 H         1 UNK         0.3000 
    216 H216       -3.6727  -17.9541  -51.4046 H         1 UNK         0.0600 
    217 H217       -5.8712  -18.3178  -49.2912 H         1 UNK         0.0600 
    218 H218       -5.4081  -16.8017  -50.0549 H         1 UNK         0.0600 
    219 H219       -4.2875  -17.6179  -48.9791 H         1 UNK         0.0600 
    220 H220       -6.0023  -20.5905  -51.2748 H         1 UNK         0.3000 
    221 H221       -7.5175  -19.4732  -53.6093 H         1 UNK         0.0600 
    222 H222       -8.9318  -19.8710  -51.6072 H         1 UNK         0.0600 
    223 H223       -8.3562  -21.5333  -51.4987 H         1 UNK         0.0600 
    224 H224       -9.3242  -21.0204  -52.8770 H         1 UNK         0.0600 
    225 H225       -5.9324  -22.3857  -52.2114 H         1 UNK         0.3000 
    226 H226       -6.4921  -24.0762  -54.4240 H         1 UNK         0.0600 
    227 H227       -4.4149  -24.3740  -52.1925 H         1 UNK         0.0600 
    228 H228       -6.0965  -24.8849  -52.1053 H         1 UNK         0.0600 
    229 H229       -4.9991  -25.6612  -53.2360 H         1 UNK         0.0600 
    230 H230       -3.8540  -21.8177  -53.9121 H         1 UNK         0.3000 
    231 H231       -2.5746  -22.7027  -56.4657 H         1 UNK         0.0600 
    232 H232       -1.2150  -22.0376  -53.8161 H         1 UNK         0.0600 
    233 H233       -0.3660  -22.0257  -55.3622 H         1 UNK         0.0600 
    234 H234       -1.0831  -23.5124  -54.7586 H         1 UNK         0.0600 
    235 H235       -3.0912  -20.0521  -54.1238 H         1 UNK         0.3000 
    236 H236       -3.4626  -17.8907  -54.3085 H         1 UNK         0.0600 
    237 H237       -5.3370  -18.5831  -55.7837 H         1 UNK         0.0600 
    238 H238       -4.6997  -17.0185  -56.2633 H         1 UNK         0.0600 
    239 H239       -4.2987  -18.4502  -57.2030 H         1 UNK         0.0600 
    240 H240       -0.9755  -18.2277  -54.1479 H         1 UNK         0.3000 
    241 H241        0.7739  -17.3380  -56.1597 H         1 UNK         0.0600 
    242 H242        1.0435  -13.7878  -56.0692 H         1 UNK         0.3800 
    243 H243        1.7296  -15.2706  -56.6674 H         1 UNK         0.3800 
    244 H244        1.1016  -17.1381  -53.1156 H         1 UNK         0.0800 
    245 H245        2.3721  -16.9148  -54.2689 H         1 UNK         0.0800 
    246 H246       -0.3573  -19.9040  -53.3999 H         1 UNK         0.0800 
    247 H247        0.8621  -21.0512  -52.9235 H         1 UNK         0.0800 
@<TRIPOS>BOND
     1    1    2 1    
     2    1  127 1    
     3    1  128 1    
     4    1  129 1    
     5    2    3 2    
     6    2    4 am   BACKBONE|DICT|INTERRES
     7    4    5 1    
     8    4  130 1    
     9    5    6 1    
    10    5   65 1    
    11    5  131 1    
    12    6    7 1    
    13    6  132 1    
    14    6  133 1    
    15    7    8 1    
    16    8    9 1    
    17    8  134 1    
    18    8  135 1    
    19    9   10 ar   
    20    9   14 ar   
    21   10   11 ar   
    22   10  136 1    
    23   11   12 ar   
    24   11  126 1    
    25   12   13 ar   
    26   12  137 1    
    27   13   14 ar   
    28   13   15 1    
    29   14  138 1    
    30   15   16 1    
    31   15  139 1    
    32   15  140 1    
    33   16   17 1    
    34   17   18 1    
    35   17  141 1    
    36   17  142 1    
    37   18   19 1    
    38   18   67 1    
    39   18  143 1    
    40   19   20 am   BACKBONE|DICT|INTERRES
    41   19  144 1    
    42   20   21 2    
    43   20   22 1    
    44   22   23 1    
    45   22   24 1    
    46   22  145 1    
    47   23  146 1    
    48   23  147 1    
    49   23  148 1    
    50   24   25 am   BACKBONE|DICT|INTERRES
    51   24  149 1    
    52   25   26 2    
    53   25   27 1    
    54   27   28 1    
    55   27   29 1    
    56   27  150 1    
    57   28  151 1    
    58   28  152 1    
    59   28  153 1    
    60   29   30 am   BACKBONE|DICT|INTERRES
    61   29  154 1    
    62   30   31 2    
    63   30   32 1    
    64   32   33 1    
    65   32   34 1    
    66   32  155 1    
    67   33  156 1    
    68   33  157 1    
    69   33  158 1    
    70   34   35 am   BACKBONE|DICT|INTERRES
    71   34  159 1    
    72   35   36 2    
    73   35   37 1    
    74   37   38 1    
    75   37   39 1    
    76   37  160 1    
    77   38  161 1    
    78   38  162 1    
    79   38  163 1    
    80   39   40 am   BACKBONE|DICT|INTERRES
    81   39  164 1    
    82   40   41 2    
    83   40   42 1    
    84   42   43 1    
    85   42   44 1    
    86   42  165 1    
    87   43  166 1    
    88   43  167 1    
    89   43  168 1    
    90   44   45 am   BACKBONE|DICT|INTERRES
    91   44  169 1    
    92   45   46 2    
    93   45   47 1    
    94   47   48 1    
    95   47   49 1    
    96   47  170 1    
    97   48  171 1    
    98   48  172 1    
    99   48  173 1    
   100   49   50 am   BACKBONE|DICT|INTERRES
   101   49  174 1    
   102   50   51 2    
   103   50   52 1    
   104   52   53 1    
   105   52   54 1    
   106   52  175 1    
   107   53  176 1    
   108   53  177 1    
   109   53  178 1    
   110   54   55 am   BACKBONE|DICT|INTERRES
   111   54  179 1    
   112   55   56 2    
   113   55   57 1    
   114   57   58 1    
   115   57   59 1    
   116   57  180 1    
   117   58  181 1    
   118   58  182 1    
   119   58  183 1    
   120   59   60 am   BACKBONE|DICT|INTERRES
   121   59  184 1    
   122   60   61 2    
   123   60   62 1    
   124   62   63 1    
   125   62   64 1    
   126   62  185 1    
   127   63  186 1    
   128   63  187 1    
   129   63  188 1    
   130   64   65 am   BACKBONE|DICT|INTERRES
   131   64  189 1    
   132   65   66 2    
   133   67   68 2    
   134   67   69 am   BACKBONE|DICT|INTERRES
   135   69   70 1    
   136   69  190 1    
   137   70   71 1    
   138   70   72 1    
   139   70  191 1    
   140   71  192 1    
   141   71  193 1    
   142   71  194 1    
   143   72   73 2    
   144   72   74 am   BACKBONE|DICT|INTERRES
   145   74   75 1    
   146   74  195 1    
   147   75   76 1    
   148   75   77 1    
   149   75  196 1    
   150   76  197 1    
   151   76  198 1    
   152   76  199 1    
   153   77   78 2    
   154   77   79 am   BACKBONE|DICT|INTERRES
   155   79   80 1    
   156   79  200 1    
   157   80   81 1    
   158   80   82 1    
   159   80  201 1    
   160   81  202 1    
   161   81  203 1    
   162   81  204 1    
   163   82   83 2    
   164   82   84 am   BACKBONE|DICT|INTERRES
   165   84   85 1    
   166   84  205 1    
   167   85   86 1    
   168   85   87 1    
   169   85  206 1    
   170   86  207 1    
   171   86  208 1    
   172   86  209 1    
   173   87   88 2    
   174   87   89 am   BACKBONE|DICT|INTERRES
   175   89   90 1    
   176   89  210 1    
   177   90   91 1    
   178   90   92 1    
   179   90  211 1    
   180   91  212 1    
   181   91  213 1    
   182   91  214 1    
   183   92   93 2    
   184   92   94 am   BACKBONE|DICT|INTERRES
   185   94   95 1    
   186   94  215 1    
   187   95   96 1    
   188   95   97 1    
   189   95  216 1    
   190   96  217 1    
   191   96  218 1    
   192   96  219 1    
   193   97   98 2    
   194   97   99 am   BACKBONE|DICT|INTERRES
   195   99  100 1    
   196   99  220 1    
   197  100  101 1    
   198  100  102 1    
   199  100  221 1    
   200  101  222 1    
   201  101  223 1    
   202  101  224 1    
   203  102  103 2    
   204  102  104 am   BACKBONE|DICT|INTERRES
   205  104  105 1    
   206  104  225 1    
   207  105  106 1    
   208  105  107 1    
   209  105  226 1    
   210  106  227 1    
   211  106  228 1    
   212  106  229 1    
   213  107  108 2    
   214  107  109 am   BACKBONE|DICT|INTERRES
   215  109  110 1    
   216  109  230 1    
   217  110  111 1    
   218  110  112 1    
   219  110  231 1    
   220  111  232 1    
   221  111  233 1    
   222  111  234 1    
   223  112  113 2    
   224  112  114 am   BACKBONE|DICT|INTERRES
   225  114  115 1    
   226  114  235 1    
   227  115  116 1    
   228  115  117 1    
   229  115  236 1    
   230  116  237 1    
   231  116  238 1    
   232  116  239 1    
   233  117  118 2    
   234  117  119 am   BACKBONE|DICT|INTERRES
   235  119  120 1    
   236  119  240 1    
   237  120  121 1    
   238  120  124 1    
   239  120  241 1    
   240  121  122 am   BACKBONE|DICT|INTERRES
   241  121  123 2    
   242  122  242 1    
   243  122  243 1    
   244  124  125 1    
   245  124  244 1    
   246  124  245 1    
   247  125  126 1    
   248  126  246 1    
   249  126  247 1    
@<TRIPOS>SUBSTRUCTURE
     1 UNK         1 GROUP             0       ****    0 ROOT    
