@<TRIPOS>MOLECULE
3R540
247   249    1
SMALL
USER_CHARGES


@<TRIPOS>ATOM
      1 CA         -2.8986  -16.7895  -44.3666 C.3       0 UNK        -0.1800 
      2 C          -2.9123  -16.7373  -45.8869 C.2       0 UNK         0.5000 
      3 O          -2.1666  -15.9482  -46.4699 O.2       0 UNK        -0.5000 
      4 N          -3.7814  -17.5370  -46.5233 N.am      1 UNK        -0.5000 
      5 CA         -4.1142  -17.5502  -47.9585 C.3       1 UNK         0.1400 
      6 C6         -2.9152  -17.8379  -48.9004 C.3       23 UNK        -0.0398 
      7 S7         -2.3852  -19.5783  -48.8454 S.3       23 UNK        -0.2404 
      8 C8         -1.3218  -19.6491  -50.3218 C.3       23 UNK        -0.0205 
      9 C9          0.0980  -19.1809  -50.0326 C.ar      23 UNK        -0.0193 
     10 C10         0.4095  -17.8180  -50.0069 C.ar      23 UNK        -0.1150 
     11 C11         1.7135  -17.3937  -49.7368 C.ar      23 UNK        -0.0193 
     12 C12         2.7126  -18.3431  -49.5141 C.ar      23 UNK        -0.1150 
     13 C13         2.4255  -19.7099  -49.5555 C.ar      23 UNK        -0.0193 
     14 C14         1.1100  -20.1197  -49.8115 C.ar      23 UNK        -0.1150 
     15 C15         3.5762  -20.6988  -49.3714 C.3       23 UNK        -0.0205 
     16 S16         3.1033  -22.3583  -48.7835 S.3       23 UNK        -0.2404 
     17 C17         2.6968  -22.0286  -47.0380 C.3       23 UNK        -0.0398 
     18 CA          1.5348  -22.9298  -46.5439 C.3       11 UNK         0.1400 
     19 N           1.7879  -23.4547  -45.2014 N.am      11 UNK        -0.5000 
     20 C           1.3952  -24.6579  -44.7623 C.2       10 UNK         0.5000 
     21 O           0.8191  -25.4888  -45.4643 O.2       10 UNK        -0.5000 
     22 CA          1.6901  -24.9950  -43.2871 C.3       10 UNK         0.1400 
     23 CB          2.9977  -25.7927  -43.1701 C.3       10 UNK        -0.1800 
     24 N           1.7755  -23.8132  -42.4271 N.am      10 UNK        -0.5000 
     25 C           0.7361  -23.0304  -42.1087 C.2       9 UNK         0.5000 
     26 O          -0.4157  -23.2350  -42.4914 O.2       9 UNK        -0.5000 
     27 CA          1.0482  -21.7844  -41.2583 C.3       9 UNK         0.1400 
     28 CB          1.0386  -22.1381  -39.7640 C.3       9 UNK        -0.1800 
     29 N           2.3156  -21.1239  -41.5860 N.am      9 UNK        -0.5000 
     30 C           2.7001  -20.6845  -42.7919 C.2       8 UNK         0.5000 
     31 O           2.0555  -20.8739  -43.8242 O.2       8 UNK        -0.5000 
     32 CA          4.0199  -19.8903  -42.8373 C.3       8 UNK         0.1400 
     33 CB          4.4857  -19.6063  -44.2774 C.3       8 UNK        -0.1800 
     34 N           3.8977  -18.6279  -42.1034 N.am      8 UNK        -0.5000 
     35 C           3.9492  -18.5146  -40.7671 C.2       7 UNK         0.5000 
     36 O           4.1343  -19.4778  -40.0202 O.2       7 UNK        -0.5000 
     37 CA          3.7666  -17.1182  -40.1400 C.3       7 UNK         0.1400 
     38 CB          5.1138  -16.5793  -39.6338 C.3       7 UNK        -0.1800 
     39 N           3.1748  -16.1259  -41.0359 N.am      7 UNK        -0.5000 
     40 C           1.8914  -16.0849  -41.4171 C.2       6 UNK         0.5000 
     41 O           1.0459  -16.9091  -41.0662 O.2       6 UNK        -0.5000 
     42 CA          1.4792  -14.9249  -42.3503 C.3       6 UNK         0.1400 
     43 CB          2.4925  -13.7594  -42.3862 C.3       6 UNK        -0.1800 
     44 N           1.1935  -15.3603  -43.7187 N.am      6 UNK        -0.5000 
     45 C           1.9606  -16.1235  -44.5136 C.2       5 UNK         0.5000 
     46 O           3.0188  -16.6440  -44.1596 O.2       5 UNK        -0.5000 
     47 CA          1.4863  -16.2963  -45.9700 C.3       5 UNK         0.1400 
     48 CB          0.6676  -17.5854  -46.1293 C.3       5 UNK        -0.1800 
     49 N           0.7214  -15.1372  -46.4521 N.am      5 UNK        -0.5000 
     50 C           1.2926  -13.9479  -46.7074 C.2       4 UNK         0.5000 
     51 O           2.5058  -13.7525  -46.6219 O.2       4 UNK        -0.5000 
     52 CA          0.3961  -12.7702  -47.1371 C.3       4 UNK         0.1400 
     53 CB          0.3946  -12.6205  -48.6672 C.3       4 UNK        -0.1800 
     54 N          -0.9907  -12.8084  -46.6794 N.am      4 UNK        -0.5000 
     55 C          -1.4352  -12.8618  -45.4188 C.2       3 UNK         0.5000 
     56 O          -0.7023  -13.0155  -44.4416 O.2       3 UNK        -0.5000 
     57 CA         -2.9608  -12.7325  -45.2064 C.3       3 UNK         0.1400 
     58 CB         -3.3490  -11.2820  -44.8641 C.3       3 UNK        -0.1800 
     59 N          -3.7861  -13.2649  -46.3039 N.am      3 UNK        -0.5000 
     60 C          -3.9145  -12.8349  -47.5695 C.2       2 UNK         0.5000 
     61 O          -3.3789  -11.8162  -48.0062 O.2       2 UNK        -0.5000 
     62 CA         -4.6731  -13.7807  -48.5165 C.3       2 UNK         0.1400 
     63 CB         -4.5211  -13.4155  -50.0059 C.3       2 UNK        -0.1800 
     64 N          -4.1705  -15.1310  -48.2874 N.am      2 UNK        -0.5000 
     65 C          -4.8632  -16.2673  -48.3758 C.2       1 UNK         0.5000 
     66 O          -6.0386  -16.3301  -48.7345 O.2       1 UNK        -0.5000 
     67 C           0.1748  -22.2074  -46.5793 C.2       11 UNK         0.5000 
     68 O          -0.6067  -22.4281  -47.5033 O.2       11 UNK        -0.5000 
     69 N          -0.1113  -21.4211  -45.5286 N.am      12 UNK        -0.5000 
     70 CA         -1.3716  -20.7118  -45.2849 C.3       12 UNK         0.1400 
     71 CB         -1.2825  -19.9971  -43.9301 C.3       12 UNK        -0.1800 
     72 C          -2.6095  -21.6274  -45.2963 C.2       12 UNK         0.5000 
     73 O          -3.6808  -21.2043  -45.7330 O.2       12 UNK        -0.5000 
     74 N          -2.4206  -22.8787  -44.8530 N.am      13 UNK        -0.5000 
     75 CA         -3.4004  -23.9650  -44.8613 C.3       13 UNK         0.1400 
     76 CB         -2.7753  -25.1965  -44.1880 C.3       13 UNK        -0.1800 
     77 C          -3.9472  -24.3343  -46.2568 C.2       13 UNK         0.5000 
     78 O          -4.9998  -24.9698  -46.3295 O.2       13 UNK        -0.5000 
     79 N          -3.2618  -23.9219  -47.3362 N.am      14 UNK        -0.5000 
     80 CA         -3.7496  -24.0429  -48.7116 C.3       14 UNK         0.1400 
     81 CB         -2.6012  -23.7712  -49.6933 C.3       14 UNK        -0.1800 
     82 C          -4.9429  -23.1158  -49.0181 C.2       14 UNK         0.5000 
     83 O          -5.6640  -23.3725  -49.9853 O.2       14 UNK        -0.5000 
     84 N          -5.1217  -22.0592  -48.2060 N.am      15 UNK        -0.5000 
     85 CA         -6.2638  -21.1370  -48.1581 C.3       15 UNK         0.1400 
     86 CB         -7.5097  -21.8860  -47.6428 C.3       15 UNK        -0.1800 
     87 C          -6.5483  -20.3813  -49.4744 C.2       15 UNK         0.5000 
     88 O          -7.6709  -19.9168  -49.6763 O.2       15 UNK        -0.5000 
     89 N          -5.5384  -20.3028  -50.3554 N.am      16 UNK        -0.5000 
     90 CA         -5.6128  -19.8405  -51.7473 C.3       16 UNK         0.1400 
     91 CB         -5.8793  -18.3228  -51.8113 C.3       16 UNK        -0.1800 
     92 C          -6.6027  -20.6612  -52.6120 C.2       16 UNK         0.5000 
     93 O          -7.1376  -20.1407  -53.5930 O.2       16 UNK        -0.5000 
     94 N          -6.8328  -21.9247  -52.2272 N.am      17 UNK        -0.5000 
     95 CA         -7.7340  -22.8638  -52.8896 C.3       17 UNK         0.1400 
     96 CB         -8.8289  -23.2932  -51.8995 C.3       17 UNK        -0.1800 
     97 C          -6.9559  -24.0826  -53.4053 C.2       17 UNK         0.5000 
     98 O          -7.1383  -24.4737  -54.5587 O.2       17 UNK        -0.5000 
     99 N          -6.0859  -24.6499  -52.5569 N.am      18 UNK        -0.5000 
    100 CA        -5.2237  -25.7876  -52.8963 C.3       18 UNK         0.1400 
    101 CB        -4.9272  -26.5853  -51.6178 C.3       18 UNK        -0.1800 
    102 C         -3.9115  -25.3588  -53.5850 C.2       18 UNK         0.5000 
    103 O         -3.1852  -26.2133  -54.0941 O.2       18 UNK        -0.5000 
    104 N         -3.6307  -24.0529  -53.5870 N.am      19 UNK        -0.5000 
    105 CA        -2.4970  -23.4032  -54.2308 C.3       19 UNK         0.1400 
    106 CB        -1.3207  -23.3221  -53.2407 C.3       19 UNK        -0.1800 
    107 C         -2.9473  -22.0040  -54.6741 C.2       19 UNK         0.5000 
    108 O         -4.0289  -21.5574  -54.2832 O.2       19 UNK        -0.5000 
    109 N         -2.1097  -21.3265  -55.4669 N.am      20 UNK        -0.5000 
    110 CA        -2.3049  -19.9317  -55.8680 C.3       20 UNK         0.1400 
    111 CB        -1.2610  -19.5754  -56.9381 C.3       20 UNK        -0.1800 
    112 C         -2.1937  -18.9678  -54.6703 C.2       20 UNK         0.5000 
    113 O         -1.5364  -19.2918  -53.6783 O.2       20 UNK        -0.5000 
    114 N         -2.7995  -17.7805  -54.7981 N.am      21 UNK        -0.5000 
    115 CA        -2.8027  -16.7095  -53.7963 C.3       21 UNK         0.1400 
    116 CB        -3.9613  -15.7444  -54.1095 C.3       21 UNK        -0.1800 
    117 C         -1.4413  -15.9838  -53.7096 C.2       21 UNK         0.5000 
    118 O         -1.3520  -14.7903  -54.0016 O.2       21 UNK        -0.5000 
    119 N         -0.4004  -16.7330  -53.3291 N.am      22 UNK        -0.5000 
    120 CA         1.0026  -16.2995  -53.2194 C.3       22 UNK         0.1400 
    121 C          1.7245  -16.0721  -54.5855 C.2       22 UNK         0.5000 
    122 N          1.1623  -16.4991  -55.7101 N.am      22 UNK        -0.7600 
    123 O          2.8231  -15.5262  -54.6343 O.2       22 UNK        -0.5000 
    124 C124        1.1814  -15.1175  -52.2218 C.3       23 UNK        -0.0398 
    125 S125        2.7002  -15.2569  -51.2212 S.3       23 UNK        -0.2404 
    126 C126        2.0470  -15.9127  -49.6559 C.3       23 UNK        -0.0205 
    127 H127       -3.5872  -17.5411  -43.9808 H         1 UNK         0.0600 
    128 H128       -3.1967  -15.8235  -43.9610 H         1 UNK         0.0600 
    129 H129       -1.8982  -17.0111  -43.9976 H         1 UNK         0.0600 
    130 H130       -4.3467  -18.1610  -45.9649 H         1 UNK         0.3000 
    131 H131       -4.8308  -18.3611  -48.0853 H         1 UNK         0.0600 
    132 H132       -2.0634  -17.2031  -48.6621 H         1 UNK         0.0800 
    133 H133       -3.1796  -17.6107  -49.9339 H         1 UNK         0.0800 
    134 H134       -1.3068  -20.6751  -50.6917 H         1 UNK         0.0800 
    135 H135       -1.7566  -19.0508  -51.1216 H         1 UNK         0.0800 
    136 H136       -0.3624  -17.0862  -50.1917 H         1 UNK         0.1150 
    137 H137        3.7233  -18.0128  -49.3187 H         1 UNK         0.1150 
    138 H138        0.8645  -21.1710  -49.8521 H         1 UNK         0.1150 
    139 H139        4.0791  -20.8100  -50.3327 H         1 UNK         0.0800 
    140 H140        4.3171  -20.2880  -48.6834 H         1 UNK         0.0800 
    141 H141        2.4883  -20.9673  -46.8855 H         1 UNK         0.0800 
    142 H142        3.6056  -22.2295  -46.4691 H         1 UNK         0.0800 
    143 H143        1.4515  -23.7848  -47.2189 H         1 UNK         0.0600 
    144 H144        2.1890  -22.8024  -44.5390 H         1 UNK         0.3000 
    145 H145        0.8728  -25.6218  -42.9238 H         1 UNK         0.0600 
    146 H146        3.1801  -26.1029  -42.1410 H         1 UNK         0.0600 
    147 H147        2.9592  -26.6972  -43.7787 H         1 UNK         0.0600 
    148 H148        3.8567  -25.2090  -43.5034 H         1 UNK         0.0600 
    149 H149        2.6886  -23.5685  -42.0730 H         1 UNK         0.3000 
    150 H150        0.2558  -21.0562  -41.4314 H         1 UNK         0.0600 
    151 H151        0.0966  -22.6089  -39.4791 H         1 UNK         0.0600 
    152 H152        1.1545  -21.2466  -39.1472 H         1 UNK         0.0600 
    153 H153        1.8427  -22.8294  -39.5087 H         1 UNK         0.0600 
    154 H154        2.9077  -20.8727  -40.8009 H         1 UNK         0.3000 
    155 H155        4.7889  -20.5027  -42.3618 H         1 UNK         0.0600 
    156 H156        3.7357  -19.0602  -44.8498 H         1 UNK         0.0600 
    157 H157        4.6853  -20.5364  -44.8104 H         1 UNK         0.0600 
    158 H158        5.4058  -19.0220  -44.2880 H         1 UNK         0.0600 
    159 H159        3.6849  -17.8062  -42.6619 H         1 UNK         0.3000 
    160 H160        3.1037  -17.2362  -39.2803 H         1 UNK         0.0600 
    161 H161        5.8185  -16.4262  -40.4521 H         1 UNK         0.0600 
    162 H162        5.5744  -17.2736  -38.9296 H         1 UNK         0.0600 
    163 H163        4.9892  -15.6289  -39.1143 H         1 UNK         0.0600 
    164 H164        3.8012  -15.4247  -41.4037 H         1 UNK         0.3000 
    165 H165        0.5428  -14.5321  -41.9513 H         1 UNK         0.0600 
    166 H166        2.0932  -12.9215  -42.9585 H         1 UNK         0.0600 
    167 H167        2.7060  -13.3876  -41.3832 H         1 UNK         0.0600 
    168 H168        3.4372  -14.0478  -42.8488 H         1 UNK         0.0600 
    169 H169        0.3668  -14.9449  -44.1298 H         1 UNK         0.3000 
    170 H170        2.3778  -16.3989  -46.5915 H         1 UNK         0.0600 
    171 H171        1.2752  -18.4635  -45.9055 H         1 UNK         0.0600 
    172 H172       -0.1837  -17.6010  -45.4544 H         1 UNK         0.0600 
    173 H173        0.2902  -17.7009  -47.1445 H         1 UNK         0.0600 
    174 H174       -0.2854  -15.2450  -46.5334 H         1 UNK         0.3000 
    175 H175        0.8436  -11.8696  -46.7122 H         1 UNK         0.0600 
    176 H176       -0.1655  -13.4226  -49.1485 H         1 UNK         0.0600 
    177 H177       -0.0584  -11.6754  -48.9674 H         1 UNK         0.0600 
    178 H178        1.4084  -12.6351  -49.0703 H         1 UNK         0.0600 
    179 H179       -1.6925  -12.6222  -47.3865 H         1 UNK         0.3000 
    180 H180       -3.1991  -13.3459  -44.3365 H         1 UNK         0.0600 
    181 H181       -4.4166  -11.1965  -44.6618 H         1 UNK         0.0600 
    182 H182       -3.1030  -10.5912  -45.6709 H         1 UNK         0.0600 
    183 H183       -2.8209  -10.9397  -43.9733 H         1 UNK         0.0600 
    184 H184       -4.2487  -14.1350  -46.0838 H         1 UNK         0.3000 
    185 H185       -5.7294  -13.7274  -48.2449 H         1 UNK         0.0600 
    186 H186       -5.0810  -14.1035  -50.6397 H         1 UNK         0.0600 
    187 H187       -4.8990  -12.4119  -50.2037 H         1 UNK         0.0600 
    188 H188       -3.4775  -13.4450  -50.3215 H         1 UNK         0.0600 
    189 H189       -3.2356  -15.1907  -47.8913 H         1 UNK         0.3000 
    190 H190        0.6169  -21.2772  -44.8322 H         1 UNK         0.3000 
    191 H191       -1.4904  -19.9636  -46.0697 H         1 UNK         0.0600 
    192 H192       -2.1795  -19.4111  -43.7404 H         1 UNK         0.0600 
    193 H193       -0.4248  -19.3272  -43.8764 H         1 UNK         0.0600 
    194 H194       -1.1999  -20.7119  -43.1140 H         1 UNK         0.0600 
    195 H195       -1.5160  -23.1009  -44.4565 H         1 UNK         0.3000 
    196 H196       -4.2512  -23.6394  -44.2599 H         1 UNK         0.0600 
    197 H197       -1.8940  -25.5437  -44.7285 H         1 UNK         0.0600 
    198 H198       -2.4758  -24.9776  -43.1629 H         1 UNK         0.0600 
    199 H199       -3.4837  -26.0248  -44.1472 H         1 UNK         0.0600 
    200 H200       -2.3946  -23.4089  -47.2102 H         1 UNK         0.3000 
    201 H201       -4.0884  -25.0701  -48.8527 H         1 UNK         0.0600 
    202 H202       -1.7569  -24.4360  -49.5108 H         1 UNK         0.0600 
    203 H203       -2.2422  -22.7446  -49.6171 H         1 UNK         0.0600 
    204 H204       -2.9235  -23.9296  -50.7224 H         1 UNK         0.0600 
    205 H205       -4.4459  -21.9208  -47.4603 H         1 UNK         0.3000 
    206 H206       -6.0067  -20.3777  -47.4189 H         1 UNK         0.0600 
    207 H207       -7.2972  -22.4074  -46.7092 H         1 UNK         0.0600 
    208 H208       -8.3326  -21.1976  -47.4471 H         1 UNK         0.0600 
    209 H209       -7.8629  -22.6230  -48.3651 H         1 UNK         0.0600 
    210 H210       -4.6576  -20.7121  -50.0771 H         1 UNK         0.3000 
    211 H211       -4.6242  -20.0134  -52.1744 H         1 UNK         0.0600 
    212 H212       -5.8305  -17.9643  -52.8388 H         1 UNK         0.0600 
    213 H213       -5.1404  -17.7642  -51.2398 H         1 UNK         0.0600 
    214 H214       -6.8654  -18.0654  -51.4244 H         1 UNK         0.0600 
    215 H215       -6.3610  -22.2712  -51.3976 H         1 UNK         0.3000 
    216 H216       -8.2181  -22.3947  -53.7485 H         1 UNK         0.0600 
    217 H217       -8.4094  -23.7631  -51.0088 H         1 UNK         0.0600 
    218 H218       -9.5140  -24.0070  -52.3586 H         1 UNK         0.0600 
    219 H219       -9.4195  -22.4363  -51.5748 H         1 UNK         0.0600 
    220 H220       -5.9913  -24.2741  -51.6171 H         1 UNK         0.3000 
    221 H221       -5.7553  -26.4469  -53.5857 H         1 UNK         0.0600 
    222 H222       -5.8458  -26.8758  -51.1078 H         1 UNK         0.0600 
    223 H223       -4.3208  -26.0102  -50.9210 H         1 UNK         0.0600 
    224 H224       -4.3792  -27.4999  -51.8475 H         1 UNK         0.0600 
    225 H225       -4.3227  -23.4066  -53.2302 H         1 UNK         0.3000 
    226 H226       -2.2010  -23.9675  -55.1175 H         1 UNK         0.0600 
    227 H227       -1.5604  -22.6910  -52.3842 H         1 UNK         0.0600 
    228 H228       -1.0491  -24.3086  -52.8649 H         1 UNK         0.0600 
    229 H229       -0.4342  -22.9015  -53.7163 H         1 UNK         0.0600 
    230 H230       -1.2265  -21.7452  -55.7183 H         1 UNK         0.3000 
    231 H231       -3.3030  -19.8353  -56.3007 H         1 UNK         0.0600 
    232 H232       -0.2442  -19.6553  -56.5510 H         1 UNK         0.0600 
    233 H233       -1.3967  -18.5542  -57.2966 H         1 UNK         0.0600 
    234 H234       -1.3430  -20.2334  -57.8035 H         1 UNK         0.0600 
    235 H235       -3.2883  -17.5773  -55.6582 H         1 UNK         0.3000 
    236 H236       -2.9966  -17.1528  -52.8172 H         1 UNK         0.0600 
    237 H237       -4.9176  -16.2647  -54.1438 H         1 UNK         0.0600 
    238 H238       -4.0417  -14.9704  -53.3449 H         1 UNK         0.0600 
    239 H239       -3.8223  -15.2457  -55.0695 H         1 UNK         0.0600 
    240 H240       -0.5712  -17.7252  -53.1864 H         1 UNK         0.3000 
    241 H241        1.5032  -17.1708  -52.7957 H         1 UNK         0.0600 
    242 H242        1.6389  -16.3564  -56.5868 H         1 UNK         0.3800 
    243 H243        0.2615  -16.9464  -55.6931 H         1 UNK         0.3800 
    244 H244        0.3330  -15.0580  -51.5395 H         1 UNK         0.0800 
    245 H245        1.1890  -14.1604  -52.7460 H         1 UNK         0.0800 
    246 H246        2.7941  -15.7489  -48.8784 H         1 UNK         0.0800 
    247 H247        1.1672  -15.3478  -49.3527 H         1 UNK         0.0800 
@<TRIPOS>BOND
     1    1    2 1    
     2    1  127 1    
     3    1  128 1    
     4    1  129 1    
     5    2    3 2    
     6    2    4 am   BACKBONE|DICT|INTERRES
     7    4    5 1    
     8    4  130 1    
     9    5    6 1    
    10    5   65 1    
    11    5  131 1    
    12    6    7 1    
    13    6  132 1    
    14    6  133 1    
    15    7    8 1    
    16    8    9 1    
    17    8  134 1    
    18    8  135 1    
    19    9   10 ar   
    20    9   14 ar   
    21   10   11 ar   
    22   10  136 1    
    23   11   12 ar   
    24   11  126 1    
    25   12   13 ar   
    26   12  137 1    
    27   13   14 ar   
    28   13   15 1    
    29   14  138 1    
    30   15   16 1    
    31   15  139 1    
    32   15  140 1    
    33   16   17 1    
    34   17   18 1    
    35   17  141 1    
    36   17  142 1    
    37   18   19 1    
    38   18   67 1    
    39   18  143 1    
    40   19   20 am   BACKBONE|DICT|INTERRES
    41   19  144 1    
    42   20   21 2    
    43   20   22 1    
    44   22   23 1    
    45   22   24 1    
    46   22  145 1    
    47   23  146 1    
    48   23  147 1    
    49   23  148 1    
    50   24   25 am   BACKBONE|DICT|INTERRES
    51   24  149 1    
    52   25   26 2    
    53   25   27 1    
    54   27   28 1    
    55   27   29 1    
    56   27  150 1    
    57   28  151 1    
    58   28  152 1    
    59   28  153 1    
    60   29   30 am   BACKBONE|DICT|INTERRES
    61   29  154 1    
    62   30   31 2    
    63   30   32 1    
    64   32   33 1    
    65   32   34 1    
    66   32  155 1    
    67   33  156 1    
    68   33  157 1    
    69   33  158 1    
    70   34   35 am   BACKBONE|DICT|INTERRES
    71   34  159 1    
    72   35   36 2    
    73   35   37 1    
    74   37   38 1    
    75   37   39 1    
    76   37  160 1    
    77   38  161 1    
    78   38  162 1    
    79   38  163 1    
    80   39   40 am   BACKBONE|DICT|INTERRES
    81   39  164 1    
    82   40   41 2    
    83   40   42 1    
    84   42   43 1    
    85   42   44 1    
    86   42  165 1    
    87   43  166 1    
    88   43  167 1    
    89   43  168 1    
    90   44   45 am   BACKBONE|DICT|INTERRES
    91   44  169 1    
    92   45   46 2    
    93   45   47 1    
    94   47   48 1    
    95   47   49 1    
    96   47  170 1    
    97   48  171 1    
    98   48  172 1    
    99   48  173 1    
   100   49   50 am   BACKBONE|DICT|INTERRES
   101   49  174 1    
   102   50   51 2    
   103   50   52 1    
   104   52   53 1    
   105   52   54 1    
   106   52  175 1    
   107   53  176 1    
   108   53  177 1    
   109   53  178 1    
   110   54   55 am   BACKBONE|DICT|INTERRES
   111   54  179 1    
   112   55   56 2    
   113   55   57 1    
   114   57   58 1    
   115   57   59 1    
   116   57  180 1    
   117   58  181 1    
   118   58  182 1    
   119   58  183 1    
   120   59   60 am   BACKBONE|DICT|INTERRES
   121   59  184 1    
   122   60   61 2    
   123   60   62 1    
   124   62   63 1    
   125   62   64 1    
   126   62  185 1    
   127   63  186 1    
   128   63  187 1    
   129   63  188 1    
   130   64   65 am   BACKBONE|DICT|INTERRES
   131   64  189 1    
   132   65   66 2    
   133   67   68 2    
   134   67   69 am   BACKBONE|DICT|INTERRES
   135   69   70 1    
   136   69  190 1    
   137   70   71 1    
   138   70   72 1    
   139   70  191 1    
   140   71  192 1    
   141   71  193 1    
   142   71  194 1    
   143   72   73 2    
   144   72   74 am   BACKBONE|DICT|INTERRES
   145   74   75 1    
   146   74  195 1    
   147   75   76 1    
   148   75   77 1    
   149   75  196 1    
   150   76  197 1    
   151   76  198 1    
   152   76  199 1    
   153   77   78 2    
   154   77   79 am   BACKBONE|DICT|INTERRES
   155   79   80 1    
   156   79  200 1    
   157   80   81 1    
   158   80   82 1    
   159   80  201 1    
   160   81  202 1    
   161   81  203 1    
   162   81  204 1    
   163   82   83 2    
   164   82   84 am   BACKBONE|DICT|INTERRES
   165   84   85 1    
   166   84  205 1    
   167   85   86 1    
   168   85   87 1    
   169   85  206 1    
   170   86  207 1    
   171   86  208 1    
   172   86  209 1    
   173   87   88 2    
   174   87   89 am   BACKBONE|DICT|INTERRES
   175   89   90 1    
   176   89  210 1    
   177   90   91 1    
   178   90   92 1    
   179   90  211 1    
   180   91  212 1    
   181   91  213 1    
   182   91  214 1    
   183   92   93 2    
   184   92   94 am   BACKBONE|DICT|INTERRES
   185   94   95 1    
   186   94  215 1    
   187   95   96 1    
   188   95   97 1    
   189   95  216 1    
   190   96  217 1    
   191   96  218 1    
   192   96  219 1    
   193   97   98 2    
   194   97   99 am   BACKBONE|DICT|INTERRES
   195   99  100 1    
   196   99  220 1    
   197  100  101 1    
   198  100  102 1    
   199  100  221 1    
   200  101  222 1    
   201  101  223 1    
   202  101  224 1    
   203  102  103 2    
   204  102  104 am   BACKBONE|DICT|INTERRES
   205  104  105 1    
   206  104  225 1    
   207  105  106 1    
   208  105  107 1    
   209  105  226 1    
   210  106  227 1    
   211  106  228 1    
   212  106  229 1    
   213  107  108 2    
   214  107  109 am   BACKBONE|DICT|INTERRES
   215  109  110 1    
   216  109  230 1    
   217  110  111 1    
   218  110  112 1    
   219  110  231 1    
   220  111  232 1    
   221  111  233 1    
   222  111  234 1    
   223  112  113 2    
   224  112  114 am   BACKBONE|DICT|INTERRES
   225  114  115 1    
   226  114  235 1    
   227  115  116 1    
   228  115  117 1    
   229  115  236 1    
   230  116  237 1    
   231  116  238 1    
   232  116  239 1    
   233  117  118 2    
   234  117  119 am   BACKBONE|DICT|INTERRES
   235  119  120 1    
   236  119  240 1    
   237  120  121 1    
   238  120  124 1    
   239  120  241 1    
   240  121  122 am   BACKBONE|DICT|INTERRES
   241  121  123 2    
   242  122  242 1    
   243  122  243 1    
   244  124  125 1    
   245  124  244 1    
   246  124  245 1    
   247  125  126 1    
   248  126  246 1    
   249  126  247 1    
@<TRIPOS>SUBSTRUCTURE
     1 UNK         1 GROUP             0       ****    0 ROOT    
