@<TRIPOS>MOLECULE
3R540
247   249    1
SMALL
USER_CHARGES


@<TRIPOS>ATOM
      1 CA          0.6390   -9.2143  -47.5121 C.3       0 UNK        -0.1800 
      2 C           0.7831  -10.7187  -47.3345 C.2       0 UNK         0.5000 
      3 O           1.2535  -11.1712  -46.2910 O.2       0 UNK        -0.5000 
      4 N           0.3640  -11.4946  -48.3432 N.am      1 UNK        -0.5000 
      5 CA          0.4575  -12.9610  -48.3852 C.3       1 UNK         0.1400 
      6 C6          0.0493  -13.5112  -49.7776 C.3       23 UNK        -0.0398 
      7 S7          1.0018  -14.9849  -50.2703 S.3       23 UNK        -0.2404 
      8 C8         -0.2456  -16.2993  -50.1231 C.3       23 UNK        -0.0205 
      9 C9          0.2832  -17.6017  -50.7023 C.ar      23 UNK        -0.0193 
     10 C10         0.0878  -17.9057  -52.0515 C.ar      23 UNK        -0.1150 
     11 C11         0.6041  -19.0834  -52.5969 C.ar      23 UNK        -0.0193 
     12 C12         1.3142  -19.9644  -51.7777 C.ar      23 UNK        -0.1150 
     13 C13         1.5089  -19.6846  -50.4215 C.ar      23 UNK        -0.0193 
     14 C14         0.9935  -18.4919  -49.8945 C.ar      23 UNK        -0.1150 
     15 C15         2.3117  -20.6790  -49.5812 C.3       23 UNK        -0.0205 
     16 S16         2.1108  -20.5238  -47.7740 S.3       23 UNK        -0.2404 
     17 C17         0.3783  -21.0506  -47.5479 C.3       23 UNK        -0.0398 
     18 CA          0.2908  -22.4324  -46.8644 C.3       11 UNK         0.1400 
     19 N           0.8259  -22.4251  -45.5009 N.am      11 UNK        -0.5000 
     20 C           1.0328  -23.5189  -44.7562 C.2       10 UNK         0.5000 
     21 O           0.8456  -24.6660  -45.1611 O.2       10 UNK        -0.5000 
     22 CA          1.4667  -23.2901  -43.2979 C.3       10 UNK         0.1400 
     23 CB          2.9787  -23.0373  -43.1991 C.3       10 UNK        -0.1800 
     24 N           0.7354  -22.1845  -42.6778 N.am      10 UNK        -0.5000 
     25 C          -0.5714  -22.2220  -42.3811 C.2       9 UNK         0.5000 
     26 O          -1.2840  -23.2096  -42.5640 O.2       9 UNK        -0.5000 
     27 CA         -1.1945  -20.9300  -41.8198 C.3       9 UNK         0.1400 
     28 CB         -0.9184  -20.8085  -40.3139 C.3       9 UNK        -0.1800 
     29 N          -0.7228  -19.7230  -42.5005 N.am      9 UNK        -0.5000 
     30 C          -0.9313  -19.4504  -43.7966 C.2       8 UNK         0.5000 
     31 O          -1.5842  -20.1706  -44.5486 O.2       8 UNK        -0.5000 
     32 CA         -0.2550  -18.1929  -44.3693 C.3       8 UNK         0.1400 
     33 CB         -1.1016  -16.9456  -44.0810 C.3       8 UNK        -0.1800 
     34 N           1.1065  -17.9922  -43.8734 N.am      8 UNK        -0.5000 
     35 C           2.1126  -18.8692  -43.9989 C.2       7 UNK         0.5000 
     36 O           1.9933  -19.9795  -44.5125 O.2       7 UNK        -0.5000 
     37 CA          3.4660  -18.4554  -43.4041 C.3       7 UNK         0.1400 
     38 CB          4.1930  -17.4609  -44.3228 C.3       7 UNK        -0.1800 
     39 N           3.2897  -17.8706  -42.0774 N.am      7 UNK        -0.5000 
     40 C           3.0832  -18.5869  -40.9640 C.2       6 UNK         0.5000 
     41 O           3.1011  -19.8179  -40.9278 O.2       6 UNK        -0.5000 
     42 CA          2.7784  -17.7939  -39.6788 C.3       6 UNK         0.1400 
     43 CB          4.0802  -17.3865  -38.9726 C.3       6 UNK        -0.1800 
     44 N           1.9648  -16.5999  -39.9190 N.am      6 UNK        -0.5000 
     45 C           0.6953  -16.6246  -40.3469 C.2       5 UNK         0.5000 
     46 O           0.0725  -17.6598  -40.5826 O.2       5 UNK        -0.5000 
     47 CA          0.0157  -15.2640  -40.5852 C.3       5 UNK         0.1400 
     48 CB         -0.5687  -14.7192  -39.2737 C.3       5 UNK        -0.1800 
     49 N           0.8648  -14.2359  -41.1943 N.am      5 UNK        -0.5000 
     50 C           1.5849  -14.3524  -42.3182 C.2       4 UNK         0.5000 
     51 O           1.7594  -15.4173  -42.9101 O.2       4 UNK        -0.5000 
     52 CA          2.1616  -13.0426  -42.8949 C.3       4 UNK         0.1400 
     53 CB          3.1671  -13.2954  -44.0325 C.3       4 UNK        -0.1800 
     54 N           1.0864  -12.1939  -43.4061 N.am      4 UNK        -0.5000 
     55 C           0.2105  -11.5054  -42.6617 C.2       3 UNK         0.5000 
     56 O           0.2970  -11.3907  -41.4378 O.2       3 UNK        -0.5000 
     57 CA         -0.9867  -10.8824  -43.4005 C.3       3 UNK         0.1400 
     58 CB         -0.6698   -9.4428  -43.8322 C.3       3 UNK        -0.1800 
     59 N          -1.3990  -11.6697  -44.5666 N.am      3 UNK        -0.5000 
     60 C          -2.0202  -12.8580  -44.5052 C.2       2 UNK         0.5000 
     61 O          -2.3219  -13.4143  -43.4491 O.2       2 UNK        -0.5000 
     62 CA         -2.3801  -13.5362  -45.8416 C.3       2 UNK         0.1400 
     63 CB         -3.8452  -13.2521  -46.2060 C.3       2 UNK        -0.1800 
     64 N          -1.5248  -13.0958  -46.9451 N.am      2 UNK        -0.5000 
     65 C          -0.3385  -13.6417  -47.2492 C.2       1 UNK         0.5000 
     66 O           0.1414  -14.6097  -46.6605 O.2       1 UNK        -0.5000 
     67 C          -1.1464  -22.9850  -46.9059 C.2       11 UNK         0.5000 
     68 O          -1.4364  -23.8211  -47.7585 O.2       11 UNK        -0.5000 
     69 N          -2.0011  -22.5687  -45.9606 N.am      12 UNK        -0.5000 
     70 CA         -3.3699  -23.0635  -45.8055 C.3       12 UNK         0.1400 
     71 CB         -4.1037  -22.2466  -44.7320 C.3       12 UNK        -0.1800 
     72 C          -3.4277  -24.5674  -45.4834 C.2       12 UNK         0.5000 
     73 O          -4.2555  -25.2735  -46.0590 O.2       12 UNK        -0.5000 
     74 N          -2.5171  -25.0443  -44.6215 N.am      13 UNK        -0.5000 
     75 CA         -2.3405  -26.4651  -44.3053 C.3       13 UNK         0.1400 
     76 CB         -1.3728  -26.6121  -43.1216 C.3       13 UNK        -0.1800 
     77 C          -1.8632  -27.2968  -45.5141 C.2       13 UNK         0.5000 
     78 O          -2.2764  -28.4473  -45.6616 O.2       13 UNK        -0.5000 
     79 N          -1.0389  -26.6875  -46.3767 N.am      14 UNK        -0.5000 
     80 CA         -0.5843  -27.2432  -47.6541 C.3       14 UNK         0.1400 
     81 CB          0.7401  -26.5645  -48.0421 C.3       14 UNK        -0.1800 
     82 C          -1.6229  -27.1086  -48.7916 C.2       14 UNK         0.5000 
     83 O          -1.3762  -27.6170  -49.8860 O.2       14 UNK        -0.5000 
     84 N          -2.7500  -26.4323  -48.5222 N.am      15 UNK        -0.5000 
     85 CA         -3.8555  -26.1170  -49.4316 C.3       15 UNK         0.1400 
     86 CB         -4.5670  -27.4016  -49.9064 C.3       15 UNK        -0.1800 
     87 C          -3.4511  -25.1767  -50.5882 C.2       15 UNK         0.5000 
     88 O          -3.9473  -25.3282  -51.7054 O.2       15 UNK        -0.5000 
     89 N          -2.5715  -24.2122  -50.2957 N.am      16 UNK        -0.5000 
     90 CA         -2.1506  -23.1413  -51.1941 C.3       16 UNK         0.1400 
     91 CB         -0.6168  -23.0718  -51.1833 C.3       16 UNK        -0.1800 
     92 C          -2.7597  -21.8096  -50.7214 C.2       16 UNK         0.5000 
     93 O          -2.9013  -21.5907  -49.5162 O.2       16 UNK        -0.5000 
     94 N          -3.0984  -20.9388  -51.6763 N.am      17 UNK        -0.5000 
     95 CA         -3.7196  -19.6349  -51.4670 C.3       17 UNK         0.1400 
     96 CB         -5.1754  -19.7927  -50.9894 C.3       17 UNK        -0.1800 
     97 C          -3.6784  -18.8747  -52.7967 C.2       17 UNK         0.5000 
     98 O          -3.9740  -19.4725  -53.8373 O.2       17 UNK        -0.5000 
     99 N          -3.3194  -17.5848  -52.7393 N.am      18 UNK        -0.5000 
    100 CA        -3.1482  -16.6912  -53.8880 C.3       18 UNK         0.1400 
    101 CB        -2.7488  -15.2913  -53.3927 C.3       18 UNK        -0.1800 
    102 C         -4.4104  -16.6164  -54.7635 C.2       18 UNK         0.5000 
    103 O         -5.4707  -16.2334  -54.2645 O.2       18 UNK        -0.5000 
    104 N         -4.2739  -17.0328  -56.0302 N.am      19 UNK        -0.5000 
    105 CA        -5.2989  -17.1803  -57.0743 C.3       19 UNK         0.1400 
    106 CB        -5.9560  -15.8287  -57.4122 C.3       19 UNK        -0.1800 
    107 C         -6.3654  -18.2588  -56.7872 C.2       19 UNK         0.5000 
    108 O         -6.7297  -18.9992  -57.7009 O.2       19 UNK        -0.5000 
    109 N         -6.8337  -18.3404  -55.5363 N.am      20 UNK        -0.5000 
    110 CA        -7.8684  -19.2532  -55.0515 C.3       20 UNK         0.1400 
    111 CB        -8.2081  -18.8909  -53.5980 C.3       20 UNK        -0.1800 
    112 C         -7.4952  -20.7423  -55.1648 C.2       20 UNK         0.5000 
    113 O         -8.3784  -21.5610  -55.4252 O.2       20 UNK        -0.5000 
    114 N         -6.2080  -21.0627  -54.9832 N.am      21 UNK        -0.5000 
    115 CA        -5.6647  -22.4121  -55.1413 C.3       21 UNK         0.1400 
    116 CB        -5.4149  -23.0341  -53.7611 C.3       21 UNK        -0.1800 
    117 C         -4.3881  -22.4160  -55.9964 C.2       21 UNK         0.5000 
    118 O         -4.1717  -23.3731  -56.7407 O.2       21 UNK        -0.5000 
    119 N         -3.5786  -21.3517  -55.9070 N.am      22 UNK        -0.5000 
    120 CA        -2.3563  -21.1674  -56.7093 C.3       22 UNK         0.1400 
    121 C         -2.6115  -20.7840  -58.1988 C.2       22 UNK         0.5000 
    122 N         -3.8329  -20.4694  -58.6143 N.am      22 UNK        -0.7600 
    123 O         -1.6788  -20.7753  -58.9974 O.2       22 UNK        -0.5000 
    124 C124       -1.3794  -20.1584  -56.0541 C.3       23 UNK        -0.0398 
    125 S125       -0.8761  -20.6204  -54.3635 S.3       23 UNK        -0.2404 
    126 C126        0.4249  -19.3827  -54.0768 C.3       23 UNK        -0.0205 
    127 H127        1.5645   -8.7126  -47.2297 H         1 UNK         0.0600 
    128 H128       -0.1630   -8.8348  -46.8796 H         1 UNK         0.0600 
    129 H129        0.4129   -8.9496  -48.5452 H         1 UNK         0.0600 
    130 H130       -0.0190  -11.0546  -49.1679 H         1 UNK         0.3000 
    131 H131        1.5115  -13.1936  -48.2165 H         1 UNK         0.0600 
    132 H132       -1.0235  -13.7019  -49.8448 H         1 UNK         0.0800 
    133 H133        0.2541  -12.7653  -50.5469 H         1 UNK         0.0800 
    134 H134       -0.5118  -16.4316  -49.0729 H         1 UNK         0.0800 
    135 H135       -1.1587  -16.0052  -50.6410 H         1 UNK         0.0800 
    136 H136       -0.4451  -17.2128  -52.6847 H         1 UNK         0.1150 
    137 H137        1.7221  -20.8708  -52.2030 H         1 UNK         0.1150 
    138 H138        1.1531  -18.2340  -48.8579 H         1 UNK         0.1150 
    139 H139        2.0556  -21.6994  -49.8705 H         1 UNK         0.0800 
    140 H140        3.3681  -20.5477  -49.8179 H         1 UNK         0.0800 
    141 H141       -0.1239  -21.0639  -48.5169 H         1 UNK         0.0800 
    142 H142       -0.1375  -20.2954  -46.9539 H         1 UNK         0.0800 
    143 H143        0.9056  -23.1241  -47.4443 H         1 UNK         0.0600 
    144 H144        1.0717  -21.5172  -45.1132 H         1 UNK         0.3000 
    145 H145        1.2415  -24.2001  -42.7376 H         1 UNK         0.0600 
    146 H146        3.2898  -22.9083  -42.1622 H         1 UNK         0.0600 
    147 H147        3.5398  -23.8794  -43.6058 H         1 UNK         0.0600 
    148 H148        3.2809  -22.1473  -43.7509 H         1 UNK         0.0600 
    149 H149        1.2428  -21.3208  -42.5435 H         1 UNK         0.3000 
    150 H150       -2.2749  -20.9940  -41.9640 H         1 UNK         0.0600 
    151 H151       -1.2530  -21.6990  -39.7803 H         1 UNK         0.0600 
    152 H152       -1.4455  -19.9558  -39.8855 H         1 UNK         0.0600 
    153 H153        0.1455  -20.6800  -40.1093 H         1 UNK         0.0600 
    154 H154       -0.2202  -19.0468  -41.9323 H         1 UNK         0.3000 
    155 H155       -0.1859  -18.3122  -45.4521 H         1 UNK         0.0600 
    156 H156       -1.2820  -16.8229  -43.0142 H         1 UNK         0.0600 
    157 H157       -0.6143  -16.0411  -44.4448 H         1 UNK         0.0600 
    158 H158       -2.0737  -17.0144  -44.5703 H         1 UNK         0.0600 
    159 H159        1.3069  -17.0867  -43.4533 H         1 UNK         0.3000 
    160 H160        4.0867  -19.3502  -43.3198 H         1 UNK         0.0600 
    161 H161        5.1677  -17.1901  -43.9170 H         1 UNK         0.0600 
    162 H162        3.6225  -16.5428  -44.4649 H         1 UNK         0.0600 
    163 H163        4.3599  -17.8966  -45.3088 H         1 UNK         0.0600 
    164 H164        3.1666  -16.8672  -42.0406 H         1 UNK         0.3000 
    165 H165        2.2195  -18.4525  -39.0103 H         1 UNK         0.0600 
    166 H166        3.8759  -16.8971  -38.0201 H         1 UNK         0.0600 
    167 H167        4.6994  -18.2595  -38.7619 H         1 UNK         0.0600 
    168 H168        4.6727  -16.7030  -39.5820 H         1 UNK         0.0600 
    169 H169        2.4031  -15.7042  -39.7623 H         1 UNK         0.3000 
    170 H170       -0.8151  -15.4300  -41.2717 H         1 UNK         0.0600 
    171 H171       -1.2283  -15.4508  -38.8047 H         1 UNK         0.0600 
    172 H172        0.2146  -14.4737  -38.5555 H         1 UNK         0.0600 
    173 H173       -1.1575  -13.8186  -39.4492 H         1 UNK         0.0600 
    174 H174        0.7440  -13.2956  -40.8336 H         1 UNK         0.3000 
    175 H175        2.6816  -12.5186  -42.0906 H         1 UNK         0.0600 
    176 H176        3.5956  -12.3603  -44.3936 H         1 UNK         0.0600 
    177 H177        2.6974  -13.7951  -44.8814 H         1 UNK         0.0600 
    178 H178        3.9921  -13.9238  -43.6945 H         1 UNK         0.0600 
    179 H179        0.9594  -12.1907  -44.4116 H         1 UNK         0.3000 
    180 H180       -1.8257  -10.8483  -42.7022 H         1 UNK         0.0600 
    181 H181        0.2050   -9.3983  -44.4807 H         1 UNK         0.0600 
    182 H182       -0.4608   -8.8166  -42.9640 H         1 UNK         0.0600 
    183 H183       -1.5090   -8.9925  -44.3627 H         1 UNK         0.0600 
    184 H184       -1.1485  -11.3026  -45.4715 H         1 UNK         0.3000 
    185 H185       -2.2715  -14.6142  -45.7070 H         1 UNK         0.0600 
    186 H186       -4.0255  -12.1867  -46.3544 H         1 UNK         0.0600 
    187 H187       -4.1317  -13.7723  -47.1203 H         1 UNK         0.0600 
    188 H188       -4.5168  -13.5919  -45.4164 H         1 UNK         0.0600 
    189 H189       -1.8454  -12.3032  -47.4824 H         1 UNK         0.3000 
    190 H190       -1.7135  -21.8293  -45.3231 H         1 UNK         0.3000 
    191 H191       -3.8829  -22.9096  -46.7574 H         1 UNK         0.0600 
    192 H192       -4.1492  -21.1918  -45.0035 H         1 UNK         0.0600 
    193 H193       -5.1300  -22.5947  -44.6091 H         1 UNK         0.0600 
    194 H194       -3.6122  -22.3216  -43.7619 H         1 UNK         0.0600 
    195 H195       -1.8999  -24.3912  -44.1501 H         1 UNK         0.3000 
    196 H196       -3.3111  -26.8597  -43.9979 H         1 UNK         0.0600 
    197 H197       -1.2559  -27.6595  -42.8409 H         1 UNK         0.0600 
    198 H198       -1.7395  -26.0788  -42.2443 H         1 UNK         0.0600 
    199 H199       -0.3824  -26.2237  -43.3582 H         1 UNK         0.0600 
    200 H200       -0.7047  -25.7575  -46.1492 H         1 UNK         0.3000 
    201 H201       -0.3891  -28.3090  -47.5202 H         1 UNK         0.0600 
    202 H202        1.4859  -26.6746  -47.2546 H         1 UNK         0.0600 
    203 H203        0.6072  -25.4992  -48.2297 H         1 UNK         0.0600 
    204 H204        1.1568  -27.0061  -48.9480 H         1 UNK         0.0600 
    205 H205       -2.8382  -26.0346  -47.5958 H         1 UNK         0.3000 
    206 H206       -4.5747  -25.5536  -48.8358 H         1 UNK         0.0600 
    207 H207       -4.8497  -28.0302  -49.0619 H         1 UNK         0.0600 
    208 H208       -5.4808  -27.1627  -50.4514 H         1 UNK         0.0600 
    209 H209       -3.9374  -27.9937  -50.5709 H         1 UNK         0.0600 
    210 H210       -2.2343  -24.1264  -49.3372 H         1 UNK         0.3000 
    211 H211       -2.4812  -23.3417  -52.2154 H         1 UNK         0.0600 
    212 H212       -0.2291  -22.8417  -50.1909 H         1 UNK         0.0600 
    213 H213       -0.2601  -22.3027  -51.8669 H         1 UNK         0.0600 
    214 H214       -0.1782  -24.0176  -51.5014 H         1 UNK         0.0600 
    215 H215       -2.8994  -21.1478  -52.6465 H         1 UNK         0.3000 
    216 H216       -3.1426  -19.0867  -50.7193 H         1 UNK         0.0600 
    217 H217       -5.6694  -18.8234  -50.9113 H         1 UNK         0.0600 
    218 H218       -5.2261  -20.2586  -50.0055 H         1 UNK         0.0600 
    219 H219       -5.7574  -20.4060  -51.6786 H         1 UNK         0.0600 
    220 H220       -3.1490  -17.1735  -51.8346 H         1 UNK         0.3000 
    221 H221       -2.3254  -17.0856  -54.4876 H         1 UNK         0.0600 
    222 H222       -3.4972  -14.8750  -52.7172 H         1 UNK         0.0600 
    223 H223       -1.7947  -15.3066  -52.8678 H         1 UNK         0.0600 
    224 H224       -2.6420  -14.5984  -54.2284 H         1 UNK         0.0600 
    225 H225       -3.3563  -17.3436  -56.3135 H         1 UNK         0.3000 
    226 H226       -4.7608  -17.5100  -57.9646 H         1 UNK         0.0600 
    227 H227       -5.2076  -15.0824  -57.6787 H         1 UNK         0.0600 
    228 H228       -6.6324  -15.9284  -58.2620 H         1 UNK         0.0600 
    229 H229       -6.5393  -15.4367  -56.5787 H         1 UNK         0.0600 
    230 H230       -6.4682  -17.6663  -54.8684 H         1 UNK         0.3000 
    231 H231       -8.7599  -19.0925  -55.6609 H         1 UNK         0.0600 
    232 H232       -7.3339  -18.9695  -52.9516 H         1 UNK         0.0600 
    233 H233       -8.9768  -19.5527  -53.1967 H         1 UNK         0.0600 
    234 H234       -8.5863  -17.8712  -53.5247 H         1 UNK         0.0600 
    235 H235       -5.5511  -20.3286  -54.7425 H         1 UNK         0.3000 
    236 H236       -6.3823  -23.0451  -55.6675 H         1 UNK         0.0600 
    237 H237       -6.3412  -23.1199  -53.1931 H         1 UNK         0.0600 
    238 H238       -4.9963  -24.0365  -53.8560 H         1 UNK         0.0600 
    239 H239       -4.7187  -22.4395  -53.1745 H         1 UNK         0.0600 
    240 H240       -3.7728  -20.6221  -55.2266 H         1 UNK         0.3000 
    241 H241       -1.8427  -22.1303  -56.7412 H         1 UNK         0.0600 
    242 H242       -4.6193  -20.4919  -57.9847 H         1 UNK         0.3800 
    243 H243       -3.9774  -20.2346  -59.5836 H         1 UNK         0.3800 
    244 H244       -0.4729  -20.0631  -56.6550 H         1 UNK         0.0800 
    245 H245       -1.8319  -19.1668  -56.0177 H         1 UNK         0.0800 
    246 H246        0.1829  -18.4632  -54.6122 H         1 UNK         0.0800 
    247 H247        1.3638  -19.7438  -54.4990 H         1 UNK         0.0800 
@<TRIPOS>BOND
     1    1    2 1    
     2    1  127 1    
     3    1  128 1    
     4    1  129 1    
     5    2    3 2    
     6    2    4 am   BACKBONE|DICT|INTERRES
     7    4    5 1    
     8    4  130 1    
     9    5    6 1    
    10    5   65 1    
    11    5  131 1    
    12    6    7 1    
    13    6  132 1    
    14    6  133 1    
    15    7    8 1    
    16    8    9 1    
    17    8  134 1    
    18    8  135 1    
    19    9   10 ar   
    20    9   14 ar   
    21   10   11 ar   
    22   10  136 1    
    23   11   12 ar   
    24   11  126 1    
    25   12   13 ar   
    26   12  137 1    
    27   13   14 ar   
    28   13   15 1    
    29   14  138 1    
    30   15   16 1    
    31   15  139 1    
    32   15  140 1    
    33   16   17 1    
    34   17   18 1    
    35   17  141 1    
    36   17  142 1    
    37   18   19 1    
    38   18   67 1    
    39   18  143 1    
    40   19   20 am   BACKBONE|DICT|INTERRES
    41   19  144 1    
    42   20   21 2    
    43   20   22 1    
    44   22   23 1    
    45   22   24 1    
    46   22  145 1    
    47   23  146 1    
    48   23  147 1    
    49   23  148 1    
    50   24   25 am   BACKBONE|DICT|INTERRES
    51   24  149 1    
    52   25   26 2    
    53   25   27 1    
    54   27   28 1    
    55   27   29 1    
    56   27  150 1    
    57   28  151 1    
    58   28  152 1    
    59   28  153 1    
    60   29   30 am   BACKBONE|DICT|INTERRES
    61   29  154 1    
    62   30   31 2    
    63   30   32 1    
    64   32   33 1    
    65   32   34 1    
    66   32  155 1    
    67   33  156 1    
    68   33  157 1    
    69   33  158 1    
    70   34   35 am   BACKBONE|DICT|INTERRES
    71   34  159 1    
    72   35   36 2    
    73   35   37 1    
    74   37   38 1    
    75   37   39 1    
    76   37  160 1    
    77   38  161 1    
    78   38  162 1    
    79   38  163 1    
    80   39   40 am   BACKBONE|DICT|INTERRES
    81   39  164 1    
    82   40   41 2    
    83   40   42 1    
    84   42   43 1    
    85   42   44 1    
    86   42  165 1    
    87   43  166 1    
    88   43  167 1    
    89   43  168 1    
    90   44   45 am   BACKBONE|DICT|INTERRES
    91   44  169 1    
    92   45   46 2    
    93   45   47 1    
    94   47   48 1    
    95   47   49 1    
    96   47  170 1    
    97   48  171 1    
    98   48  172 1    
    99   48  173 1    
   100   49   50 am   BACKBONE|DICT|INTERRES
   101   49  174 1    
   102   50   51 2    
   103   50   52 1    
   104   52   53 1    
   105   52   54 1    
   106   52  175 1    
   107   53  176 1    
   108   53  177 1    
   109   53  178 1    
   110   54   55 am   BACKBONE|DICT|INTERRES
   111   54  179 1    
   112   55   56 2    
   113   55   57 1    
   114   57   58 1    
   115   57   59 1    
   116   57  180 1    
   117   58  181 1    
   118   58  182 1    
   119   58  183 1    
   120   59   60 am   BACKBONE|DICT|INTERRES
   121   59  184 1    
   122   60   61 2    
   123   60   62 1    
   124   62   63 1    
   125   62   64 1    
   126   62  185 1    
   127   63  186 1    
   128   63  187 1    
   129   63  188 1    
   130   64   65 am   BACKBONE|DICT|INTERRES
   131   64  189 1    
   132   65   66 2    
   133   67   68 2    
   134   67   69 am   BACKBONE|DICT|INTERRES
   135   69   70 1    
   136   69  190 1    
   137   70   71 1    
   138   70   72 1    
   139   70  191 1    
   140   71  192 1    
   141   71  193 1    
   142   71  194 1    
   143   72   73 2    
   144   72   74 am   BACKBONE|DICT|INTERRES
   145   74   75 1    
   146   74  195 1    
   147   75   76 1    
   148   75   77 1    
   149   75  196 1    
   150   76  197 1    
   151   76  198 1    
   152   76  199 1    
   153   77   78 2    
   154   77   79 am   BACKBONE|DICT|INTERRES
   155   79   80 1    
   156   79  200 1    
   157   80   81 1    
   158   80   82 1    
   159   80  201 1    
   160   81  202 1    
   161   81  203 1    
   162   81  204 1    
   163   82   83 2    
   164   82   84 am   BACKBONE|DICT|INTERRES
   165   84   85 1    
   166   84  205 1    
   167   85   86 1    
   168   85   87 1    
   169   85  206 1    
   170   86  207 1    
   171   86  208 1    
   172   86  209 1    
   173   87   88 2    
   174   87   89 am   BACKBONE|DICT|INTERRES
   175   89   90 1    
   176   89  210 1    
   177   90   91 1    
   178   90   92 1    
   179   90  211 1    
   180   91  212 1    
   181   91  213 1    
   182   91  214 1    
   183   92   93 2    
   184   92   94 am   BACKBONE|DICT|INTERRES
   185   94   95 1    
   186   94  215 1    
   187   95   96 1    
   188   95   97 1    
   189   95  216 1    
   190   96  217 1    
   191   96  218 1    
   192   96  219 1    
   193   97   98 2    
   194   97   99 am   BACKBONE|DICT|INTERRES
   195   99  100 1    
   196   99  220 1    
   197  100  101 1    
   198  100  102 1    
   199  100  221 1    
   200  101  222 1    
   201  101  223 1    
   202  101  224 1    
   203  102  103 2    
   204  102  104 am   BACKBONE|DICT|INTERRES
   205  104  105 1    
   206  104  225 1    
   207  105  106 1    
   208  105  107 1    
   209  105  226 1    
   210  106  227 1    
   211  106  228 1    
   212  106  229 1    
   213  107  108 2    
   214  107  109 am   BACKBONE|DICT|INTERRES
   215  109  110 1    
   216  109  230 1    
   217  110  111 1    
   218  110  112 1    
   219  110  231 1    
   220  111  232 1    
   221  111  233 1    
   222  111  234 1    
   223  112  113 2    
   224  112  114 am   BACKBONE|DICT|INTERRES
   225  114  115 1    
   226  114  235 1    
   227  115  116 1    
   228  115  117 1    
   229  115  236 1    
   230  116  237 1    
   231  116  238 1    
   232  116  239 1    
   233  117  118 2    
   234  117  119 am   BACKBONE|DICT|INTERRES
   235  119  120 1    
   236  119  240 1    
   237  120  121 1    
   238  120  124 1    
   239  120  241 1    
   240  121  122 am   BACKBONE|DICT|INTERRES
   241  121  123 2    
   242  122  242 1    
   243  122  243 1    
   244  124  125 1    
   245  124  244 1    
   246  124  245 1    
   247  125  126 1    
   248  126  246 1    
   249  126  247 1    
@<TRIPOS>SUBSTRUCTURE
     1 UNK         1 GROUP             0       ****    0 ROOT    
