@<TRIPOS>MOLECULE
3R540
247   249    1
SMALL
USER_CHARGES


@<TRIPOS>ATOM
      1 CA          3.0717  -11.1102  -45.0810 C.3       0 UNK        -0.1800 
      2 C           2.6795  -12.5701  -44.8691 C.2       0 UNK         0.5000 
      3 O           2.1980  -12.9125  -43.7922 O.2       0 UNK        -0.5000 
      4 N           2.8581  -13.4657  -45.8519 N.am      1 UNK        -0.5000 
      5 CA          3.4802  -13.2266  -47.1648 C.3       1 UNK         0.1400 
      6 C6          3.0134  -14.2573  -48.2218 C.3       23 UNK        -0.0398 
      7 S7          1.2437  -14.0797  -48.6247 S.3       23 UNK        -0.2404 
      8 C8          0.7319  -15.8189  -48.7629 C.3       23 UNK        -0.0205 
      9 C9         -0.6477  -15.9366  -49.3896 C.ar      23 UNK        -0.0193 
     10 C10        -0.7900  -16.3029  -50.7319 C.ar      23 UNK        -0.1150 
     11 C11        -2.0591  -16.4127  -51.3114 C.ar      23 UNK        -0.0193 
     12 C12        -3.1898  -16.1547  -50.5297 C.ar      23 UNK        -0.1150 
     13 C13        -3.0604  -15.8054  -49.1833 C.ar      23 UNK        -0.0193 
     14 C14        -1.7863  -15.6832  -48.6221 C.ar      23 UNK        -0.1150 
     15 C15        -4.2997  -15.5920  -48.3299 C.3       23 UNK        -0.0205 
     16 S16        -4.9760  -17.1789  -47.7434 S.3       23 UNK        -0.2404 
     17 C17        -3.6414  -17.7575  -46.6395 C.3       23 UNK        -0.0398 
     18 CA         -2.6782  -18.7745  -47.3037 C.3       11 UNK         0.1400 
     19 N          -1.4059  -18.8938  -46.5789 N.am      11 UNK        -0.5000 
     20 C          -0.3258  -19.5193  -47.0738 C.2       10 UNK         0.5000 
     21 O          -0.2846  -19.9984  -48.2045 O.2       10 UNK        -0.5000 
     22 CA          0.9002  -19.7027  -46.1616 C.3       10 UNK         0.1400 
     23 CB          1.9559  -18.6126  -46.3996 C.3       10 UNK        -0.1800 
     24 N           0.5855  -19.7961  -44.7370 N.am      10 UNK        -0.5000 
     25 C          -0.0847  -20.8147  -44.1788 C.2       9 UNK         0.5000 
     26 O          -0.6083  -21.7188  -44.8317 O.2       9 UNK        -0.5000 
     27 CA         -0.1887  -20.8257  -42.6450 C.3       9 UNK         0.1400 
     28 CB          1.1266  -21.3194  -42.0230 C.3       9 UNK        -0.1800 
     29 N          -0.4883  -19.4897  -42.1341 N.am      9 UNK        -0.5000 
     30 C          -1.6658  -19.1133  -41.6166 C.2       8 UNK         0.5000 
     31 O          -2.6018  -19.8861  -41.4075 O.2       8 UNK        -0.5000 
     32 CA         -1.8476  -17.6117  -41.3017 C.3       8 UNK         0.1400 
     33 CB         -1.5250  -17.3307  -39.8267 C.3       8 UNK        -0.1800 
     34 N          -1.0438  -16.7221  -42.1461 N.am      8 UNK        -0.5000 
     35 C          -1.1132  -16.6735  -43.4854 C.2       7 UNK         0.5000 
     36 O          -1.9008  -17.3471  -44.1457 O.2       7 UNK        -0.5000 
     37 CA         -0.0904  -15.7958  -44.2324 C.3       7 UNK         0.1400 
     38 CB         -0.7015  -14.4268  -44.5630 C.3       7 UNK        -0.1800 
     39 N           1.1826  -15.6107  -43.5285 N.am      7 UNK        -0.5000 
     40 C           1.9623  -16.5789  -43.0207 C.2       6 UNK         0.5000 
     41 O           1.7437  -17.7814  -43.1743 O.2       6 UNK        -0.5000 
     42 CA          3.1488  -16.1410  -42.1410 C.3       6 UNK         0.1400 
     43 CB          4.4412  -16.1360  -42.9702 C.3       6 UNK        -0.1800 
     44 N           2.9773  -14.8360  -41.4905 N.am      6 UNK        -0.5000 
     45 C           1.9560  -14.4809  -40.6922 C.2       5 UNK         0.5000 
     46 O           1.0291  -15.2410  -40.4031 O.2       5 UNK        -0.5000 
     47 CA          1.9481  -13.0272  -40.1658 C.3       5 UNK         0.1400 
     48 CB          1.0649  -12.8456  -38.9134 C.3       5 UNK        -0.1800 
     49 N           3.2893  -12.4742  -39.9483 N.am      5 UNK        -0.5000 
     50 C           4.2333  -12.9335  -39.1124 C.2       4 UNK         0.5000 
     51 O           4.0514  -13.8577  -38.3179 O.2       4 UNK        -0.5000 
     52 CA          5.6194  -12.2484  -39.1890 C.3       4 UNK         0.1400 
     53 CB          6.7629  -13.2095  -38.8015 C.3       4 UNK        -0.1800 
     54 N           5.9286  -11.6042  -40.4772 N.am      4 UNK        -0.5000 
     55 C           5.9372  -12.1824  -41.6881 C.2       3 UNK         0.5000 
     56 O           5.5333  -13.3288  -41.8926 O.2       3 UNK        -0.5000 
     57 CA          6.4223  -11.3106  -42.8677 C.3       3 UNK         0.1400 
     58 CB          7.7488  -10.5803  -42.5651 C.3       3 UNK        -0.1800 
     59 N           6.5089  -12.0718  -44.1203 N.am      3 UNK        -0.5000 
     60 C           7.3299  -13.0930  -44.4152 C.2       2 UNK         0.5000 
     61 O           8.2735  -13.4484  -43.7071 O.2       2 UNK        -0.5000 
     62 CA          7.0149  -13.8597  -45.7167 C.3       2 UNK         0.1400 
     63 CB          7.4394  -15.3379  -45.6391 C.3       2 UNK        -0.1800 
     64 N           5.5812  -13.8011  -46.0169 N.am      2 UNK        -0.5000 
     65 C           5.0237  -13.2136  -47.0832 C.2       1 UNK         0.5000 
     66 O           5.6691  -12.6531  -47.9688 O.2       1 UNK        -0.5000 
     67 C          -3.3438  -20.1508  -47.4938 C.2       11 UNK         0.5000 
     68 O          -3.7961  -20.4615  -48.5948 O.2       11 UNK        -0.5000 
     69 N          -3.3382  -20.9748  -46.4355 N.am      12 UNK        -0.5000 
     70 CA         -3.8487  -22.3448  -46.4659 C.3       12 UNK         0.1400 
     71 CB         -3.9265  -22.9046  -45.0378 C.3       12 UNK        -0.1800 
     72 C          -3.0058  -23.2552  -47.3751 C.2       12 UNK         0.5000 
     73 O          -3.5733  -24.0481  -48.1263 O.2       12 UNK        -0.5000 
     74 N          -1.6761  -23.0924  -47.3245 N.am      13 UNK        -0.5000 
     75 CA         -0.7228  -23.8048  -48.1756 C.3       13 UNK         0.1400 
     76 CB          0.7063  -23.5463  -47.6764 C.3       13 UNK        -0.1800 
     77 C          -0.8563  -23.4383  -49.6664 C.2       13 UNK         0.5000 
     78 O          -0.8268  -24.3339  -50.5103 O.2       13 UNK        -0.5000 
     79 N          -1.0134  -22.1399  -49.9635 N.am      14 UNK        -0.5000 
     80 CA         -1.2018  -21.6183  -51.3184 C.3       14 UNK         0.1400 
     81 CB         -0.9820  -20.0990  -51.3232 C.3       14 UNK        -0.1800 
     82 C          -2.5782  -21.9718  -51.9079 C.2       14 UNK         0.5000 
     83 O          -2.6754  -22.2153  -53.1116 O.2       14 UNK        -0.5000 
     84 N          -3.6160  -22.0093  -51.0608 N.am      15 UNK        -0.5000 
     85 CA         -4.9520  -22.4619  -51.4354 C.3       15 UNK         0.1400 
     86 CB         -5.9733  -22.0466  -50.3670 C.3       15 UNK        -0.1800 
     87 C          -5.0016  -23.9799  -51.6694 C.2       15 UNK         0.5000 
     88 O          -5.5923  -24.4155  -52.6594 O.2       15 UNK        -0.5000 
     89 N          -4.3950  -24.7476  -50.7520 N.am      16 UNK        -0.5000 
     90 CA         -4.3456  -26.2126  -50.7050 C.3       16 UNK         0.1400 
     91 CB         -3.4752  -26.7653  -51.8514 C.3       16 UNK        -0.1800 
     92 C          -5.7580  -26.8288  -50.6725 C.2       16 UNK         0.5000 
     93 O          -6.0817  -27.6817  -51.4981 O.2       16 UNK        -0.5000 
     94 N          -6.6043  -26.3162  -49.7652 N.am      17 UNK        -0.5000 
     95 CA         -8.0385  -26.6229  -49.6383 C.3       17 UNK         0.1400 
     96 CB         -8.2505  -28.0776  -49.1691 C.3       17 UNK        -0.1800 
     97 C          -8.8388  -26.2779  -50.9170 C.2       17 UNK         0.5000 
     98 O          -9.7933  -26.9746  -51.2642 O.2       17 UNK        -0.5000 
     99 N          -8.4004  -25.2078  -51.5962 N.am      18 UNK        -0.5000 
    100 CA        -8.8728  -24.6766  -52.8786 C.3       18 UNK         0.1400 
    101 CB       -10.3645  -24.2880  -52.8156 C.3       18 UNK        -0.1800 
    102 C         -8.5376  -25.5615  -54.0995 C.2       18 UNK         0.5000 
    103 O         -9.0632  -25.3031  -55.1833 O.2       18 UNK        -0.5000 
    104 N         -7.6575  -26.5621  -53.9377 N.am      19 UNK        -0.5000 
    105 CA        -7.1739  -27.4001  -55.0374 C.3       19 UNK         0.1400 
    106 CB        -6.6182  -28.7212  -54.4853 C.3       19 UNK        -0.1800 
    107 C         -6.1095  -26.6851  -55.8894 C.2       19 UNK         0.5000 
    108 O         -6.0649  -26.9026  -57.1010 O.2       19 UNK        -0.5000 
    109 N         -5.2806  -25.8485  -55.2496 N.am      20 UNK        -0.5000 
    110 CA        -4.2633  -25.0294  -55.9095 C.3       20 UNK         0.1400 
    111 CB        -2.9838  -25.0088  -55.0603 C.3       20 UNK        -0.1800 
    112 C         -4.7822  -23.6045  -56.1539 C.2       20 UNK         0.5000 
    113 O         -4.5146  -23.0401  -57.2153 O.2       20 UNK        -0.5000 
    114 N         -5.5247  -23.0595  -55.1767 N.am      21 UNK        -0.5000 
    115 CA        -6.2256  -21.7690  -55.2027 C.3       21 UNK         0.1400 
    116 CB        -7.4681  -21.8734  -56.1104 C.3       21 UNK        -0.1800 
    117 C         -5.3219  -20.5665  -55.5626 C.2       21 UNK         0.5000 
    118 O         -5.7644  -19.6600  -56.2703 O.2       21 UNK        -0.5000 
    119 N         -4.0655  -20.5970  -55.0942 N.am      22 UNK        -0.5000 
    120 CA        -2.9892  -19.6424  -55.4198 C.3       22 UNK         0.1400 
    121 C         -2.4975  -19.6951  -56.9019 C.2       22 UNK         0.5000 
    122 N         -2.8564  -20.6945  -57.6994 N.am      22 UNK        -0.7600 
    123 O         -1.7403  -18.8308  -57.3358 O.2       22 UNK        -0.5000 
    124 C124       -3.2857  -18.1904  -54.9424 C.3       23 UNK        -0.0398 
    125 S125       -3.4379  -18.0576  -53.1272 S.3       23 UNK        -0.2404 
    126 C126       -2.1940  -16.7641  -52.7893 C.3       23 UNK        -0.0205 
    127 H127        2.3846  -10.6343  -45.7804 H         1 UNK         0.0600 
    128 H128        4.0849  -11.0103  -45.4657 H         1 UNK         0.0600 
    129 H129        3.0208  -10.5641  -44.1389 H         1 UNK         0.0600 
    130 H130        2.5387  -14.4102  -45.6999 H         1 UNK         0.3000 
    131 H131        3.1793  -12.2389  -47.5198 H         1 UNK         0.0600 
    132 H132        3.5645  -14.1326  -49.1561 H         1 UNK         0.0800 
    133 H133        3.2187  -15.2736  -47.8803 H         1 UNK         0.0800 
    134 H134        0.7218  -16.2711  -47.7716 H         1 UNK         0.0800 
    135 H135        1.4631  -16.3731  -49.3537 H         1 UNK         0.0800 
    136 H136        0.0910  -16.4929  -51.3287 H         1 UNK         0.1150 
    137 H137       -4.1753  -16.2402  -50.9655 H         1 UNK         0.1150 
    138 H138       -1.6768  -15.4049  -47.5836 H         1 UNK         0.1150 
    139 H139       -4.0784  -14.9464  -47.4785 H         1 UNK         0.0800 
    140 H140       -5.0626  -15.0755  -48.9143 H         1 UNK         0.0800 
    141 H141       -4.0860  -18.1718  -45.7330 H         1 UNK         0.0800 
    142 H142       -3.0860  -16.8788  -46.3153 H         1 UNK         0.0800 
    143 H143       -2.4340  -18.4072  -48.3022 H         1 UNK         0.0600 
    144 H144       -1.3900  -18.5249  -45.6333 H         1 UNK         0.3000 
    145 H145        1.3592  -20.6510  -46.4453 H         1 UNK         0.0600 
    146 H146        2.8817  -18.8450  -45.8730 H         1 UNK         0.0600 
    147 H147        2.1992  -18.5268  -47.4595 H         1 UNK         0.0600 
    148 H148        1.6221  -17.6366  -46.0584 H         1 UNK         0.0600 
    149 H149        1.0076  -19.0905  -44.1372 H         1 UNK         0.3000 
    150 H150       -0.9764  -21.5313  -42.3731 H         1 UNK         0.0600 
    151 H151        1.3868  -22.3114  -42.3946 H         1 UNK         0.0600 
    152 H152        1.0446  -21.3896  -40.9383 H         1 UNK         0.0600 
    153 H153        1.9588  -20.6522  -42.2522 H         1 UNK         0.0600 
    154 H154        0.2182  -18.7797  -42.2919 H         1 UNK         0.3000 
    155 H155       -2.8974  -17.3673  -41.4753 H         1 UNK         0.0600 
    156 H156       -0.4792  -17.5409  -39.5987 H         1 UNK         0.0600 
    157 H157       -2.1365  -17.9476  -39.1670 H         1 UNK         0.0600 
    158 H158       -1.7196  -16.2889  -39.5712 H         1 UNK         0.0600 
    159 H159       -0.3472  -16.1581  -41.6697 H         1 UNK         0.3000 
    160 H160        0.1205  -16.2941  -45.1773 H         1 UNK         0.0600 
    161 H161       -0.8350  -13.8199  -43.6667 H         1 UNK         0.0600 
    162 H162       -1.6780  -14.5348  -45.0375 H         1 UNK         0.0600 
    163 H163       -0.0712  -13.8705  -45.2563 H         1 UNK         0.0600 
    164 H164        1.4653  -14.6476  -43.3653 H         1 UNK         0.3000 
    165 H165        3.2518  -16.8864  -41.3504 H         1 UNK         0.0600 
    166 H166        5.3152  -15.9909  -42.3352 H         1 UNK         0.0600 
    167 H167        4.5790  -17.0822  -43.4957 H         1 UNK         0.0600 
    168 H168        4.4333  -15.3412  -43.7157 H         1 UNK         0.0600 
    169 H169        3.7124  -14.1574  -41.6647 H         1 UNK         0.3000 
    170 H170        1.5054  -12.4304  -40.9646 H         1 UNK         0.0600 
    171 H171        0.0284  -13.1116  -39.1241 H         1 UNK         0.0600 
    172 H172        1.3995  -13.4721  -38.0863 H         1 UNK         0.0600 
    173 H173        1.0694  -11.8099  -38.5740 H         1 UNK         0.0600 
    174 H174        3.5509  -11.7179  -40.5642 H         1 UNK         0.3000 
    175 H175        5.5961  -11.4490  -38.4471 H         1 UNK         0.0600 
    176 H176        6.8096  -14.0686  -39.4719 H         1 UNK         0.0600 
    177 H177        7.7293  -12.7064  -38.8345 H         1 UNK         0.0600 
    178 H178        6.6337  -13.5906  -37.7879 H         1 UNK         0.0600 
    179 H179        6.2292  -10.6417  -40.4108 H         1 UNK         0.3000 
    180 H180        5.6532  -10.5543  -43.0299 H         1 UNK         0.0600 
    181 H181        8.5275  -11.2685  -42.2351 H         1 UNK         0.0600 
    182 H182        7.6211   -9.8343  -41.7804 H         1 UNK         0.0600 
    183 H183        8.1186  -10.0549  -43.4457 H         1 UNK         0.0600 
    184 H184        5.7763  -11.8823  -44.7857 H         1 UNK         0.3000 
    185 H185        7.5944  -13.3819  -46.5089 H         1 UNK         0.0600 
    186 H186        8.5153  -15.4318  -45.4872 H         1 UNK         0.0600 
    187 H187        6.9436  -15.8554  -44.8170 H         1 UNK         0.0600 
    188 H188        7.1974  -15.8655  -46.5618 H         1 UNK         0.0600 
    189 H189        4.9700  -14.2069  -45.3230 H         1 UNK         0.3000 
    190 H190       -2.8902  -20.6748  -45.5819 H         1 UNK         0.3000 
    191 H191       -4.8619  -22.3167  -46.8725 H         1 UNK         0.0600 
    192 H192       -2.9448  -22.9602  -44.5673 H         1 UNK         0.0600 
    193 H193       -4.3455  -23.9117  -45.0383 H         1 UNK         0.0600 
    194 H194       -4.5660  -22.2874  -44.4065 H         1 UNK         0.0600 
    195 H195       -1.2930  -22.4483  -46.6409 H         1 UNK         0.3000 
    196 H196       -0.9265  -24.8731  -48.0758 H         1 UNK         0.0600 
    197 H197        1.4254  -24.1517  -48.2294 H         1 UNK         0.0600 
    198 H198        0.8104  -23.7980  -46.6207 H         1 UNK         0.0600 
    199 H199        0.9933  -22.5032  -47.8042 H         1 UNK         0.0600 
    200 H200       -0.9622  -21.4489  -49.2194 H         1 UNK         0.3000 
    201 H201       -0.4430  -22.0688  -51.9615 H         1 UNK         0.0600 
    202 H202        0.0076  -19.8398  -50.9471 H         1 UNK         0.0600 
    203 H203       -1.7201  -19.5819  -50.7080 H         1 UNK         0.0600 
    204 H204       -1.0558  -19.7002  -52.3350 H         1 UNK         0.0600 
    205 H205       -3.4861  -21.7024  -50.1015 H         1 UNK         0.3000 
    206 H206       -5.2250  -21.9666  -52.3670 H         1 UNK         0.0600 
    207 H207       -5.9998  -20.9627  -50.2525 H         1 UNK         0.0600 
    208 H208       -6.9797  -22.3677  -50.6384 H         1 UNK         0.0600 
    209 H209       -5.7389  -22.4778  -49.3931 H         1 UNK         0.0600 
    210 H210       -3.9733  -24.2904  -49.9471 H         1 UNK         0.3000 
    211 H211       -3.8633  -26.4775  -49.7630 H         1 UNK         0.0600 
    212 H212       -3.9458  -26.6219  -52.8230 H         1 UNK         0.0600 
    213 H213       -3.3063  -27.8355  -51.7289 H         1 UNK         0.0600 
    214 H214       -2.4990  -26.2808  -51.8754 H         1 UNK         0.0600 
    215 H215       -6.2474  -25.6110  -49.1348 H         1 UNK         0.3000 
    216 H216       -8.4241  -25.9672  -48.8564 H         1 UNK         0.0600 
    217 H217       -9.2994  -28.2640  -48.9359 H         1 UNK         0.0600 
    218 H218       -7.6767  -28.2882  -48.2667 H         1 UNK         0.0600 
    219 H219       -7.9535  -28.7984  -49.9314 H         1 UNK         0.0600 
    220 H220       -7.5744  -24.7539  -51.2359 H         1 UNK         0.3000 
    221 H221       -8.3112  -23.7540  -53.0323 H         1 UNK         0.0600 
    222 H222      -11.0113  -25.1638  -52.7611 H         1 UNK         0.0600 
    223 H223      -10.5731  -23.6600  -51.9496 H         1 UNK         0.0600 
    224 H224      -10.6587  -23.7235  -53.7011 H         1 UNK         0.0600 
    225 H225       -7.2556  -26.7336  -53.0232 H         1 UNK         0.3000 
    226 H226       -8.0182  -27.6423  -55.6866 H         1 UNK         0.0600 
    227 H227       -7.3387  -29.2138  -53.8321 H         1 UNK         0.0600 
    228 H228       -6.3868  -29.4121  -55.2968 H         1 UNK         0.0600 
    229 H229       -5.6989  -28.5683  -53.9194 H         1 UNK         0.0600 
    230 H230       -5.4192  -25.6877  -54.2583 H         1 UNK         0.3000 
    231 H231       -4.0056  -25.4579  -56.8803 H         1 UNK         0.0600 
    232 H232       -2.5593  -26.0082  -54.9662 H         1 UNK         0.0600 
    233 H233       -3.1695  -24.6306  -54.0559 H         1 UNK         0.0600 
    234 H234       -2.2227  -24.3722  -55.5133 H         1 UNK         0.0600 
    235 H235       -5.6334  -23.5983  -54.3224 H         1 UNK         0.3000 
    236 H236       -6.5834  -21.5865  -54.1895 H         1 UNK         0.0600 
    237 H237       -7.1916  -22.0185  -57.1553 H         1 UNK         0.0600 
    238 H238       -8.1036  -22.7078  -55.8142 H         1 UNK         0.0600 
    239 H239       -8.0761  -20.9699  -56.0530 H         1 UNK         0.0600 
    240 H240       -3.7733  -21.3757  -54.5113 H         1 UNK         0.3000 
    241 H241       -2.1266  -19.9911  -54.8510 H         1 UNK         0.0600 
    242 H242       -3.4786  -21.4332  -57.3837 H         1 UNK         0.3800 
    243 H243       -2.5150  -20.7112  -58.6470 H         1 UNK         0.3800 
    244 H244       -4.1970  -17.8043  -55.3988 H         1 UNK         0.0800 
    245 H245       -2.4929  -17.5155  -55.2674 H         1 UNK         0.0800 
    246 H246       -2.4627  -15.8589  -53.3354 H         1 UNK         0.0800 
    247 H247       -1.2334  -17.0960  -53.1865 H         1 UNK         0.0800 
@<TRIPOS>BOND
     1    1    2 1    
     2    1  127 1    
     3    1  128 1    
     4    1  129 1    
     5    2    3 2    
     6    2    4 am   BACKBONE|DICT|INTERRES
     7    4    5 1    
     8    4  130 1    
     9    5    6 1    
    10    5   65 1    
    11    5  131 1    
    12    6    7 1    
    13    6  132 1    
    14    6  133 1    
    15    7    8 1    
    16    8    9 1    
    17    8  134 1    
    18    8  135 1    
    19    9   10 ar   
    20    9   14 ar   
    21   10   11 ar   
    22   10  136 1    
    23   11   12 ar   
    24   11  126 1    
    25   12   13 ar   
    26   12  137 1    
    27   13   14 ar   
    28   13   15 1    
    29   14  138 1    
    30   15   16 1    
    31   15  139 1    
    32   15  140 1    
    33   16   17 1    
    34   17   18 1    
    35   17  141 1    
    36   17  142 1    
    37   18   19 1    
    38   18   67 1    
    39   18  143 1    
    40   19   20 am   BACKBONE|DICT|INTERRES
    41   19  144 1    
    42   20   21 2    
    43   20   22 1    
    44   22   23 1    
    45   22   24 1    
    46   22  145 1    
    47   23  146 1    
    48   23  147 1    
    49   23  148 1    
    50   24   25 am   BACKBONE|DICT|INTERRES
    51   24  149 1    
    52   25   26 2    
    53   25   27 1    
    54   27   28 1    
    55   27   29 1    
    56   27  150 1    
    57   28  151 1    
    58   28  152 1    
    59   28  153 1    
    60   29   30 am   BACKBONE|DICT|INTERRES
    61   29  154 1    
    62   30   31 2    
    63   30   32 1    
    64   32   33 1    
    65   32   34 1    
    66   32  155 1    
    67   33  156 1    
    68   33  157 1    
    69   33  158 1    
    70   34   35 am   BACKBONE|DICT|INTERRES
    71   34  159 1    
    72   35   36 2    
    73   35   37 1    
    74   37   38 1    
    75   37   39 1    
    76   37  160 1    
    77   38  161 1    
    78   38  162 1    
    79   38  163 1    
    80   39   40 am   BACKBONE|DICT|INTERRES
    81   39  164 1    
    82   40   41 2    
    83   40   42 1    
    84   42   43 1    
    85   42   44 1    
    86   42  165 1    
    87   43  166 1    
    88   43  167 1    
    89   43  168 1    
    90   44   45 am   BACKBONE|DICT|INTERRES
    91   44  169 1    
    92   45   46 2    
    93   45   47 1    
    94   47   48 1    
    95   47   49 1    
    96   47  170 1    
    97   48  171 1    
    98   48  172 1    
    99   48  173 1    
   100   49   50 am   BACKBONE|DICT|INTERRES
   101   49  174 1    
   102   50   51 2    
   103   50   52 1    
   104   52   53 1    
   105   52   54 1    
   106   52  175 1    
   107   53  176 1    
   108   53  177 1    
   109   53  178 1    
   110   54   55 am   BACKBONE|DICT|INTERRES
   111   54  179 1    
   112   55   56 2    
   113   55   57 1    
   114   57   58 1    
   115   57   59 1    
   116   57  180 1    
   117   58  181 1    
   118   58  182 1    
   119   58  183 1    
   120   59   60 am   BACKBONE|DICT|INTERRES
   121   59  184 1    
   122   60   61 2    
   123   60   62 1    
   124   62   63 1    
   125   62   64 1    
   126   62  185 1    
   127   63  186 1    
   128   63  187 1    
   129   63  188 1    
   130   64   65 am   BACKBONE|DICT|INTERRES
   131   64  189 1    
   132   65   66 2    
   133   67   68 2    
   134   67   69 am   BACKBONE|DICT|INTERRES
   135   69   70 1    
   136   69  190 1    
   137   70   71 1    
   138   70   72 1    
   139   70  191 1    
   140   71  192 1    
   141   71  193 1    
   142   71  194 1    
   143   72   73 2    
   144   72   74 am   BACKBONE|DICT|INTERRES
   145   74   75 1    
   146   74  195 1    
   147   75   76 1    
   148   75   77 1    
   149   75  196 1    
   150   76  197 1    
   151   76  198 1    
   152   76  199 1    
   153   77   78 2    
   154   77   79 am   BACKBONE|DICT|INTERRES
   155   79   80 1    
   156   79  200 1    
   157   80   81 1    
   158   80   82 1    
   159   80  201 1    
   160   81  202 1    
   161   81  203 1    
   162   81  204 1    
   163   82   83 2    
   164   82   84 am   BACKBONE|DICT|INTERRES
   165   84   85 1    
   166   84  205 1    
   167   85   86 1    
   168   85   87 1    
   169   85  206 1    
   170   86  207 1    
   171   86  208 1    
   172   86  209 1    
   173   87   88 2    
   174   87   89 am   BACKBONE|DICT|INTERRES
   175   89   90 1    
   176   89  210 1    
   177   90   91 1    
   178   90   92 1    
   179   90  211 1    
   180   91  212 1    
   181   91  213 1    
   182   91  214 1    
   183   92   93 2    
   184   92   94 am   BACKBONE|DICT|INTERRES
   185   94   95 1    
   186   94  215 1    
   187   95   96 1    
   188   95   97 1    
   189   95  216 1    
   190   96  217 1    
   191   96  218 1    
   192   96  219 1    
   193   97   98 2    
   194   97   99 am   BACKBONE|DICT|INTERRES
   195   99  100 1    
   196   99  220 1    
   197  100  101 1    
   198  100  102 1    
   199  100  221 1    
   200  101  222 1    
   201  101  223 1    
   202  101  224 1    
   203  102  103 2    
   204  102  104 am   BACKBONE|DICT|INTERRES
   205  104  105 1    
   206  104  225 1    
   207  105  106 1    
   208  105  107 1    
   209  105  226 1    
   210  106  227 1    
   211  106  228 1    
   212  106  229 1    
   213  107  108 2    
   214  107  109 am   BACKBONE|DICT|INTERRES
   215  109  110 1    
   216  109  230 1    
   217  110  111 1    
   218  110  112 1    
   219  110  231 1    
   220  111  232 1    
   221  111  233 1    
   222  111  234 1    
   223  112  113 2    
   224  112  114 am   BACKBONE|DICT|INTERRES
   225  114  115 1    
   226  114  235 1    
   227  115  116 1    
   228  115  117 1    
   229  115  236 1    
   230  116  237 1    
   231  116  238 1    
   232  116  239 1    
   233  117  118 2    
   234  117  119 am   BACKBONE|DICT|INTERRES
   235  119  120 1    
   236  119  240 1    
   237  120  121 1    
   238  120  124 1    
   239  120  241 1    
   240  121  122 am   BACKBONE|DICT|INTERRES
   241  121  123 2    
   242  122  242 1    
   243  122  243 1    
   244  124  125 1    
   245  124  244 1    
   246  124  245 1    
   247  125  126 1    
   248  126  246 1    
   249  126  247 1    
@<TRIPOS>SUBSTRUCTURE
     1 UNK         1 GROUP             0       ****    0 ROOT    
