@<TRIPOS>MOLECULE
3R540
247   249    1
SMALL
USER_CHARGES


@<TRIPOS>ATOM
      1 CA         -2.3309   -9.7223  -51.3957 C.3       0 UNK        -0.1800 
      2 C          -2.0784  -11.2218  -51.3325 C.2       0 UNK         0.5000 
      3 O          -0.9357  -11.6578  -51.4684 O.2       0 UNK        -0.5000 
      4 N          -3.1391  -12.0107  -51.1197 N.am      1 UNK        -0.5000 
      5 CA         -3.1015  -13.4761  -51.0224 C.3       1 UNK         0.1400 
      6 C6         -4.4766  -14.1315  -51.3128 C.3       23 UNK        -0.0398 
      7 S7         -5.9443  -13.2897  -50.6112 S.3       23 UNK        -0.2404 
      8 C8         -6.0616  -13.9352  -48.9089 C.3       23 UNK        -0.0205 
      9 C9         -5.9912  -15.4535  -48.8252 C.ar      23 UNK        -0.0193 
     10 C10        -6.9265  -16.2564  -49.4866 C.ar      23 UNK        -0.1150 
     11 C11        -6.8224  -17.6504  -49.4394 C.ar      23 UNK        -0.0193 
     12 C12        -5.7962  -18.2391  -48.6943 C.ar      23 UNK        -0.1150 
     13 C13        -4.8762  -17.4458  -48.0052 C.ar      23 UNK        -0.0193 
     14 C14        -4.9765  -16.0558  -48.0784 C.ar      23 UNK        -0.1150 
     15 C15        -3.7611  -18.0790  -47.1934 C.3       23 UNK        -0.0205 
     16 S16        -4.2671  -18.3092  -45.4603 S.3       23 UNK        -0.2404 
     17 C17        -2.6630  -18.7012  -44.6813 C.3       23 UNK        -0.0398 
     18 CA         -2.3609  -20.1851  -44.3393 C.3       11 UNK         0.1400 
     19 N          -3.0927  -20.7235  -43.1861 N.am      11 UNK        -0.5000 
     20 C          -4.3751  -21.0977  -43.0540 C.2       10 UNK         0.5000 
     21 O          -5.2116  -21.0400  -43.9545 O.2       10 UNK        -0.5000 
     22 CA         -4.7958  -21.6840  -41.6893 C.3       10 UNK         0.1400 
     23 CB         -5.0351  -23.1976  -41.8165 C.3       10 UNK        -0.1800 
     24 N          -3.8112  -21.4591  -40.6287 N.am      10 UNK        -0.5000 
     25 C          -3.6083  -20.2945  -39.9966 C.2       9 UNK         0.5000 
     26 O          -4.2938  -19.2886  -40.1798 O.2       9 UNK        -0.5000 
     27 CA         -2.4154  -20.2379  -39.0189 C.3       9 UNK         0.1400 
     28 CB         -2.8887  -20.4863  -37.5787 C.3       9 UNK        -0.1800 
     29 N          -1.3392  -21.1849  -39.3404 N.am      9 UNK        -0.5000 
     30 C          -0.6022  -21.1523  -40.4583 C.2       8 UNK         0.5000 
     31 O          -0.7693  -20.3322  -41.3637 O.2       8 UNK        -0.5000 
     32 CA          0.4338  -22.2716  -40.6335 C.3       8 UNK         0.1400 
     33 CB         -0.2140  -23.4723  -41.3443 C.3       8 UNK        -0.1800 
     34 N           1.5506  -21.7897  -41.4422 N.am      8 UNK        -0.5000 
     35 C           2.6688  -21.2339  -40.9597 C.2       7 UNK         0.5000 
     36 O           2.9316  -21.1530  -39.7591 O.2       7 UNK        -0.5000 
     37 CA          3.6606  -20.6672  -41.9955 C.3       7 UNK         0.1400 
     38 CB          4.7167  -21.7198  -42.3647 C.3       7 UNK        -0.1800 
     39 N           3.0037  -20.1976  -43.2182 N.am      7 UNK        -0.5000 
     40 C           2.2683  -19.0833  -43.3100 C.2       6 UNK         0.5000 
     41 O           2.1103  -18.3041  -42.3685 O.2       6 UNK        -0.5000 
     42 CA          1.6144  -18.7927  -44.6814 C.3       6 UNK         0.1400 
     43 CB          0.7151  -17.5454  -44.6313 C.3       6 UNK        -0.1800 
     44 N           2.5859  -18.6124  -45.7629 N.am      6 UNK        -0.5000 
     45 C           3.3545  -19.5644  -46.3136 C.2       5 UNK         0.5000 
     46 O           3.3084  -20.7460  -45.9730 O.2       5 UNK        -0.5000 
     47 CA          4.3376  -19.1503  -47.4303 C.3       5 UNK         0.1400 
     48 CB          3.8883  -19.7284  -48.7813 C.3       5 UNK        -0.1800 
     49 N           4.4991  -17.7034  -47.5751 N.am      5 UNK        -0.5000 
     50 C           5.1207  -16.8928  -46.7073 C.2       4 UNK         0.5000 
     51 O           5.7104  -17.2939  -45.7037 O.2       4 UNK        -0.5000 
     52 CA          5.0507  -15.3765  -46.9939 C.3       4 UNK         0.1400 
     53 CB          6.4024  -14.8662  -47.5171 C.3       4 UNK        -0.1800 
     54 N           3.9983  -14.9845  -47.9414 N.am      4 UNK        -0.5000 
     55 C           2.6819  -15.1404  -47.7453 C.2       3 UNK         0.5000 
     56 O           2.2026  -15.6672  -46.7397 O.2       3 UNK        -0.5000 
     57 CA          1.7703  -14.7098  -48.9085 C.3       3 UNK         0.1400 
     58 CB          1.7504  -15.7971  -49.9956 C.3       3 UNK        -0.1800 
     59 N           0.3926  -14.4615  -48.4927 N.am      3 UNK        -0.5000 
     60 C          -0.0346  -13.4679  -47.7061 C.2       2 UNK         0.5000 
     61 O           0.7050  -12.6039  -47.2304 O.2       2 UNK        -0.5000 
     62 CA         -1.5612  -13.4143  -47.4689 C.3       2 UNK         0.1400 
     63 CB         -1.9669  -12.3677  -46.4166 C.3       2 UNK        -0.1800 
     64 N          -2.2802  -13.1312  -48.7134 N.am      2 UNK        -0.5000 
     65 C          -2.4733  -14.0028  -49.7135 C.2       1 UNK         0.5000 
     66 O          -2.1421  -15.1868  -49.6387 O.2       1 UNK        -0.5000 
     67 C          -2.3142  -21.1107  -45.5713 C.2       11 UNK         0.5000 
     68 O          -1.2222  -21.4717  -46.0137 O.2       11 UNK        -0.5000 
     69 N          -3.4857  -21.5089  -46.0797 N.am      12 UNK        -0.5000 
     70 CA         -3.6778  -22.3329  -47.2723 C.3       12 UNK         0.1400 
     71 CB         -5.1793  -22.4500  -47.5683 C.3       12 UNK        -0.1800 
     72 C          -3.0422  -23.7279  -47.1620 C.2       12 UNK         0.5000 
     73 O          -2.5958  -24.2638  -48.1743 O.2       12 UNK        -0.5000 
     74 N          -2.9836  -24.2692  -45.9376 N.am      13 UNK        -0.5000 
     75 CA         -2.3570  -25.5511  -45.6166 C.3       13 UNK         0.1400 
     76 CB         -2.6990  -25.9251  -44.1658 C.3       13 UNK        -0.1800 
     77 C          -0.8308  -25.5451  -45.8257 C.2       13 UNK         0.5000 
     78 O          -0.2805  -26.5405  -46.2969 O.2       13 UNK        -0.5000 
     79 N          -0.1808  -24.4237  -45.4852 N.am      14 UNK        -0.5000 
     80 CA          1.2611  -24.2302  -45.6455 C.3       14 UNK         0.1400 
     81 CB          1.7632  -23.2508  -44.5783 C.3       14 UNK        -0.1800 
     82 C           1.6157  -23.7348  -47.0566 C.2       14 UNK         0.5000 
     83 O           2.6196  -24.1698  -47.6210 O.2       14 UNK        -0.5000 
     84 N           0.7624  -22.8657  -47.6150 N.am      15 UNK        -0.5000 
     85 CA          0.8790  -22.3272  -48.9704 C.3       15 UNK         0.1400 
     86 CB         -0.0142  -21.0800  -49.0683 C.3       15 UNK        -0.1800 
     87 C           0.5228  -23.3405  -50.0787 C.2       15 UNK         0.5000 
     88 O           0.7460  -23.0455  -51.2545 O.2       15 UNK        -0.5000 
     89 N          -0.0676  -24.4838  -49.6923 N.am      16 UNK        -0.5000 
     90 CA         -0.6068  -25.5542  -50.5418 C.3       16 UNK         0.1400 
     91 CB          0.5391  -26.3131  -51.2411 C.3       16 UNK        -0.1800 
     92 C          -1.6719  -25.0342  -51.5308 C.2       16 UNK         0.5000 
     93 O          -1.7453  -25.5010  -52.6692 O.2       16 UNK        -0.5000 
     94 N          -2.4238  -24.0155  -51.0871 N.am      17 UNK        -0.5000 
     95 CA         -3.3119  -23.1087  -51.8241 C.3       17 UNK         0.1400 
     96 CB         -4.5241  -23.8593  -52.4030 C.3       17 UNK        -0.1800 
     97 C          -2.6055  -22.2683  -52.9109 C.2       17 UNK         0.5000 
     98 O          -2.8307  -21.0611  -52.9802 O.2       17 UNK        -0.5000 
     99 N          -1.7656  -22.9094  -53.7308 N.am      18 UNK        -0.5000 
    100 CA        -1.1005  -22.3714  -54.9158 C.3       18 UNK         0.1400 
    101 CB        -0.2697  -23.4873  -55.5670 C.3       18 UNK        -0.1800 
    102 C         -0.2291  -21.1268  -54.6735 C.2       18 UNK         0.5000 
    103 O         -0.2421  -20.2244  -55.5115 O.2       18 UNK        -0.5000 
    104 N          0.5045  -21.0834  -53.5504 N.am      19 UNK        -0.5000 
    105 CA         1.3665  -19.9452  -53.2117 C.3       19 UNK         0.1400 
    106 CB         2.4370  -20.3754  -52.1972 C.3       19 UNK        -0.1800 
    107 C          0.5763  -18.7257  -52.6995 C.2       19 UNK         0.5000 
    108 O          1.0611  -17.6015  -52.8270 O.2       19 UNK        -0.5000 
    109 N         -0.6201  -18.9626  -52.1439 N.am      20 UNK        -0.5000 
    110 CA        -1.5461  -17.9182  -51.7096 C.3       20 UNK         0.1400 
    111 CB        -2.4320  -18.4564  -50.5755 C.3       20 UNK        -0.1800 
    112 C         -2.4075  -17.4178  -52.8802 C.2       20 UNK         0.5000 
    113 O         -2.6595  -16.2185  -52.9827 O.2       20 UNK        -0.5000 
    114 N         -2.8614  -18.3505  -53.7304 N.am      21 UNK        -0.5000 
    115 CA        -3.6753  -18.1935  -54.9444 C.3       21 UNK         0.1400 
    116 CB        -2.9590  -17.3055  -55.9795 C.3       21 UNK        -0.1800 
    117 C         -5.1275  -17.7219  -54.7126 C.2       21 UNK         0.5000 
    118 O         -5.9840  -17.9951  -55.5543 O.2       21 UNK        -0.5000 
    119 N         -5.3834  -17.0449  -53.5879 N.am      22 UNK        -0.5000 
    120 CA        -6.6844  -16.5287  -53.1288 C.3       22 UNK         0.1400 
    121 C         -7.2435  -15.3327  -53.9592 C.2       22 UNK         0.5000 
    122 N         -6.4494  -14.6810  -54.8003 N.am      22 UNK        -0.7600 
    123 O         -8.4070  -14.9656  -53.8202 O.2       22 UNK        -0.5000 
    124 C124       -7.7505  -17.6362  -52.8886 C.3       23 UNK        -0.0398 
    125 S125       -7.1782  -19.0103  -51.8256 S.3       23 UNK        -0.2404 
    126 C126       -7.8127  -18.5298  -50.1867 C.3       23 UNK        -0.0205 
    127 H127       -2.0187   -9.3300  -52.3636 H         1 UNK         0.0600 
    128 H128       -3.3851   -9.4821  -51.2556 H         1 UNK         0.0600 
    129 H129       -1.7598   -9.2125  -50.6197 H         1 UNK         0.0600 
    130 H130       -4.0576  -11.6004  -51.0172 H         1 UNK         0.3000 
    131 H131       -2.4254  -13.8221  -51.8072 H         1 UNK         0.0600 
    132 H132       -4.4789  -15.1884  -51.0422 H         1 UNK         0.0800 
    133 H133       -4.6224  -14.1273  -52.3935 H         1 UNK         0.0800 
    134 H134       -7.0044  -13.6028  -48.4728 H         1 UNK         0.0800 
    135 H135       -5.2732  -13.4774  -48.3096 H         1 UNK         0.0800 
    136 H136       -7.7191  -15.7939  -50.0580 H         1 UNK         0.1150 
    137 H137       -5.7127  -19.3152  -48.6535 H         1 UNK         0.1150 
    138 H138       -4.2553  -15.4437  -47.5556 H         1 UNK         0.1150 
    139 H139       -3.4791  -19.0400  -47.6252 H         1 UNK         0.0800 
    140 H140       -2.8746  -17.4445  -47.2450 H         1 UNK         0.0800 
    141 H141       -1.8755  -18.3198  -45.3289 H         1 UNK         0.0800 
    142 H142       -2.5945  -18.1079  -43.7686 H         1 UNK         0.0800 
    143 H143       -1.3311  -20.1796  -43.9791 H         1 UNK         0.0600 
    144 H144       -2.5148  -20.7989  -42.3573 H         1 UNK         0.3000 
    145 H145       -5.7363  -21.2087  -41.4029 H         1 UNK         0.0600 
    146 H146       -5.3938  -23.6203  -40.8779 H         1 UNK         0.0600 
    147 H147       -5.7881  -23.4141  -42.5757 H         1 UNK         0.0600 
    148 H148       -4.1243  -23.7279  -42.0975 H         1 UNK         0.0600 
    149 H149       -3.2129  -22.2372  -40.3943 H         1 UNK         0.3000 
    150 H150       -1.9989  -19.2299  -39.0730 H         1 UNK         0.0600 
    151 H151       -3.6715  -19.7804  -37.2972 H         1 UNK         0.0600 
    152 H152       -2.0718  -20.3627  -36.8675 H         1 UNK         0.0600 
    153 H153       -3.2936  -21.4915  -37.4555 H         1 UNK         0.0600 
    154 H154       -1.1540  -21.9003  -38.6516 H         1 UNK         0.3000 
    155 H155        0.7901  -22.5918  -39.6521 H         1 UNK         0.0600 
    156 H156        0.5008  -24.2851  -41.4732 H         1 UNK         0.0600 
    157 H157       -0.5981  -23.2033  -42.3295 H         1 UNK         0.0600 
    158 H158       -1.0485  -23.8689  -40.7648 H         1 UNK         0.0600 
    159 H159        1.3943  -21.7412  -42.4366 H         1 UNK         0.3000 
    160 H160        4.1733  -19.8200  -41.5350 H         1 UNK         0.0600 
    161 H161        5.4429  -21.3195  -43.0724 H         1 UNK         0.0600 
    162 H162        4.2660  -22.6065  -42.8108 H         1 UNK         0.0600 
    163 H163        5.2685  -22.0435  -41.4812 H         1 UNK         0.0600 
    164 H164        3.1516  -20.7347  -44.0684 H         1 UNK         0.3000 
    165 H165        0.9857  -19.6500  -44.9304 H         1 UNK         0.0600 
    166 H166        1.2875  -16.6503  -44.3850 H         1 UNK         0.0600 
    167 H167        0.2270  -17.3692  -45.5898 H         1 UNK         0.0600 
    168 H168       -0.0607  -17.6500  -43.8726 H         1 UNK         0.0600 
    169 H169        2.6825  -17.6629  -46.1041 H         1 UNK         0.3000 
    170 H170        5.3111  -19.5774  -47.1811 H         1 UNK         0.0600 
    171 H171        3.8638  -20.8177  -48.7449 H         1 UNK         0.0600 
    172 H172        2.8914  -19.3819  -49.0579 H         1 UNK         0.0600 
    173 H173        4.5755  -19.4511  -49.5809 H         1 UNK         0.0600 
    174 H174        4.0485  -17.2794  -48.3716 H         1 UNK         0.3000 
    175 H175        4.8421  -14.8805  -46.0438 H         1 UNK         0.0600 
    176 H176        6.6546  -15.3118  -48.4802 H         1 UNK         0.0600 
    177 H177        6.3959  -13.7828  -47.6383 H         1 UNK         0.0600 
    178 H178        7.2082  -15.1079  -46.8227 H         1 UNK         0.0600 
    179 H179        4.3146  -14.5625  -48.8029 H         1 UNK         0.3000 
    180 H180        2.1658  -13.7862  -49.3360 H         1 UNK         0.0600 
    181 H181        1.3524  -16.7400  -49.6171 H         1 UNK         0.0600 
    182 H182        2.7511  -15.9943  -50.3818 H         1 UNK         0.0600 
    183 H183        1.1348  -15.4943  -50.8432 H         1 UNK         0.0600 
    184 H184       -0.3132  -15.0863  -48.8679 H         1 UNK         0.3000 
    185 H185       -1.8692  -14.3941  -47.0974 H         1 UNK         0.0600 
    186 H186       -1.4640  -12.5542  -45.4669 H         1 UNK         0.0600 
    187 H187       -1.7102  -11.3558  -46.7327 H         1 UNK         0.0600 
    188 H188       -3.0399  -12.3974  -46.2260 H         1 UNK         0.0600 
    189 H189       -2.5454  -12.1702  -48.8698 H         1 UNK         0.3000 
    190 H190       -4.3239  -21.2105  -45.5846 H         1 UNK         0.3000 
    191 H191       -3.2065  -21.8176  -48.1102 H         1 UNK         0.0600 
    192 H192       -5.3553  -23.0203  -48.4815 H         1 UNK         0.0600 
    193 H193       -5.6329  -21.4689  -47.7051 H         1 UNK         0.0600 
    194 H194       -5.7101  -22.9512  -46.7578 H         1 UNK         0.0600 
    195 H195       -3.3881  -23.7525  -45.1714 H         1 UNK         0.3000 
    196 H196       -2.7817  -26.3098  -46.2775 H         1 UNK         0.0600 
    197 H197       -2.2698  -26.8923  -43.9008 H         1 UNK         0.0600 
    198 H198       -3.7770  -25.9988  -44.0204 H         1 UNK         0.0600 
    199 H199       -2.3140  -25.1906  -43.4571 H         1 UNK         0.0600 
    200 H200       -0.7157  -23.6288  -45.1662 H         1 UNK         0.3000 
    201 H201        1.7746  -25.1816  -45.4893 H         1 UNK         0.0600 
    202 H202        1.6281  -23.6650  -43.5808 H         1 UNK         0.0600 
    203 H203        1.2436  -22.2936  -44.6315 H         1 UNK         0.0600 
    204 H204        2.8291  -23.0598  -44.7043 H         1 UNK         0.0600 
    205 H205       -0.0087  -22.5101  -47.0567 H         1 UNK         0.3000 
    206 H206        1.9138  -22.0255  -49.1337 H         1 UNK         0.0600 
    207 H207        0.2844  -20.3229  -48.3425 H         1 UNK         0.0600 
    208 H208        0.0442  -20.6239  -50.0543 H         1 UNK         0.0600 
    209 H209       -1.0606  -21.3223  -48.8875 H         1 UNK         0.0600 
    210 H210       -0.2614  -24.5850  -48.7056 H         1 UNK         0.3000 
    211 H211       -1.1173  -26.2518  -49.8763 H         1 UNK         0.0600 
    212 H212        1.0563  -25.6845  -51.9668 H         1 UNK         0.0600 
    213 H213        0.1626  -27.1870  -51.7739 H         1 UNK         0.0600 
    214 H214        1.2750  -26.6663  -50.5188 H         1 UNK         0.0600 
    215 H215       -2.3080  -23.7939  -50.1036 H         1 UNK         0.3000 
    216 H216       -3.6892  -22.4022  -51.0828 H         1 UNK         0.0600 
    217 H217       -4.2317  -24.5852  -53.1622 H         1 UNK         0.0600 
    218 H218       -5.2239  -23.1644  -52.8690 H         1 UNK         0.0600 
    219 H219       -5.0662  -24.3915  -51.6213 H         1 UNK         0.0600 
    220 H220       -1.6396  -23.9038  -53.5570 H         1 UNK         0.3000 
    221 H221       -1.8865  -22.0822  -55.6162 H         1 UNK         0.0600 
    222 H222        0.5004  -23.8595  -54.8898 H         1 UNK         0.0600 
    223 H223       -0.8982  -24.3306  -55.8541 H         1 UNK         0.0600 
    224 H224        0.2283  -23.1313  -56.4699 H         1 UNK         0.0600 
    225 H225        0.4816  -21.8612  -52.8968 H         1 UNK         0.3000 
    226 H226        1.8899  -19.6318  -54.1178 H         1 UNK         0.0600 
    227 H227        3.0091  -21.2279  -52.5632 H         1 UNK         0.0600 
    228 H228        3.1430  -19.5650  -52.0115 H         1 UNK         0.0600 
    229 H229        2.0037  -20.6510  -51.2386 H         1 UNK         0.0600 
    230 H230       -0.9686  -19.9108  -52.1406 H         1 UNK         0.3000 
    231 H231       -0.9813  -17.0684  -51.3203 H         1 UNK         0.0600 
    232 H232       -2.9976  -19.3384  -50.8768 H         1 UNK         0.0600 
    233 H233       -3.1516  -17.6999  -50.2616 H         1 UNK         0.0600 
    234 H234       -1.8358  -18.7184  -49.7019 H         1 UNK         0.0600 
    235 H235       -2.6805  -19.3220  -53.4851 H         1 UNK         0.3000 
    236 H236       -3.7479  -19.1958  -55.3693 H         1 UNK         0.0600 
    237 H237       -1.9570  -17.6799  -56.1903 H         1 UNK         0.0600 
    238 H238       -3.5054  -17.2901  -56.9232 H         1 UNK         0.0600 
    239 H239       -2.8680  -16.2736  -55.6401 H         1 UNK         0.0600 
    240 H240       -4.5859  -16.8176  -53.0074 H         1 UNK         0.3000 
    241 H241       -6.4718  -16.0886  -52.1578 H         1 UNK         0.0600 
    242 H242       -5.4933  -14.9687  -54.9309 H         1 UNK         0.3800 
    243 H243       -6.8165  -13.9032  -55.3258 H         1 UNK         0.3800 
    244 H244       -8.6522  -17.2077  -52.4490 H         1 UNK         0.0800 
    245 H245       -8.0653  -18.0632  -53.8416 H         1 UNK         0.0800 
    246 H246       -7.9967  -19.4364  -49.6082 H         1 UNK         0.0800 
    247 H247       -8.7798  -18.0337  -50.2780 H         1 UNK         0.0800 
@<TRIPOS>BOND
     1    1    2 1    
     2    1  127 1    
     3    1  128 1    
     4    1  129 1    
     5    2    3 2    
     6    2    4 am   BACKBONE|DICT|INTERRES
     7    4    5 1    
     8    4  130 1    
     9    5    6 1    
    10    5   65 1    
    11    5  131 1    
    12    6    7 1    
    13    6  132 1    
    14    6  133 1    
    15    7    8 1    
    16    8    9 1    
    17    8  134 1    
    18    8  135 1    
    19    9   10 ar   
    20    9   14 ar   
    21   10   11 ar   
    22   10  136 1    
    23   11   12 ar   
    24   11  126 1    
    25   12   13 ar   
    26   12  137 1    
    27   13   14 ar   
    28   13   15 1    
    29   14  138 1    
    30   15   16 1    
    31   15  139 1    
    32   15  140 1    
    33   16   17 1    
    34   17   18 1    
    35   17  141 1    
    36   17  142 1    
    37   18   19 1    
    38   18   67 1    
    39   18  143 1    
    40   19   20 am   BACKBONE|DICT|INTERRES
    41   19  144 1    
    42   20   21 2    
    43   20   22 1    
    44   22   23 1    
    45   22   24 1    
    46   22  145 1    
    47   23  146 1    
    48   23  147 1    
    49   23  148 1    
    50   24   25 am   BACKBONE|DICT|INTERRES
    51   24  149 1    
    52   25   26 2    
    53   25   27 1    
    54   27   28 1    
    55   27   29 1    
    56   27  150 1    
    57   28  151 1    
    58   28  152 1    
    59   28  153 1    
    60   29   30 am   BACKBONE|DICT|INTERRES
    61   29  154 1    
    62   30   31 2    
    63   30   32 1    
    64   32   33 1    
    65   32   34 1    
    66   32  155 1    
    67   33  156 1    
    68   33  157 1    
    69   33  158 1    
    70   34   35 am   BACKBONE|DICT|INTERRES
    71   34  159 1    
    72   35   36 2    
    73   35   37 1    
    74   37   38 1    
    75   37   39 1    
    76   37  160 1    
    77   38  161 1    
    78   38  162 1    
    79   38  163 1    
    80   39   40 am   BACKBONE|DICT|INTERRES
    81   39  164 1    
    82   40   41 2    
    83   40   42 1    
    84   42   43 1    
    85   42   44 1    
    86   42  165 1    
    87   43  166 1    
    88   43  167 1    
    89   43  168 1    
    90   44   45 am   BACKBONE|DICT|INTERRES
    91   44  169 1    
    92   45   46 2    
    93   45   47 1    
    94   47   48 1    
    95   47   49 1    
    96   47  170 1    
    97   48  171 1    
    98   48  172 1    
    99   48  173 1    
   100   49   50 am   BACKBONE|DICT|INTERRES
   101   49  174 1    
   102   50   51 2    
   103   50   52 1    
   104   52   53 1    
   105   52   54 1    
   106   52  175 1    
   107   53  176 1    
   108   53  177 1    
   109   53  178 1    
   110   54   55 am   BACKBONE|DICT|INTERRES
   111   54  179 1    
   112   55   56 2    
   113   55   57 1    
   114   57   58 1    
   115   57   59 1    
   116   57  180 1    
   117   58  181 1    
   118   58  182 1    
   119   58  183 1    
   120   59   60 am   BACKBONE|DICT|INTERRES
   121   59  184 1    
   122   60   61 2    
   123   60   62 1    
   124   62   63 1    
   125   62   64 1    
   126   62  185 1    
   127   63  186 1    
   128   63  187 1    
   129   63  188 1    
   130   64   65 am   BACKBONE|DICT|INTERRES
   131   64  189 1    
   132   65   66 2    
   133   67   68 2    
   134   67   69 am   BACKBONE|DICT|INTERRES
   135   69   70 1    
   136   69  190 1    
   137   70   71 1    
   138   70   72 1    
   139   70  191 1    
   140   71  192 1    
   141   71  193 1    
   142   71  194 1    
   143   72   73 2    
   144   72   74 am   BACKBONE|DICT|INTERRES
   145   74   75 1    
   146   74  195 1    
   147   75   76 1    
   148   75   77 1    
   149   75  196 1    
   150   76  197 1    
   151   76  198 1    
   152   76  199 1    
   153   77   78 2    
   154   77   79 am   BACKBONE|DICT|INTERRES
   155   79   80 1    
   156   79  200 1    
   157   80   81 1    
   158   80   82 1    
   159   80  201 1    
   160   81  202 1    
   161   81  203 1    
   162   81  204 1    
   163   82   83 2    
   164   82   84 am   BACKBONE|DICT|INTERRES
   165   84   85 1    
   166   84  205 1    
   167   85   86 1    
   168   85   87 1    
   169   85  206 1    
   170   86  207 1    
   171   86  208 1    
   172   86  209 1    
   173   87   88 2    
   174   87   89 am   BACKBONE|DICT|INTERRES
   175   89   90 1    
   176   89  210 1    
   177   90   91 1    
   178   90   92 1    
   179   90  211 1    
   180   91  212 1    
   181   91  213 1    
   182   91  214 1    
   183   92   93 2    
   184   92   94 am   BACKBONE|DICT|INTERRES
   185   94   95 1    
   186   94  215 1    
   187   95   96 1    
   188   95   97 1    
   189   95  216 1    
   190   96  217 1    
   191   96  218 1    
   192   96  219 1    
   193   97   98 2    
   194   97   99 am   BACKBONE|DICT|INTERRES
   195   99  100 1    
   196   99  220 1    
   197  100  101 1    
   198  100  102 1    
   199  100  221 1    
   200  101  222 1    
   201  101  223 1    
   202  101  224 1    
   203  102  103 2    
   204  102  104 am   BACKBONE|DICT|INTERRES
   205  104  105 1    
   206  104  225 1    
   207  105  106 1    
   208  105  107 1    
   209  105  226 1    
   210  106  227 1    
   211  106  228 1    
   212  106  229 1    
   213  107  108 2    
   214  107  109 am   BACKBONE|DICT|INTERRES
   215  109  110 1    
   216  109  230 1    
   217  110  111 1    
   218  110  112 1    
   219  110  231 1    
   220  111  232 1    
   221  111  233 1    
   222  111  234 1    
   223  112  113 2    
   224  112  114 am   BACKBONE|DICT|INTERRES
   225  114  115 1    
   226  114  235 1    
   227  115  116 1    
   228  115  117 1    
   229  115  236 1    
   230  116  237 1    
   231  116  238 1    
   232  116  239 1    
   233  117  118 2    
   234  117  119 am   BACKBONE|DICT|INTERRES
   235  119  120 1    
   236  119  240 1    
   237  120  121 1    
   238  120  124 1    
   239  120  241 1    
   240  121  122 am   BACKBONE|DICT|INTERRES
   241  121  123 2    
   242  122  242 1    
   243  122  243 1    
   244  124  125 1    
   245  124  244 1    
   246  124  245 1    
   247  125  126 1    
   248  126  246 1    
   249  126  247 1    
@<TRIPOS>SUBSTRUCTURE
     1 UNK         1 GROUP             0       ****    0 ROOT    
