@<TRIPOS>MOLECULE
3R540
247   249    1
SMALL
USER_CHARGES


@<TRIPOS>ATOM
      1 CA          1.5671  -12.0919  -48.4588 C.3       0 UNK        -0.1800 
      2 C           0.9503  -13.3875  -48.9659 C.2       0 UNK         0.5000 
      3 O           0.2869  -13.3843  -50.0020 O.2       0 UNK        -0.5000 
      4 N           1.1622  -14.4896  -48.2325 N.am      1 UNK        -0.5000 
      5 CA          0.6610  -15.8426  -48.5238 C.3       1 UNK         0.1400 
      6 C6          1.1893  -16.3949  -49.8780 C.3       23 UNK        -0.0398 
      7 S7          1.3651  -18.2091  -49.8920 S.3       23 UNK        -0.2404 
      8 C8          2.0368  -18.4747  -51.5563 C.3       23 UNK        -0.0205 
      9 C9          2.1733  -19.9585  -51.8556 C.ar      23 UNK        -0.0193 
     10 C10         1.1963  -20.6203  -52.6045 C.ar      23 UNK        -0.1150 
     11 C11         1.3268  -21.9795  -52.9024 C.ar      23 UNK        -0.0193 
     12 C12         2.4461  -22.6782  -52.4412 C.ar      23 UNK        -0.1150 
     13 C13         3.4261  -22.0298  -51.6828 C.ar      23 UNK        -0.0193 
     14 C14         3.2843  -20.6695  -51.3934 C.ar      23 UNK        -0.1150 
     15 C15         4.6530  -22.7939  -51.2088 C.3       23 UNK        -0.0205 
     16 S16         4.2615  -23.9881  -49.8924 S.3       23 UNK        -0.2404 
     17 C17         4.0635  -22.9144  -48.4298 C.3       23 UNK        -0.0398 
     18 CA          2.8502  -23.3416  -47.5612 C.3       11 UNK         0.1400 
     19 N           3.1566  -23.3216  -46.1250 N.am      11 UNK        -0.5000 
     20 C           2.4232  -23.9600  -45.2018 C.2       10 UNK         0.5000 
     21 O           1.4232  -24.6230  -45.4717 O.2       10 UNK        -0.5000 
     22 CA          2.8553  -23.8149  -43.7318 C.3       10 UNK         0.1400 
     23 CB          3.9012  -24.8804  -43.3717 C.3       10 UNK        -0.1800 
     24 N           3.3799  -22.4885  -43.4004 N.am      10 UNK        -0.5000 
     25 C           2.6622  -21.3581  -43.4196 C.2       9 UNK         0.5000 
     26 O           1.4897  -21.2975  -43.7939 O.2       9 UNK        -0.5000 
     27 CA          3.3997  -20.0810  -42.9963 C.3       9 UNK         0.1400 
     28 CB          3.7486  -19.2252  -44.2243 C.3       9 UNK        -0.1800 
     29 N           2.5867  -19.2907  -42.0735 N.am      9 UNK        -0.5000 
     30 C           2.7186  -19.3194  -40.7411 C.2       8 UNK         0.5000 
     31 O           3.4807  -20.0851  -40.1484 O.2       8 UNK        -0.5000 
     32 CA          1.9056  -18.2949  -39.9278 C.3       8 UNK         0.1400 
     33 CB          2.4787  -16.8809  -40.1116 C.3       8 UNK        -0.1800 
     34 N           0.4790  -18.2807  -40.2438 N.am      8 UNK        -0.5000 
     35 C          -0.3976  -19.2122  -39.8421 C.2       7 UNK         0.5000 
     36 O          -0.0826  -20.2274  -39.2205 O.2       7 UNK        -0.5000 
     37 CA         -1.8796  -18.9566  -40.1730 C.3       7 UNK         0.1400 
     38 CB         -2.5217  -18.0254  -39.1327 C.3       7 UNK        -0.1800 
     39 N          -2.0226  -18.3730  -41.5047 N.am      7 UNK        -0.5000 
     40 C          -2.1163  -19.1018  -42.6246 C.2       6 UNK         0.5000 
     41 O          -2.2831  -20.3200  -42.6278 O.2       6 UNK        -0.5000 
     42 CA         -1.9854  -18.3646  -43.9691 C.3       6 UNK         0.1400 
     43 CB         -3.3346  -18.2736  -44.6954 C.3       6 UNK        -0.1800 
     44 N          -1.3934  -17.0291  -43.8473 N.am      6 UNK        -0.5000 
     45 C          -0.0904  -16.8000  -43.6194 C.2       5 UNK         0.5000 
     46 O           0.7487  -17.6904  -43.5143 O.2       5 UNK        -0.5000 
     47 CA          0.3538  -15.3411  -43.4116 C.3       5 UNK         0.1400 
     48 CB          0.8832  -14.7396  -44.7191 C.3       5 UNK        -0.1800 
     49 N          -0.7054  -14.4980  -42.8573 N.am      5 UNK        -0.5000 
     50 C          -1.1884  -14.6421  -41.6139 C.2       4 UNK         0.5000 
     51 O          -0.7735  -15.4926  -40.8247 O.2       4 UNK        -0.5000 
     52 CA         -2.3630  -13.7332  -41.2017 C.3       4 UNK         0.1400 
     53 CB         -1.8419  -12.4564  -40.5264 C.3       4 UNK        -0.1800 
     54 N          -3.2437  -13.3659  -42.3148 N.am      4 UNK        -0.5000 
     55 C          -3.9364  -14.2355  -43.0629 C.2       3 UNK         0.5000 
     56 O          -3.9040  -15.4538  -42.8849 O.2       3 UNK        -0.5000 
     57 CA         -4.7751  -13.6780  -44.2321 C.3       3 UNK         0.1400 
     58 CB         -4.8018  -12.1349  -44.3229 C.3       3 UNK        -0.1800 
     59 N          -4.3538  -14.2673  -45.5085 N.am      3 UNK        -0.5000 
     60 C          -3.1320  -14.1943  -46.0548 C.2       2 UNK         0.5000 
     61 O          -2.1913  -13.5664  -45.5594 O.2       2 UNK        -0.5000 
     62 CA         -2.9268  -14.9663  -47.3666 C.3       2 UNK         0.1400 
     63 CB         -3.6826  -14.3209  -48.5420 C.3       2 UNK        -0.1800 
     64 N          -1.5032  -15.0172  -47.6708 N.am      2 UNK        -0.5000 
     65 C          -0.8761  -15.9798  -48.3552 C.2       1 UNK         0.5000 
     66 O          -1.4663  -16.9584  -48.8135 O.2       1 UNK        -0.5000 
     67 C           1.5801  -22.5242  -47.8803 C.2       11 UNK         0.5000 
     68 O           0.7654  -22.9496  -48.6972 O.2       11 UNK        -0.5000 
     69 N           1.4009  -21.4000  -47.1731 N.am      12 UNK        -0.5000 
     70 CA          0.2092  -20.5560  -47.2474 C.3       12 UNK         0.1400 
     71 CB          0.5146  -19.2151  -46.5730 C.3       12 UNK        -0.1800 
     72 C          -1.0215  -21.2258  -46.6079 C.2       12 UNK         0.5000 
     73 O          -2.1342  -21.0611  -47.1114 O.2       12 UNK        -0.5000 
     74 N          -0.7968  -21.9952  -45.5324 N.am      13 UNK        -0.5000 
     75 CA         -1.8011  -22.8434  -44.8914 C.3       13 UNK         0.1400 
     76 CB         -1.2604  -23.3860  -43.5590 C.3       13 UNK        -0.1800 
     77 C          -2.2464  -23.9962  -45.8088 C.2       13 UNK         0.5000 
     78 O          -3.4456  -24.2462  -45.9219 O.2       13 UNK        -0.5000 
     79 N          -1.2846  -24.6432  -46.4846 N.am      14 UNK        -0.5000 
     80 CA         -1.5190  -25.6908  -47.4830 C.3       14 UNK         0.1400 
     81 CB         -0.1842  -26.3445  -47.8707 C.3       14 UNK        -0.1800 
     82 C          -2.2583  -25.1730  -48.7317 C.2       14 UNK         0.5000 
     83 O          -3.1186  -25.8761  -49.2625 O.2       14 UNK        -0.5000 
     84 N          -1.9469  -23.9370  -49.1476 N.am      15 UNK        -0.5000 
     85 CA         -2.6572  -23.1983  -50.1951 C.3       15 UNK         0.1400 
     86 CB         -1.8242  -21.9690  -50.5941 C.3       15 UNK        -0.1800 
     87 C          -4.0760  -22.7573  -49.7776 C.2       15 UNK         0.5000 
     88 O          -4.8748  -22.4173  -50.6502 O.2       15 UNK        -0.5000 
     89 N          -4.3501  -22.7594  -48.4631 N.am      16 UNK        -0.5000 
     90 CA         -5.5690  -22.3019  -47.7913 C.3       16 UNK         0.1400 
     91 CB         -6.7638  -23.2124  -48.1433 C.3       16 UNK        -0.1800 
     92 C          -5.8362  -20.8052  -48.0455 C.2       16 UNK         0.5000 
     93 O          -6.9728  -20.4255  -48.3323 O.2       16 UNK        -0.5000 
     94 N          -4.7620  -20.0057  -47.9401 N.am      17 UNK        -0.5000 
     95 CA         -4.6238  -18.6053  -48.3469 C.3       17 UNK         0.1400 
     96 CB         -5.6763  -17.6862  -47.6925 C.3       17 UNK        -0.1800 
     97 C          -4.6136  -18.4812  -49.8809 C.2       17 UNK         0.5000 
     98 O          -5.6306  -18.7164  -50.5370 O.2       17 UNK        -0.5000 
     99 N          -3.4544  -18.1110  -50.4345 N.am      18 UNK        -0.5000 
    100 CA        -3.1895  -18.0147  -51.8687 C.3       18 UNK         0.1400 
    101 CB        -1.6756  -18.1348  -52.0971 C.3       18 UNK        -0.1800 
    102 C         -3.7885  -16.7378  -52.4935 C.2       18 UNK         0.5000 
    103 O         -3.0627  -15.9026  -53.0360 O.2       18 UNK        -0.5000 
    104 N         -5.1200  -16.6185  -52.4188 N.am      19 UNK        -0.5000 
    105 CA        -5.9155  -15.6047  -53.1170 C.3       19 UNK         0.1400 
    106 CB        -7.3285  -15.5795  -52.5151 C.3       19 UNK        -0.1800 
    107 C         -5.9731  -15.8527  -54.6399 C.2       19 UNK         0.5000 
    108 O         -6.1849  -14.9118  -55.4058 O.2       19 UNK        -0.5000 
    109 N         -5.7570  -17.1105  -55.0400 N.am      20 UNK        -0.5000 
    110 CA        -5.5108  -17.5609  -56.4040 C.3       20 UNK         0.1400 
    111 CB        -6.6211  -18.5445  -56.8084 C.3       20 UNK        -0.1800 
    112 C         -4.1352  -18.2484  -56.4388 C.2       20 UNK         0.5000 
    113 O         -3.5955  -18.6033  -55.3852 O.2       20 UNK        -0.5000 
    114 N         -3.5972  -18.4455  -57.6483 N.am      21 UNK        -0.5000 
    115 CA        -2.2896  -19.0522  -57.9173 C.3       21 UNK         0.1400 
    116 CB        -1.8503  -18.6593  -59.3396 C.3       21 UNK        -0.1800 
    117 C         -2.2810  -20.5814  -57.6945 C.2       21 UNK         0.5000 
    118 O         -2.1041  -21.3486  -58.6426 O.2       21 UNK        -0.5000 
    119 N         -2.4908  -20.9867  -56.4373 N.am      22 UNK        -0.5000 
    120 CA        -2.4983  -22.3721  -55.9324 C.3       22 UNK         0.1400 
    121 C         -3.7077  -23.2379  -56.4032 C.2       22 UNK         0.5000 
    122 N         -4.7511  -22.6613  -56.9870 N.am      22 UNK        -0.7600 
    123 O         -3.7201  -24.4503  -56.2074 O.2       22 UNK        -0.5000 
    124 C124       -1.1387  -23.1099  -56.1145 C.3       23 UNK        -0.0398 
    125 S125        0.2926  -22.1831  -55.4594 S.3       23 UNK        -0.2404 
    126 C126        0.2525  -22.6883  -53.7131 C.3       23 UNK        -0.0205 
    127 H127        0.7883  -11.3500  -48.2826 H         1 UNK         0.0600 
    128 H128        2.2600  -11.6915  -49.1989 H         1 UNK         0.0600 
    129 H129        2.1127  -12.2391  -47.5263 H         1 UNK         0.0600 
    130 H130        1.7314  -14.4133  -47.4014 H         1 UNK         0.3000 
    131 H131        1.0876  -16.4556  -47.7294 H         1 UNK         0.0600 
    132 H132        0.5589  -16.0724  -50.7073 H         1 UNK         0.0800 
    133 H133        2.1794  -15.9850  -50.0821 H         1 UNK         0.0800 
    134 H134        3.0098  -17.9881  -51.6387 H         1 UNK         0.0800 
    135 H135        1.3874  -17.9981  -52.2922 H         1 UNK         0.0800 
    136 H136        0.3363  -20.0783  -52.9695 H         1 UNK         0.1150 
    137 H137        2.5568  -23.7293  -52.6684 H         1 UNK         0.1150 
    138 H138        4.0403  -20.1588  -50.8137 H         1 UNK         0.1150 
    139 H139        5.0782  -23.3354  -52.0549 H         1 UNK         0.0800 
    140 H140        5.4323  -22.1124  -50.8638 H         1 UNK         0.0800 
    141 H141        4.0042  -21.8657  -48.7272 H         1 UNK         0.0800 
    142 H142        4.9907  -23.0026  -47.8620 H         1 UNK         0.0800 
    143 H143        2.6124  -24.3812  -47.7989 H         1 UNK         0.0600 
    144 H144        3.9670  -22.7986  -45.8279 H         1 UNK         0.3000 
    145 H145        1.9724  -23.9858  -43.1126 H         1 UNK         0.0600 
    146 H146        4.1461  -24.8499  -42.3098 H         1 UNK         0.0600 
    147 H147        3.5280  -25.8824  -43.5884 H         1 UNK         0.0600 
    148 H148        4.8257  -24.7457  -43.9345 H         1 UNK         0.0600 
    149 H149        4.3406  -22.4524  -43.0911 H         1 UNK         0.3000 
    150 H150        4.3400  -20.3595  -42.5156 H         1 UNK         0.0600 
    151 H151        4.3538  -19.7871  -44.9366 H         1 UNK         0.0600 
    152 H152        4.3211  -18.3435  -43.9361 H         1 UNK         0.0600 
    153 H153        2.8575  -18.8822  -44.7482 H         1 UNK         0.0600 
    154 H154        1.8841  -18.6910  -42.5028 H         1 UNK         0.3000 
    155 H155        2.0111  -18.5550  -38.8721 H         1 UNK         0.0600 
    156 H156        2.4281  -16.5574  -41.1508 H         1 UNK         0.0600 
    157 H157        3.5259  -16.8430  -39.8089 H         1 UNK         0.0600 
    158 H158        1.9382  -16.1524  -39.5066 H         1 UNK         0.0600 
    159 H159        0.1284  -17.4541  -40.7105 H         1 UNK         0.3000 
    160 H160       -2.4050  -19.9131  -40.1289 H         1 UNK         0.0600 
    161 H161       -2.0259  -17.0556  -39.0901 H         1 UNK         0.0600 
    162 H162       -2.4675  -18.4631  -38.1352 H         1 UNK         0.0600 
    163 H163       -3.5748  -17.8533  -39.3555 H         1 UNK         0.0600 
    164 H164       -1.9023  -17.3725  -41.5811 H         1 UNK         0.3000 
    165 H165       -1.3292  -18.9771  -44.5829 H         1 UNK         0.0600 
    166 H166       -3.2279  -17.7644  -45.6511 H         1 UNK         0.0600 
    167 H167       -3.7313  -19.2686  -44.9023 H         1 UNK         0.0600 
    168 H168       -4.0807  -17.7406  -44.1070 H         1 UNK         0.0600 
    169 H169       -2.0399  -16.2507  -43.8311 H         1 UNK         0.3000 
    170 H170        1.1787  -15.3470  -42.6975 H         1 UNK         0.0600 
    171 H171        1.7320  -15.3138  -45.0928 H         1 UNK         0.0600 
    172 H172        1.2198  -13.7126  -44.5764 H         1 UNK         0.0600 
    173 H173        0.1212  -14.7405  -45.4939 H         1 UNK         0.0600 
    174 H174       -1.1247  -13.8163  -43.4775 H         1 UNK         0.3000 
    175 H175       -2.9610  -14.2857  -40.4740 H         1 UNK         0.0600 
    176 H176       -1.2587  -11.8453  -41.2165 H         1 UNK         0.0600 
    177 H177       -2.6624  -11.8468  -40.1477 H         1 UNK         0.0600 
    178 H178       -1.1998  -12.6976  -39.6780 H         1 UNK         0.0600 
    179 H179       -3.3028  -12.3835  -42.5403 H         1 UNK         0.3000 
    180 H180       -5.7978  -14.0148  -44.0567 H         1 UNK         0.0600 
    181 H181       -3.8120  -11.7098  -44.4918 H         1 UNK         0.0600 
    182 H182       -5.2044  -11.6934  -43.4104 H         1 UNK         0.0600 
    183 H183       -5.4416  -11.8074  -45.1424 H         1 UNK         0.0600 
    184 H184       -5.0571  -14.8240  -45.9722 H         1 UNK         0.3000 
    185 H185       -3.2937  -15.9801  -47.2086 H         1 UNK         0.0600 
    186 H186       -3.3179  -13.3132  -48.7447 H         1 UNK         0.0600 
    187 H187       -3.5661  -14.9069  -49.4543 H         1 UNK         0.0600 
    188 H188       -4.7516  -14.2490  -48.3397 H         1 UNK         0.0600 
    189 H189       -0.9662  -14.2590  -47.2707 H         1 UNK         0.3000 
    190 H190        2.0907  -21.1451  -46.4831 H         1 UNK         0.3000 
    191 H191       -0.0167  -20.3702  -48.2991 H         1 UNK         0.0600 
    192 H192       -0.3188  -18.5214  -46.6853 H         1 UNK         0.0600 
    193 H193        1.3972  -18.7443  -47.0031 H         1 UNK         0.0600 
    194 H194        0.7034  -19.3477  -45.5096 H         1 UNK         0.0600 
    195 H195        0.1284  -21.9947  -45.1164 H         1 UNK         0.3000 
    196 H196       -2.6735  -22.2222  -44.6774 H         1 UNK         0.0600 
    197 H197       -2.0438  -23.9087  -43.0095 H         1 UNK         0.0600 
    198 H198       -0.8959  -22.5821  -42.9195 H         1 UNK         0.0600 
    199 H199       -0.4419  -24.0891  -43.7054 H         1 UNK         0.0600 
    200 H200       -0.3139  -24.4241  -46.2793 H         1 UNK         0.3000 
    201 H201       -2.1475  -26.4542  -47.0199 H         1 UNK         0.0600 
    202 H202        0.3157  -26.7678  -46.9994 H         1 UNK         0.0600 
    203 H203        0.4966  -25.6296  -48.3326 H         1 UNK         0.0600 
    204 H204       -0.3396  -27.1558  -48.5829 H         1 UNK         0.0600 
    205 H205       -1.1542  -23.4667  -48.7212 H         1 UNK         0.3000 
    206 H206       -2.7509  -23.8491  -51.0667 H         1 UNK         0.0600 
    207 H207       -0.8047  -22.2484  -50.8579 H         1 UNK         0.0600 
    208 H208       -2.2608  -21.4642  -51.4567 H         1 UNK         0.0600 
    209 H209       -1.7685  -21.2392  -49.7867 H         1 UNK         0.0600 
    210 H210       -3.6127  -23.0606  -47.8395 H         1 UNK         0.3000 
    211 H211       -5.3848  -22.4005  -46.7207 H         1 UNK         0.0600 
    212 H212       -7.0435  -23.1288  -49.1938 H         1 UNK         0.0600 
    213 H213       -7.6406  -22.9517  -47.5497 H         1 UNK         0.0600 
    214 H214       -6.5334  -24.2582  -47.9393 H         1 UNK         0.0600 
    215 H215       -3.8825  -20.4544  -47.6932 H         1 UNK         0.3000 
    216 H216       -3.6462  -18.2958  -47.9769 H         1 UNK         0.0600 
    217 H217       -5.4839  -16.6426  -47.9377 H         1 UNK         0.0600 
    218 H218       -5.6639  -17.7786  -46.6068 H         1 UNK         0.0600 
    219 H219       -6.6871  -17.9040  -48.0364 H         1 UNK         0.0600 
    220 H220       -2.6810  -17.8399  -49.8279 H         1 UNK         0.3000 
    221 H221       -3.6590  -18.8671  -52.3646 H         1 UNK         0.0600 
    222 H222       -1.1428  -17.2823  -51.6786 H         1 UNK         0.0600 
    223 H223       -1.2787  -19.0362  -51.6308 H         1 UNK         0.0600 
    224 H224       -1.4428  -18.1820  -53.1617 H         1 UNK         0.0600 
    225 H225       -5.6253  -17.3328  -51.9012 H         1 UNK         0.3000 
    226 H226       -5.4535  -14.6287  -52.9548 H         1 UNK         0.0600 
    227 H227       -7.8350  -16.5377  -52.6379 H         1 UNK         0.0600 
    228 H228       -7.2988  -15.3497  -51.4498 H         1 UNK         0.0600 
    229 H229       -7.9440  -14.8177  -52.9952 H         1 UNK         0.0600 
    230 H230       -5.5166  -17.7877  -54.3297 H         1 UNK         0.3000 
    231 H231       -5.4968  -16.7167  -57.0966 H         1 UNK         0.0600 
    232 H232       -7.6017  -18.0712  -56.7556 H         1 UNK         0.0600 
    233 H233       -6.4855  -18.8940  -57.8325 H         1 UNK         0.0600 
    234 H234       -6.6389  -19.4219  -56.1601 H         1 UNK         0.0600 
    235 H235       -4.1212  -18.1569  -58.4621 H         1 UNK         0.3000 
    236 H236       -1.5634  -18.6257  -57.2217 H         1 UNK         0.0600 
    237 H237       -1.7846  -17.5764  -59.4469 H         1 UNK         0.0600 
    238 H238       -0.8651  -19.0663  -59.5713 H         1 UNK         0.0600 
    239 H239       -2.5456  -19.0299  -60.0939 H         1 UNK         0.0600 
    240 H240       -2.7014  -20.2648  -55.7540 H         1 UNK         0.3000 
    241 H241       -2.6566  -22.2693  -54.8587 H         1 UNK         0.0600 
    242 H242       -5.5327  -23.2276  -57.2780 H         1 UNK         0.3800 
    243 H243       -4.7564  -21.6695  -57.1582 H         1 UNK         0.3800 
    244 H244       -0.9564  -23.3074  -57.1717 H         1 UNK         0.0800 
    245 H245       -1.1628  -24.0877  -55.6308 H         1 UNK         0.0800 
    246 H246       -0.7268  -22.4564  -53.2945 H         1 UNK         0.0800 
    247 H247        0.3715  -23.7708  -53.6451 H         1 UNK         0.0800 
@<TRIPOS>BOND
     1    1    2 1    
     2    1  127 1    
     3    1  128 1    
     4    1  129 1    
     5    2    3 2    
     6    2    4 am   BACKBONE|DICT|INTERRES
     7    4    5 1    
     8    4  130 1    
     9    5    6 1    
    10    5   65 1    
    11    5  131 1    
    12    6    7 1    
    13    6  132 1    
    14    6  133 1    
    15    7    8 1    
    16    8    9 1    
    17    8  134 1    
    18    8  135 1    
    19    9   10 ar   
    20    9   14 ar   
    21   10   11 ar   
    22   10  136 1    
    23   11   12 ar   
    24   11  126 1    
    25   12   13 ar   
    26   12  137 1    
    27   13   14 ar   
    28   13   15 1    
    29   14  138 1    
    30   15   16 1    
    31   15  139 1    
    32   15  140 1    
    33   16   17 1    
    34   17   18 1    
    35   17  141 1    
    36   17  142 1    
    37   18   19 1    
    38   18   67 1    
    39   18  143 1    
    40   19   20 am   BACKBONE|DICT|INTERRES
    41   19  144 1    
    42   20   21 2    
    43   20   22 1    
    44   22   23 1    
    45   22   24 1    
    46   22  145 1    
    47   23  146 1    
    48   23  147 1    
    49   23  148 1    
    50   24   25 am   BACKBONE|DICT|INTERRES
    51   24  149 1    
    52   25   26 2    
    53   25   27 1    
    54   27   28 1    
    55   27   29 1    
    56   27  150 1    
    57   28  151 1    
    58   28  152 1    
    59   28  153 1    
    60   29   30 am   BACKBONE|DICT|INTERRES
    61   29  154 1    
    62   30   31 2    
    63   30   32 1    
    64   32   33 1    
    65   32   34 1    
    66   32  155 1    
    67   33  156 1    
    68   33  157 1    
    69   33  158 1    
    70   34   35 am   BACKBONE|DICT|INTERRES
    71   34  159 1    
    72   35   36 2    
    73   35   37 1    
    74   37   38 1    
    75   37   39 1    
    76   37  160 1    
    77   38  161 1    
    78   38  162 1    
    79   38  163 1    
    80   39   40 am   BACKBONE|DICT|INTERRES
    81   39  164 1    
    82   40   41 2    
    83   40   42 1    
    84   42   43 1    
    85   42   44 1    
    86   42  165 1    
    87   43  166 1    
    88   43  167 1    
    89   43  168 1    
    90   44   45 am   BACKBONE|DICT|INTERRES
    91   44  169 1    
    92   45   46 2    
    93   45   47 1    
    94   47   48 1    
    95   47   49 1    
    96   47  170 1    
    97   48  171 1    
    98   48  172 1    
    99   48  173 1    
   100   49   50 am   BACKBONE|DICT|INTERRES
   101   49  174 1    
   102   50   51 2    
   103   50   52 1    
   104   52   53 1    
   105   52   54 1    
   106   52  175 1    
   107   53  176 1    
   108   53  177 1    
   109   53  178 1    
   110   54   55 am   BACKBONE|DICT|INTERRES
   111   54  179 1    
   112   55   56 2    
   113   55   57 1    
   114   57   58 1    
   115   57   59 1    
   116   57  180 1    
   117   58  181 1    
   118   58  182 1    
   119   58  183 1    
   120   59   60 am   BACKBONE|DICT|INTERRES
   121   59  184 1    
   122   60   61 2    
   123   60   62 1    
   124   62   63 1    
   125   62   64 1    
   126   62  185 1    
   127   63  186 1    
   128   63  187 1    
   129   63  188 1    
   130   64   65 am   BACKBONE|DICT|INTERRES
   131   64  189 1    
   132   65   66 2    
   133   67   68 2    
   134   67   69 am   BACKBONE|DICT|INTERRES
   135   69   70 1    
   136   69  190 1    
   137   70   71 1    
   138   70   72 1    
   139   70  191 1    
   140   71  192 1    
   141   71  193 1    
   142   71  194 1    
   143   72   73 2    
   144   72   74 am   BACKBONE|DICT|INTERRES
   145   74   75 1    
   146   74  195 1    
   147   75   76 1    
   148   75   77 1    
   149   75  196 1    
   150   76  197 1    
   151   76  198 1    
   152   76  199 1    
   153   77   78 2    
   154   77   79 am   BACKBONE|DICT|INTERRES
   155   79   80 1    
   156   79  200 1    
   157   80   81 1    
   158   80   82 1    
   159   80  201 1    
   160   81  202 1    
   161   81  203 1    
   162   81  204 1    
   163   82   83 2    
   164   82   84 am   BACKBONE|DICT|INTERRES
   165   84   85 1    
   166   84  205 1    
   167   85   86 1    
   168   85   87 1    
   169   85  206 1    
   170   86  207 1    
   171   86  208 1    
   172   86  209 1    
   173   87   88 2    
   174   87   89 am   BACKBONE|DICT|INTERRES
   175   89   90 1    
   176   89  210 1    
   177   90   91 1    
   178   90   92 1    
   179   90  211 1    
   180   91  212 1    
   181   91  213 1    
   182   91  214 1    
   183   92   93 2    
   184   92   94 am   BACKBONE|DICT|INTERRES
   185   94   95 1    
   186   94  215 1    
   187   95   96 1    
   188   95   97 1    
   189   95  216 1    
   190   96  217 1    
   191   96  218 1    
   192   96  219 1    
   193   97   98 2    
   194   97   99 am   BACKBONE|DICT|INTERRES
   195   99  100 1    
   196   99  220 1    
   197  100  101 1    
   198  100  102 1    
   199  100  221 1    
   200  101  222 1    
   201  101  223 1    
   202  101  224 1    
   203  102  103 2    
   204  102  104 am   BACKBONE|DICT|INTERRES
   205  104  105 1    
   206  104  225 1    
   207  105  106 1    
   208  105  107 1    
   209  105  226 1    
   210  106  227 1    
   211  106  228 1    
   212  106  229 1    
   213  107  108 2    
   214  107  109 am   BACKBONE|DICT|INTERRES
   215  109  110 1    
   216  109  230 1    
   217  110  111 1    
   218  110  112 1    
   219  110  231 1    
   220  111  232 1    
   221  111  233 1    
   222  111  234 1    
   223  112  113 2    
   224  112  114 am   BACKBONE|DICT|INTERRES
   225  114  115 1    
   226  114  235 1    
   227  115  116 1    
   228  115  117 1    
   229  115  236 1    
   230  116  237 1    
   231  116  238 1    
   232  116  239 1    
   233  117  118 2    
   234  117  119 am   BACKBONE|DICT|INTERRES
   235  119  120 1    
   236  119  240 1    
   237  120  121 1    
   238  120  124 1    
   239  120  241 1    
   240  121  122 am   BACKBONE|DICT|INTERRES
   241  121  123 2    
   242  122  242 1    
   243  122  243 1    
   244  124  125 1    
   245  124  244 1    
   246  124  245 1    
   247  125  126 1    
   248  126  246 1    
   249  126  247 1    
@<TRIPOS>SUBSTRUCTURE
     1 UNK         1 GROUP             0       ****    0 ROOT    
