@<TRIPOS>MOLECULE
3R540
247   249    1
SMALL
USER_CHARGES


@<TRIPOS>ATOM
      1 CA          2.2828  -15.7909  -50.9624 C.3       0 UNK        -0.1800 
      2 C           2.4222  -14.8192  -49.8005 C.2       0 UNK         0.5000 
      3 O           3.4397  -14.1352  -49.6912 O.2       0 UNK        -0.5000 
      4 N           1.4021  -14.7536  -48.9360 N.am      1 UNK        -0.5000 
      5 CA          1.3354  -13.8516  -47.7794 C.3       1 UNK         0.1400 
      6 C6          0.2689  -14.3061  -46.7537 C.3       23 UNK        -0.0398 
      7 S7         -1.4200  -14.4519  -47.4422 S.3       23 UNK        -0.2404 
      8 C8         -1.7645  -16.2224  -47.2232 C.3       23 UNK        -0.0205 
      9 C9         -1.0287  -17.0697  -48.2473 C.ar      23 UNK        -0.0193 
     10 C10        -1.5379  -17.1829  -49.5414 C.ar      23 UNK        -0.1150 
     11 C11        -0.8979  -17.9823  -50.4904 C.ar      23 UNK        -0.0193 
     12 C12         0.2793  -18.6519  -50.1463 C.ar      23 UNK        -0.1150 
     13 C13         0.8054  -18.5390  -48.8554 C.ar      23 UNK        -0.0193 
     14 C14         0.1426  -17.7520  -47.9076 C.ar      23 UNK        -0.1150 
     15 C15         2.0837  -19.2751  -48.4758 C.3       23 UNK        -0.0205 
     16 S16         1.9218  -21.0887  -48.5800 S.3       23 UNK        -0.2404 
     17 C17         0.3905  -21.3699  -47.6346 C.3       23 UNK        -0.0398 
     18 CA          0.1259  -22.8689  -47.3759 C.3       11 UNK         0.1400 
     19 N           1.1182  -23.4764  -46.4834 N.am      11 UNK        -0.5000 
     20 C           1.2913  -24.7998  -46.3452 C.2       10 UNK         0.5000 
     21 O           0.6256  -25.6379  -46.9509 O.2       10 UNK        -0.5000 
     22 CA          2.3395  -25.2753  -45.3204 C.3       10 UNK         0.1400 
     23 CB          3.7309  -25.3378  -45.9668 C.3       10 UNK        -0.1800 
     24 N           2.4012  -24.4348  -44.1255 N.am      10 UNK        -0.5000 
     25 C           1.3703  -24.1735  -43.3102 C.2       9 UNK         0.5000 
     26 O           0.2624  -24.6967  -43.4261 O.2       9 UNK        -0.5000 
     27 CA          1.5887  -23.1073  -42.2209 C.3       9 UNK         0.1400 
     28 CB          1.8537  -23.7757  -40.8641 C.3       9 UNK        -0.1800 
     29 N           2.6630  -22.1474  -42.5001 N.am      9 UNK        -0.5000 
     30 C           2.7459  -21.3475  -43.5722 C.2       8 UNK         0.5000 
     31 O           1.9634  -21.3854  -44.5247 O.2       8 UNK        -0.5000 
     32 CA          3.8641  -20.2918  -43.5387 C.3       8 UNK         0.1400 
     33 CB          4.3910  -19.9610  -44.9447 C.3       8 UNK        -0.1800 
     34 N           3.3255  -19.0803  -42.9321 N.am      8 UNK        -0.5000 
     35 C           3.1245  -18.9071  -41.6187 C.2       7 UNK         0.5000 
     36 O           3.5889  -19.6467  -40.7500 O.2       7 UNK        -0.5000 
     37 CA          2.2011  -17.7411  -41.2186 C.3       7 UNK         0.1400 
     38 CB          3.0124  -16.4598  -40.9757 C.3       7 UNK        -0.1800 
     39 N           1.1652  -17.4705  -42.2196 N.am      7 UNK        -0.5000 
     40 C           0.1723  -18.3027  -42.5639 C.2       6 UNK         0.5000 
     41 O          -0.0189  -19.3960  -42.0295 O.2       6 UNK        -0.5000 
     42 CA         -0.7696  -17.8004  -43.6790 C.3       6 UNK         0.1400 
     43 CB         -1.7444  -18.8870  -44.1716 C.3       6 UNK        -0.1800 
     44 N          -1.5310  -16.6256  -43.2443 N.am      6 UNK        -0.5000 
     45 C          -1.0340  -15.3871  -43.1298 C.2       5 UNK         0.5000 
     46 O           0.1179  -15.0879  -43.4596 O.2       5 UNK        -0.5000 
     47 CA         -1.9539  -14.3342  -42.4813 C.3       5 UNK         0.1400 
     48 CB         -2.0475  -14.5689  -40.9646 C.3       5 UNK        -0.1800 
     49 N          -1.4473  -12.9810  -42.7089 N.am      5 UNK        -0.5000 
     50 C          -1.6054  -12.2991  -43.8476 C.2       4 UNK         0.5000 
     51 O          -2.3368  -12.6704  -44.7686 O.2       4 UNK        -0.5000 
     52 CA         -0.8118  -10.9888  -43.9793 C.3       4 UNK         0.1400 
     53 CB          0.7045  -11.2050  -43.7920 C.3       4 UNK        -0.1800 
     54 N          -1.0672  -10.4132  -45.2958 N.am      4 UNK        -0.5000 
     55 C          -0.9416   -9.1247  -45.6250 C.2       3 UNK         0.5000 
     56 O          -0.5736   -8.2525  -44.8356 O.2       3 UNK        -0.5000 
     57 CA         -1.2518   -8.7728  -47.0894 C.3       3 UNK         0.1400 
     58 CB         -0.9541   -7.2997  -47.4377 C.3       3 UNK        -0.1800 
     59 N          -0.4954   -9.6612  -47.9683 N.am      3 UNK        -0.5000 
     60 C          -0.7982   -9.9579  -49.2347 C.2       2 UNK         0.5000 
     61 O          -1.8034   -9.5386  -49.8100 O.2       2 UNK        -0.5000 
     62 CA          0.1824  -10.8706  -49.9987 C.3       2 UNK         0.1400 
     63 CB          1.4681  -10.1124  -50.3809 C.3       2 UNK        -0.1800 
     64 N           0.4923  -12.1430  -49.3343 N.am      2 UNK        -0.5000 
     65 C           1.1406  -12.3717  -48.1813 C.2       1 UNK         0.5000 
     66 O           1.5782  -11.4842  -47.4472 O.2       1 UNK        -0.5000 
     67 C          -1.3148  -23.0680  -46.8687 C.2       11 UNK         0.5000 
     68 O          -2.2316  -23.1527  -47.6871 O.2       11 UNK        -0.5000 
     69 N          -1.4945  -23.1500  -45.5443 N.am      12 UNK        -0.5000 
     70 CA         -2.7751  -23.4702  -44.9195 C.3       12 UNK         0.1400 
     71 CB         -2.7806  -22.9784  -43.4638 C.3       12 UNK        -0.1800 
     72 C          -3.0665  -24.9783  -45.0059 C.2       12 UNK         0.5000 
     73 O          -4.1806  -25.3592  -45.3633 O.2       12 UNK        -0.5000 
     74 N          -2.0507  -25.8050  -44.7164 N.am      13 UNK        -0.5000 
     75 CA         -2.1177  -27.2679  -44.7374 C.3       13 UNK         0.1400 
     76 CB         -0.8189  -27.8453  -44.1551 C.3       13 UNK        -0.1800 
     77 C          -2.3912  -27.8492  -46.1369 C.2       13 UNK         0.5000 
     78 O          -3.2113  -28.7587  -46.2657 O.2       13 UNK        -0.5000 
     79 N          -1.7256  -27.2986  -47.1618 N.am      14 UNK        -0.5000 
     80 CA         -1.9205  -27.6636  -48.5683 C.3       14 UNK         0.1400 
     81 CB         -0.6713  -27.2559  -49.3662 C.3       14 UNK        -0.1800 
     82 C          -3.1775  -27.0261  -49.1937 C.2       14 UNK         0.5000 
     83 O          -3.5358  -27.3871  -50.3149 O.2       14 UNK        -0.5000 
     84 N          -3.7958  -26.0715  -48.4812 N.am      15 UNK        -0.5000 
     85 CA         -4.9378  -25.2427  -48.8834 C.3       15 UNK         0.1400 
     86 CB         -6.1921  -26.1004  -49.1469 C.3       15 UNK        -0.1800 
     87 C          -4.6239  -24.2765  -50.0452 C.2       15 UNK         0.5000 
     88 O          -5.5463  -23.7469  -50.6648 O.2       15 UNK        -0.5000 
     89 N          -3.3328  -24.0109  -50.2870 N.am      16 UNK        -0.5000 
     90 CA         -2.8264  -23.0520  -51.2691 C.3       16 UNK         0.1400 
     91 CB         -1.2939  -23.1403  -51.3168 C.3       16 UNK        -0.1800 
     92 C          -3.2667  -21.6102  -50.9674 C.2       16 UNK         0.5000 
     93 O          -3.5485  -20.8561  -51.8997 O.2       16 UNK        -0.5000 
     94 N          -3.3543  -21.2753  -49.6720 N.am      17 UNK        -0.5000 
     95 CA         -3.8540  -19.9946  -49.1754 C.3       17 UNK         0.1400 
     96 CB         -3.5088  -19.8541  -47.6843 C.3       17 UNK        -0.1800 
     97 C          -5.3628  -19.8023  -49.4123 C.2       17 UNK         0.5000 
     98 O          -5.7944  -18.6796  -49.6729 O.2       17 UNK        -0.5000 
     99 N          -6.1319  -20.8970  -49.3360 N.am      18 UNK        -0.5000 
    100 CA        -7.5729  -20.9115  -49.5902 C.3       18 UNK         0.1400 
    101 CB        -8.2011  -22.1358  -48.9063 C.3       18 UNK        -0.1800 
    102 C         -7.8850  -20.9030  -51.0967 C.2       18 UNK         0.5000 
    103 O         -8.7934  -20.1924  -51.5281 O.2       18 UNK        -0.5000 
    104 N         -7.1141  -21.6805  -51.8690 N.am      19 UNK        -0.5000 
    105 CA        -7.2222  -21.7918  -53.3243 C.3       19 UNK         0.1400 
    106 CB        -6.4525  -23.0426  -53.7774 C.3       19 UNK        -0.1800 
    107 C         -6.7049  -20.5533  -54.0816 C.2       19 UNK         0.5000 
    108 O         -7.0582  -20.3773  -55.2481 O.2       19 UNK        -0.5000 
    109 N         -5.8612  -19.7460  -53.4201 N.am      20 UNK        -0.5000 
    110 CA        -5.1052  -18.6111  -53.9614 C.3       20 UNK         0.1400 
    111 CB        -6.0414  -17.4794  -54.4324 C.3       20 UNK        -0.1800 
    112 C         -4.0930  -19.0592  -55.0371 C.2       20 UNK         0.5000 
    113 O         -3.8965  -18.3733  -56.0425 O.2       20 UNK        -0.5000 
    114 N         -3.4565  -20.2151  -54.7942 N.am      21 UNK        -0.5000 
    115 CA        -2.5270  -20.8892  -55.7090 C.3       21 UNK         0.1400 
    116 CB        -2.2306  -22.2936  -55.1633 C.3       21 UNK        -0.1800 
    117 C         -1.2184  -20.1115  -55.9586 C.2       21 UNK         0.5000 
    118 O         -0.5310  -20.3682  -56.9474 O.2       21 UNK        -0.5000 
    119 N         -0.9182  -19.1637  -55.0660 N.am      22 UNK        -0.5000 
    120 CA         0.1383  -18.1520  -55.1873 C.3       22 UNK         0.1400 
    121 C         -0.1217  -17.0679  -56.2784 C.2       22 UNK         0.5000 
    122 N         -1.3253  -16.9395  -56.8281 N.am      22 UNK        -0.7600 
    123 O          0.7948  -16.3361  -56.6423 O.2       22 UNK        -0.5000 
    124 C124        0.4501  -17.5160  -53.8056 C.3       23 UNK        -0.0398 
    125 S125       -1.0263  -16.8011  -52.9931 S.3       23 UNK        -0.2404 
    126 C126       -1.5129  -18.1454  -51.8683 C.3       23 UNK        -0.0205 
    127 H127        2.8734  -16.6881  -50.7780 H         1 UNK         0.0600 
    128 H128        2.6329  -15.3313  -51.8866 H         1 UNK         0.0600 
    129 H129        1.2449  -16.0862  -51.1081 H         1 UNK         0.0600 
    130 H130        0.5989  -15.3550  -49.0645 H         1 UNK         0.3000 
    131 H131        2.3024  -13.9035  -47.2743 H         1 UNK         0.0600 
    132 H132        0.5700  -15.2603  -46.3214 H         1 UNK         0.0800 
    133 H133        0.2327  -13.6164  -45.9104 H         1 UNK         0.0800 
    134 H134       -2.8384  -16.3854  -47.3247 H         1 UNK         0.0800 
    135 H135       -1.5099  -16.5220  -46.2080 H         1 UNK         0.0800 
    136 H136       -2.4477  -16.6616  -49.8052 H         1 UNK         0.1150 
    137 H137        0.7797  -19.2743  -50.8744 H         1 UNK         0.1150 
    138 H138        0.5394  -17.6706  -46.9061 H         1 UNK         0.1150 
    139 H139        2.3906  -19.0085  -47.4648 H         1 UNK         0.0800 
    140 H140        2.8902  -18.9527  -49.1354 H         1 UNK         0.0800 
    141 H141       -0.4256  -20.9390  -48.2173 H         1 UNK         0.0800 
    142 H142        0.4339  -20.8120  -46.6974 H         1 UNK         0.0800 
    143 H143        0.1904  -23.3903  -48.3327 H         1 UNK         0.0600 
    144 H144        1.6595  -22.8361  -45.9112 H         1 UNK         0.3000 
    145 H145        2.0633  -26.2823  -45.0033 H         1 UNK         0.0600 
    146 H146        3.7215  -25.9758  -46.8516 H         1 UNK         0.0600 
    147 H147        4.4684  -25.7505  -45.2781 H         1 UNK         0.0600 
    148 H148        4.0753  -24.3504  -46.2775 H         1 UNK         0.0600 
    149 H149        3.2714  -23.9539  -43.9540 H         1 UNK         0.3000 
    150 H150        0.6607  -22.5365  -42.1447 H         1 UNK         0.0600 
    151 H151        1.9020  -23.0374  -40.0634 H         1 UNK         0.0600 
    152 H152        1.0567  -24.4760  -40.6101 H         1 UNK         0.0600 
    153 H153        2.7919  -24.3320  -40.8669 H         1 UNK         0.0600 
    154 H154        3.3258  -22.0002  -41.7512 H         1 UNK         0.3000 
    155 H155        4.6972  -20.6690  -42.9417 H         1 UNK         0.0600 
    156 H156        3.6152  -19.5287  -45.5755 H         1 UNK         0.0600 
    157 H157        4.7593  -20.8576  -45.4449 H         1 UNK         0.0600 
    158 H158        5.2166  -19.2508  -44.8979 H         1 UNK         0.0600 
    159 H159        2.8819  -18.4285  -43.5615 H         1 UNK         0.3000 
    160 H160        1.7041  -18.0168  -40.2862 H         1 UNK         0.0600 
    161 H161        3.5145  -16.1228  -41.8835 H         1 UNK         0.0600 
    162 H162        3.7785  -16.6207  -40.2160 H         1 UNK         0.0600 
    163 H163        2.3730  -15.6491  -40.6255 H         1 UNK         0.0600 
    164 H164        1.1892  -16.5613  -42.6714 H         1 UNK         0.3000 
    165 H165       -0.1382  -17.5199  -44.5240 H         1 UNK         0.0600 
    166 H166       -1.2032  -19.7659  -44.5256 H         1 UNK         0.0600 
    167 H167       -2.4192  -19.2135  -43.3795 H         1 UNK         0.0600 
    168 H168       -2.3529  -18.5281  -45.0015 H         1 UNK         0.0600 
    169 H169       -2.4695  -16.8042  -42.9171 H         1 UNK         0.3000 
    170 H170       -2.9516  -14.4270  -42.9158 H         1 UNK         0.0600 
    171 H171       -1.0682  -14.5138  -40.4871 H         1 UNK         0.0600 
    172 H172       -2.4656  -15.5511  -40.7411 H         1 UNK         0.0600 
    173 H173       -2.6934  -13.8293  -40.4909 H         1 UNK         0.0600 
    174 H174       -0.8059  -12.6262  -42.0150 H         1 UNK         0.3000 
    175 H175       -1.1794  -10.3058  -43.2108 H         1 UNK         0.0600 
    176 H176        0.9344  -11.6076  -42.8054 H         1 UNK         0.0600 
    177 H177        1.1066  -11.8974  -44.5316 H         1 UNK         0.0600 
    178 H178        1.2523  -10.2674  -43.8869 H         1 UNK         0.0600 
    179 H179       -1.4393  -11.0716  -45.9695 H         1 UNK         0.3000 
    180 H180       -2.3188   -8.9532  -47.2347 H         1 UNK         0.0600 
    181 H181        0.1055   -7.0686  -47.3235 H         1 UNK         0.0600 
    182 H182       -1.5125   -6.6229  -46.7898 H         1 UNK         0.0600 
    183 H183       -1.2381   -7.0677  -48.4641 H         1 UNK         0.0600 
    184 H184        0.3313  -10.0995  -47.5659 H         1 UNK         0.3000 
    185 H185       -0.3151  -11.1459  -50.9301 H         1 UNK         0.0600 
    186 H186        1.2338   -9.2164  -50.9570 H         1 UNK         0.0600 
    187 H187        2.0337   -9.7956  -49.5043 H         1 UNK         0.0600 
    188 H188        2.1220  -10.7320  -50.9945 H         1 UNK         0.0600 
    189 H189        0.1563  -12.9616  -49.8215 H         1 UNK         0.3000 
    190 H190       -0.6870  -23.1107  -44.9386 H         1 UNK         0.3000 
    191 H191       -3.5693  -22.9418  -45.4518 H         1 UNK         0.0600 
    192 H192       -2.5987  -21.9049  -43.4107 H         1 UNK         0.0600 
    193 H193       -3.7466  -23.1681  -42.9946 H         1 UNK         0.0600 
    194 H194       -2.0216  -23.4755  -42.8598 H         1 UNK         0.0600 
    195 H195       -1.1766  -25.4005  -44.3895 H         1 UNK         0.3000 
    196 H196       -2.9424  -27.5682  -44.0877 H         1 UNK         0.0600 
    197 H197        0.0469  -27.5713  -44.7578 H         1 UNK         0.0600 
    198 H198       -0.8592  -28.9344  -44.1138 H         1 UNK         0.0600 
    199 H199       -0.6472  -27.4866  -43.1400 H         1 UNK         0.0600 
    200 H200       -1.0166  -26.5934  -46.9738 H         1 UNK         0.3000 
    201 H201       -2.0305  -28.7476  -48.6396 H         1 UNK         0.0600 
    202 H202       -0.7466  -27.5777  -50.4057 H         1 UNK         0.0600 
    203 H203        0.2284  -27.7104  -48.9510 H         1 UNK         0.0600 
    204 H204       -0.5303  -26.1742  -49.3681 H         1 UNK         0.0600 
    205 H205       -3.4272  -25.8693  -47.5616 H         1 UNK         0.3000 
    206 H206       -5.1542  -24.6064  -48.0241 H         1 UNK         0.0600 
    207 H207       -6.0905  -26.7042  -50.0488 H         1 UNK         0.0600 
    208 H208       -6.3919  -26.7723  -48.3122 H         1 UNK         0.0600 
    209 H209       -7.0752  -25.4740  -49.2753 H         1 UNK         0.0600 
    210 H210       -2.6512  -24.4288  -49.6706 H         1 UNK         0.3000 
    211 H211       -3.2240  -23.3274  -52.2476 H         1 UNK         0.0600 
    212 H212       -0.8785  -22.4348  -52.0367 H         1 UNK         0.0600 
    213 H213       -0.9637  -24.1376  -51.6080 H         1 UNK         0.0600 
    214 H214       -0.8496  -22.9071  -50.3499 H         1 UNK         0.0600 
    215 H215       -3.0809  -21.9643  -48.9770 H         1 UNK         0.3000 
    216 H216       -3.3446  -19.2021  -49.7202 H         1 UNK         0.0600 
    217 H217       -3.9324  -20.6667  -47.0929 H         1 UNK         0.0600 
    218 H218       -2.4307  -19.8515  -47.5277 H         1 UNK         0.0600 
    219 H219       -3.8926  -18.9164  -47.2805 H         1 UNK         0.0600 
    220 H220       -5.6906  -21.7878  -49.1645 H         1 UNK         0.3000 
    221 H221       -8.0172  -20.0163  -49.1495 H         1 UNK         0.0600 
    222 H222       -7.8074  -23.0708  -49.3049 H         1 UNK         0.0600 
    223 H223       -8.0168  -22.1253  -47.8319 H         1 UNK         0.0600 
    224 H224       -9.2822  -22.1490  -49.0504 H         1 UNK         0.0600 
    225 H225       -6.4365  -22.2934  -51.4213 H         1 UNK         0.3000 
    226 H226       -8.2750  -21.9225  -53.5829 H         1 UNK         0.0600 
    227 H227       -6.8436  -23.9413  -53.2999 H         1 UNK         0.0600 
    228 H228       -6.5333  -23.1856  -54.8557 H         1 UNK         0.0600 
    229 H229       -5.3919  -22.9697  -53.5338 H         1 UNK         0.0600 
    230 H230       -5.6013  -20.0257  -52.4833 H         1 UNK         0.3000 
    231 H231       -4.5163  -18.2191  -53.1324 H         1 UNK         0.0600 
    232 H232       -6.6142  -17.7631  -55.3155 H         1 UNK         0.0600 
    233 H233       -5.4710  -16.5860  -54.6888 H         1 UNK         0.0600 
    234 H234       -6.7465  -17.2005  -53.6493 H         1 UNK         0.0600 
    235 H235       -3.6308  -20.6689  -53.9033 H         1 UNK         0.3000 
    236 H236       -3.0289  -20.9954  -56.6728 H         1 UNK         0.0600 
    237 H237       -1.7256  -22.2468  -54.1996 H         1 UNK         0.0600 
    238 H238       -3.1464  -22.8714  -55.0370 H         1 UNK         0.0600 
    239 H239       -1.5863  -22.8506  -55.8447 H         1 UNK         0.0600 
    240 H240       -1.5672  -19.0182  -54.3086 H         1 UNK         0.3000 
    241 H241        1.0406  -18.6752  -55.5093 H         1 UNK         0.0600 
    242 H242       -1.4702  -16.2365  -57.5351 H         1 UNK         0.3800 
    243 H243       -2.1051  -17.5170  -56.5339 H         1 UNK         0.3800 
    244 H244        1.2056  -16.7342  -53.9016 H         1 UNK         0.0800 
    245 H245        0.8949  -18.2642  -53.1490 H         1 UNK         0.0800 
    246 H246       -1.2535  -19.1194  -52.2847 H         1 UNK         0.0800 
    247 H247       -2.5989  -18.1415  -51.7764 H         1 UNK         0.0800 
@<TRIPOS>BOND
     1    1    2 1    
     2    1  127 1    
     3    1  128 1    
     4    1  129 1    
     5    2    3 2    
     6    2    4 am   BACKBONE|DICT|INTERRES
     7    4    5 1    
     8    4  130 1    
     9    5    6 1    
    10    5   65 1    
    11    5  131 1    
    12    6    7 1    
    13    6  132 1    
    14    6  133 1    
    15    7    8 1    
    16    8    9 1    
    17    8  134 1    
    18    8  135 1    
    19    9   10 ar   
    20    9   14 ar   
    21   10   11 ar   
    22   10  136 1    
    23   11   12 ar   
    24   11  126 1    
    25   12   13 ar   
    26   12  137 1    
    27   13   14 ar   
    28   13   15 1    
    29   14  138 1    
    30   15   16 1    
    31   15  139 1    
    32   15  140 1    
    33   16   17 1    
    34   17   18 1    
    35   17  141 1    
    36   17  142 1    
    37   18   19 1    
    38   18   67 1    
    39   18  143 1    
    40   19   20 am   BACKBONE|DICT|INTERRES
    41   19  144 1    
    42   20   21 2    
    43   20   22 1    
    44   22   23 1    
    45   22   24 1    
    46   22  145 1    
    47   23  146 1    
    48   23  147 1    
    49   23  148 1    
    50   24   25 am   BACKBONE|DICT|INTERRES
    51   24  149 1    
    52   25   26 2    
    53   25   27 1    
    54   27   28 1    
    55   27   29 1    
    56   27  150 1    
    57   28  151 1    
    58   28  152 1    
    59   28  153 1    
    60   29   30 am   BACKBONE|DICT|INTERRES
    61   29  154 1    
    62   30   31 2    
    63   30   32 1    
    64   32   33 1    
    65   32   34 1    
    66   32  155 1    
    67   33  156 1    
    68   33  157 1    
    69   33  158 1    
    70   34   35 am   BACKBONE|DICT|INTERRES
    71   34  159 1    
    72   35   36 2    
    73   35   37 1    
    74   37   38 1    
    75   37   39 1    
    76   37  160 1    
    77   38  161 1    
    78   38  162 1    
    79   38  163 1    
    80   39   40 am   BACKBONE|DICT|INTERRES
    81   39  164 1    
    82   40   41 2    
    83   40   42 1    
    84   42   43 1    
    85   42   44 1    
    86   42  165 1    
    87   43  166 1    
    88   43  167 1    
    89   43  168 1    
    90   44   45 am   BACKBONE|DICT|INTERRES
    91   44  169 1    
    92   45   46 2    
    93   45   47 1    
    94   47   48 1    
    95   47   49 1    
    96   47  170 1    
    97   48  171 1    
    98   48  172 1    
    99   48  173 1    
   100   49   50 am   BACKBONE|DICT|INTERRES
   101   49  174 1    
   102   50   51 2    
   103   50   52 1    
   104   52   53 1    
   105   52   54 1    
   106   52  175 1    
   107   53  176 1    
   108   53  177 1    
   109   53  178 1    
   110   54   55 am   BACKBONE|DICT|INTERRES
   111   54  179 1    
   112   55   56 2    
   113   55   57 1    
   114   57   58 1    
   115   57   59 1    
   116   57  180 1    
   117   58  181 1    
   118   58  182 1    
   119   58  183 1    
   120   59   60 am   BACKBONE|DICT|INTERRES
   121   59  184 1    
   122   60   61 2    
   123   60   62 1    
   124   62   63 1    
   125   62   64 1    
   126   62  185 1    
   127   63  186 1    
   128   63  187 1    
   129   63  188 1    
   130   64   65 am   BACKBONE|DICT|INTERRES
   131   64  189 1    
   132   65   66 2    
   133   67   68 2    
   134   67   69 am   BACKBONE|DICT|INTERRES
   135   69   70 1    
   136   69  190 1    
   137   70   71 1    
   138   70   72 1    
   139   70  191 1    
   140   71  192 1    
   141   71  193 1    
   142   71  194 1    
   143   72   73 2    
   144   72   74 am   BACKBONE|DICT|INTERRES
   145   74   75 1    
   146   74  195 1    
   147   75   76 1    
   148   75   77 1    
   149   75  196 1    
   150   76  197 1    
   151   76  198 1    
   152   76  199 1    
   153   77   78 2    
   154   77   79 am   BACKBONE|DICT|INTERRES
   155   79   80 1    
   156   79  200 1    
   157   80   81 1    
   158   80   82 1    
   159   80  201 1    
   160   81  202 1    
   161   81  203 1    
   162   81  204 1    
   163   82   83 2    
   164   82   84 am   BACKBONE|DICT|INTERRES
   165   84   85 1    
   166   84  205 1    
   167   85   86 1    
   168   85   87 1    
   169   85  206 1    
   170   86  207 1    
   171   86  208 1    
   172   86  209 1    
   173   87   88 2    
   174   87   89 am   BACKBONE|DICT|INTERRES
   175   89   90 1    
   176   89  210 1    
   177   90   91 1    
   178   90   92 1    
   179   90  211 1    
   180   91  212 1    
   181   91  213 1    
   182   91  214 1    
   183   92   93 2    
   184   92   94 am   BACKBONE|DICT|INTERRES
   185   94   95 1    
   186   94  215 1    
   187   95   96 1    
   188   95   97 1    
   189   95  216 1    
   190   96  217 1    
   191   96  218 1    
   192   96  219 1    
   193   97   98 2    
   194   97   99 am   BACKBONE|DICT|INTERRES
   195   99  100 1    
   196   99  220 1    
   197  100  101 1    
   198  100  102 1    
   199  100  221 1    
   200  101  222 1    
   201  101  223 1    
   202  101  224 1    
   203  102  103 2    
   204  102  104 am   BACKBONE|DICT|INTERRES
   205  104  105 1    
   206  104  225 1    
   207  105  106 1    
   208  105  107 1    
   209  105  226 1    
   210  106  227 1    
   211  106  228 1    
   212  106  229 1    
   213  107  108 2    
   214  107  109 am   BACKBONE|DICT|INTERRES
   215  109  110 1    
   216  109  230 1    
   217  110  111 1    
   218  110  112 1    
   219  110  231 1    
   220  111  232 1    
   221  111  233 1    
   222  111  234 1    
   223  112  113 2    
   224  112  114 am   BACKBONE|DICT|INTERRES
   225  114  115 1    
   226  114  235 1    
   227  115  116 1    
   228  115  117 1    
   229  115  236 1    
   230  116  237 1    
   231  116  238 1    
   232  116  239 1    
   233  117  118 2    
   234  117  119 am   BACKBONE|DICT|INTERRES
   235  119  120 1    
   236  119  240 1    
   237  120  121 1    
   238  120  124 1    
   239  120  241 1    
   240  121  122 am   BACKBONE|DICT|INTERRES
   241  121  123 2    
   242  122  242 1    
   243  122  243 1    
   244  124  125 1    
   245  124  244 1    
   246  124  245 1    
   247  125  126 1    
   248  126  246 1    
   249  126  247 1    
@<TRIPOS>SUBSTRUCTURE
     1 UNK         1 GROUP             0       ****    0 ROOT    
