@<TRIPOS>MOLECULE
3R540
247   249    1
SMALL
USER_CHARGES


@<TRIPOS>ATOM
      1 CA          2.7099  -14.4545  -46.9264 C.3       0 UNK        -0.1800 
      2 C           1.6177  -13.4488  -46.6015 C.2       0 UNK         0.5000 
      3 O           1.8228  -12.2460  -46.7630 O.2       0 UNK        -0.5000 
      4 N           0.4581  -13.9507  -46.1560 N.am      1 UNK        -0.5000 
      5 CA         -0.7576  -13.1910  -45.8229 C.3       1 UNK         0.1400 
      6 C6         -1.4675  -12.6047  -47.0725 C.3       23 UNK        -0.0398 
      7 S7         -2.1138  -13.9329  -48.1441 S.3       23 UNK        -0.2404 
      8 C8         -0.8557  -13.9943  -49.4531 C.3       23 UNK        -0.0205 
      9 C9         -0.9897  -15.2475  -50.3045 C.ar      23 UNK        -0.0193 
     10 C10        -2.0436  -15.3670  -51.2149 C.ar      23 UNK        -0.1150 
     11 C11        -2.1430  -16.4882  -52.0434 C.ar      23 UNK        -0.0193 
     12 C12        -1.1658  -17.4828  -51.9707 C.ar      23 UNK        -0.1150 
     13 C13        -0.1245  -17.3926  -51.0437 C.ar      23 UNK        -0.0193 
     14 C14        -0.0454  -16.2751  -50.2068 C.ar      23 UNK        -0.1150 
     15 C15         0.9312  -18.4860  -50.9720 C.3       23 UNK        -0.0205 
     16 S16         0.5307  -19.7581  -49.7330 S.3       23 UNK        -0.2404 
     17 C17        -0.8621  -20.6456  -50.5101 C.3       23 UNK        -0.0398 
     18 CA         -2.1478  -20.6026  -49.6554 C.3       11 UNK         0.1400 
     19 N          -2.5491  -19.2237  -49.3411 N.am      11 UNK        -0.5000 
     20 C          -3.4215  -18.8572  -48.3974 C.2       10 UNK         0.5000 
     21 O          -4.1253  -19.6573  -47.7821 O.2       10 UNK        -0.5000 
     22 CA         -3.4905  -17.3578  -48.0785 C.3       10 UNK         0.1400 
     23 CB         -4.9383  -16.8504  -47.9320 C.3       10 UNK        -0.1800 
     24 N          -2.6716  -17.0589  -46.9016 N.am      10 UNK        -0.5000 
     25 C          -2.8645  -17.4296  -45.6276 C.2       9 UNK         0.5000 
     26 O          -3.8695  -18.0065  -45.2110 O.2       9 UNK        -0.5000 
     27 CA         -1.7003  -17.1246  -44.6613 C.3       9 UNK         0.1400 
     28 CB         -2.0887  -17.3219  -43.1864 C.3       9 UNK        -0.1800 
     29 N          -0.5270  -17.9470  -44.9630 N.am      9 UNK        -0.5000 
     30 C           0.3108  -17.7515  -45.9911 C.2       8 UNK         0.5000 
     31 O           0.2192  -16.7829  -46.7477 O.2       8 UNK        -0.5000 
     32 CA          1.4166  -18.8038  -46.1973 C.3       8 UNK         0.1400 
     33 CB          2.5957  -18.2903  -47.0435 C.3       8 UNK        -0.1800 
     34 N           1.9221  -19.2593  -44.9069 N.am      8 UNK        -0.5000 
     35 C           2.0265  -20.5319  -44.5041 C.2       7 UNK         0.5000 
     36 O           1.7341  -21.4971  -45.2093 O.2       7 UNK        -0.5000 
     37 CA          2.5402  -20.7807  -43.0684 C.3       7 UNK         0.1400 
     38 CB          3.9894  -21.2907  -43.0980 C.3       7 UNK        -0.1800 
     39 N           2.4770  -19.5996  -42.2037 N.am      7 UNK        -0.5000 
     40 C           1.3496  -19.0071  -41.7871 C.2       6 UNK         0.5000 
     41 O           0.2248  -19.4497  -42.0196 O.2       6 UNK        -0.5000 
     42 CA          1.5008  -17.6734  -41.0268 C.3       6 UNK         0.1400 
     43 CB          1.4041  -17.9046  -39.5118 C.3       6 UNK        -0.1800 
     44 N           2.7309  -16.9283  -41.3200 N.am      6 UNK        -0.5000 
     45 C           3.1144  -16.4867  -42.5281 C.2       5 UNK         0.5000 
     46 O           2.5161  -16.7497  -43.5723 O.2       5 UNK        -0.5000 
     47 CA          4.3657  -15.5934  -42.5540 C.3       5 UNK         0.1400 
     48 CB          4.5634  -14.8705  -43.8982 C.3       5 UNK        -0.1800 
     49 N           4.2714  -14.6005  -41.4880 N.am      5 UNK        -0.5000 
     50 C           5.2567  -14.2538  -40.6502 C.2       4 UNK         0.5000 
     51 O           6.3811  -14.7555  -40.6793 O.2       4 UNK        -0.5000 
     52 CA          4.9514  -13.1575  -39.6062 C.3       4 UNK         0.1400 
     53 CB          5.6784  -11.8535  -39.9715 C.3       4 UNK        -0.1800 
     54 N           3.5238  -12.8670  -39.4598 N.am      4 UNK        -0.5000 
     55 C           2.6301  -13.6635  -38.8579 C.2       3 UNK         0.5000 
     56 O           2.9259  -14.7170  -38.2941 O.2       3 UNK        -0.5000 
     57 CA          1.1525  -13.2266  -38.9365 C.3       3 UNK         0.1400 
     58 CB          0.7497  -12.4629  -37.6661 C.3       3 UNK        -0.1800 
     59 N           0.8366  -12.4044  -40.1129 N.am      3 UNK        -0.5000 
     60 C           0.9333  -12.8247  -41.3807 C.2       2 UNK         0.5000 
     61 O           1.3324  -13.9478  -41.6965 O.2       2 UNK        -0.5000 
     62 CA          0.5737  -11.8172  -42.4791 C.3       2 UNK         0.1400 
     63 CB          1.7516  -10.8658  -42.7544 C.3       2 UNK        -0.1800 
     64 N           0.2544  -12.5681  -43.6864 N.am      2 UNK        -0.5000 
     65 C          -0.5232  -12.1592  -44.6943 C.2       1 UNK         0.5000 
     66 O          -1.0472  -11.0446  -44.7405 O.2       1 UNK        -0.5000 
     67 C          -3.2564  -21.5016  -50.2546 C.2       11 UNK         0.5000 
     68 O          -2.9852  -22.6683  -50.5368 O.2       11 UNK        -0.5000 
     69 N          -4.4784  -20.9793  -50.4209 N.am      12 UNK        -0.5000 
     70 CA         -5.6865  -21.7758  -50.6369 C.3       12 UNK         0.1400 
     71 CB         -6.7717  -20.9036  -51.2867 C.3       12 UNK        -0.1800 
     72 C          -6.2150  -22.3910  -49.3271 C.2       12 UNK         0.5000 
     73 O          -6.7479  -23.5000  -49.3542 O.2       12 UNK        -0.5000 
     74 N          -6.0611  -21.6630  -48.2136 N.am      13 UNK        -0.5000 
     75 CA         -6.5235  -22.0476  -46.8823 C.3       13 UNK         0.1400 
     76 CB         -7.1610  -20.8254  -46.2027 C.3       13 UNK        -0.1800 
     77 C          -5.3695  -22.5917  -46.0275 C.2       13 UNK         0.5000 
     78 O          -5.5662  -23.5658  -45.3001 O.2       13 UNK        -0.5000 
     79 N          -4.1857  -21.9707  -46.1331 N.am      14 UNK        -0.5000 
     80 CA         -2.9625  -22.3700  -45.4399 C.3       14 UNK         0.1400 
     81 CB         -1.9549  -21.2087  -45.4562 C.3       14 UNK        -0.1800 
     82 C          -2.3876  -23.6571  -46.0565 C.2       14 UNK         0.5000 
     83 O          -1.6310  -23.5970  -47.0280 O.2       14 UNK        -0.5000 
     84 N          -2.8318  -24.8010  -45.5149 N.am      15 UNK        -0.5000 
     85 CA         -2.4591  -26.1825  -45.8531 C.3       15 UNK         0.1400 
     86 CB         -0.9719  -26.4240  -45.5212 C.3       15 UNK        -0.1800 
     87 C          -2.7945  -26.6202  -47.2967 C.2       15 UNK         0.5000 
     88 O          -2.3743  -27.7030  -47.7069 O.2       15 UNK        -0.5000 
     89 N          -3.5170  -25.7715  -48.0453 N.am      16 UNK        -0.5000 
     90 CA         -3.7598  -25.8468  -49.4910 C.3       16 UNK         0.1400 
     91 CB         -4.6968  -27.0249  -49.8289 C.3       16 UNK        -0.1800 
     92 C          -2.4485  -25.8584  -50.3120 C.2       16 UNK         0.5000 
     93 O          -2.3922  -26.4772  -51.3763 O.2       16 UNK        -0.5000 
     94 N          -1.4148  -25.1778  -49.7898 N.am      17 UNK        -0.5000 
     95 CA         -0.0341  -25.1816  -50.2770 C.3       17 UNK         0.1400 
     96 CB          0.8302  -24.3537  -49.3131 C.3       17 UNK        -0.1800 
     97 C           0.1570  -24.6993  -51.7279 C.2       17 UNK         0.5000 
     98 O           1.1201  -25.1165  -52.3730 O.2       17 UNK        -0.5000 
     99 N          -0.7546  -23.8543  -52.2227 N.am      18 UNK        -0.5000 
    100 CA        -0.7823  -23.3857  -53.6068 C.3       18 UNK         0.1400 
    101 CB         0.1744  -22.1939  -53.8088 C.3       18 UNK        -0.1800 
    102 C         -2.2277  -23.0826  -54.0227 C.2       18 UNK         0.5000 
    103 O         -2.4844  -22.0783  -54.6890 O.2       18 UNK        -0.5000 
    104 N         -3.1599  -23.9604  -53.6256 N.am      19 UNK        -0.5000 
    105 CA        -4.5963  -23.8278  -53.8862 C.3       19 UNK         0.1400 
    106 CB        -5.3523  -24.9331  -53.1360 C.3       19 UNK        -0.1800 
    107 C         -4.9692  -23.8273  -55.3801 C.2       19 UNK         0.5000 
    108 O         -5.9607  -23.2010  -55.7514 O.2       19 UNK        -0.5000 
    109 N         -4.1462  -24.4754  -56.2154 N.am      20 UNK        -0.5000 
    110 CA        -4.2711  -24.4736  -57.6747 C.3       20 UNK         0.1400 
    111 CB        -3.2870  -25.4978  -58.2601 C.3       20 UNK        -0.1800 
    112 C         -4.0461  -23.0854  -58.3110 C.2       20 UNK         0.5000 
    113 O         -4.5895  -22.8230  -59.3848 O.2       20 UNK        -0.5000 
    114 N         -3.2601  -22.2294  -57.6437 N.am      21 UNK        -0.5000 
    115 CA        -2.9902  -20.8537  -58.0555 C.3       21 UNK         0.1400 
    116 CB        -1.5018  -20.5425  -57.8266 C.3       21 UNK        -0.1800 
    117 C         -3.8746  -19.8624  -57.2820 C.2       21 UNK         0.5000 
    118 O         -4.4477  -18.9573  -57.8897 O.2       21 UNK        -0.5000 
    119 N         -3.9543  -20.0408  -55.9575 N.am      22 UNK        -0.5000 
    120 CA        -4.6783  -19.1579  -55.0329 C.3       22 UNK         0.1400 
    121 C         -6.2274  -19.3252  -55.0547 C.2       22 UNK         0.5000 
    122 N         -6.7757  -20.4671  -55.4494 N.am      22 UNK        -0.7600 
    123 O         -6.9545  -18.3883  -54.7382 O.2       22 UNK        -0.5000 
    124 C124       -4.0740  -19.2701  -53.6077 C.3       23 UNK        -0.0398 
    125 S125       -4.4983  -17.8755  -52.5049 S.3       23 UNK        -0.2404 
    126 C126       -3.2925  -16.6138  -53.0300 C.3       23 UNK        -0.0205 
    127 H127        3.6960  -14.0038  -46.8140 H         1 UNK         0.0600 
    128 H128        2.6056  -14.8095  -47.9516 H         1 UNK         0.0600 
    129 H129        2.6515  -15.3105  -46.2556 H         1 UNK         0.0600 
    130 H130        0.3610  -14.9622  -46.1380 H         1 UNK         0.3000 
    131 H131       -1.4480  -13.9086  -45.3815 H         1 UNK         0.0600 
    132 H132       -2.3246  -11.9954  -46.7813 H         1 UNK         0.0800 
    133 H133       -0.8033  -11.9468  -47.6346 H         1 UNK         0.0800 
    134 H134        0.1389  -13.9504  -49.0111 H         1 UNK         0.0800 
    135 H135       -0.9502  -13.1102  -50.0852 H         1 UNK         0.0800 
    136 H136       -2.7822  -14.5803  -51.2796 H         1 UNK         0.1150 
    137 H137       -1.2181  -18.3284  -52.6392 H         1 UNK         0.1150 
    138 H138        0.7640  -16.1965  -49.4940 H         1 UNK         0.1150 
    139 H139        1.0657  -18.9550  -51.9481 H         1 UNK         0.0800 
    140 H140        1.8953  -18.0441  -50.7159 H         1 UNK         0.0800 
    141 H141       -0.5307  -21.6729  -50.6529 H         1 UNK         0.0800 
    142 H142       -1.0600  -20.2504  -51.5037 H         1 UNK         0.0800 
    143 H143       -1.9016  -21.0771  -48.7049 H         1 UNK         0.0600 
    144 H144       -2.0084  -18.5052  -49.8037 H         1 UNK         0.3000 
    145 H145       -3.0424  -16.8150  -48.9107 H         1 UNK         0.0600 
    146 H146       -5.4866  -16.9824  -48.8654 H         1 UNK         0.0600 
    147 H147       -5.4896  -17.3822  -47.1562 H         1 UNK         0.0600 
    148 H148       -4.9580  -15.7877  -47.6903 H         1 UNK         0.0600 
    149 H149       -1.7698  -16.6429  -47.1129 H         1 UNK         0.3000 
    150 H150       -1.4336  -16.0759  -44.7868 H         1 UNK         0.0600 
    151 H151       -2.9797  -16.7456  -42.9344 H         1 UNK         0.0600 
    152 H152       -1.2929  -16.9855  -42.5243 H         1 UNK         0.0600 
    153 H153       -2.2965  -18.3683  -42.9593 H         1 UNK         0.0600 
    154 H154       -0.3810  -18.7518  -44.3691 H         1 UNK         0.3000 
    155 H155        0.9447  -19.6291  -46.7333 H         1 UNK         0.0600 
    156 H156        3.1666  -17.5287  -46.5135 H         1 UNK         0.0600 
    157 H157        2.2571  -17.8591  -47.9861 H         1 UNK         0.0600 
    158 H158        3.2783  -19.1036  -47.2892 H         1 UNK         0.0600 
    159 H159        2.1691  -18.5121  -44.2623 H         1 UNK         0.3000 
    160 H160        1.9113  -21.5570  -42.6278 H         1 UNK         0.0600 
    161 H161        4.6682  -20.5475  -43.5184 H         1 UNK         0.0600 
    162 H162        4.0744  -22.1932  -43.7048 H         1 UNK         0.0600 
    163 H163        4.3411  -21.5405  -42.0968 H         1 UNK         0.0600 
    164 H164        3.3561  -19.1638  -41.9677 H         1 UNK         0.3000 
    165 H165        0.6679  -17.0352  -41.3239 H         1 UNK         0.0600 
    166 H166        1.3860  -16.9595  -38.9692 H         1 UNK         0.0600 
    167 H167        0.4898  -18.4412  -39.2546 H         1 UNK         0.0600 
    168 H168        2.2455  -18.4906  -39.1402 H         1 UNK         0.0600 
    169 H169        3.2786  -16.6457  -40.5197 H         1 UNK         0.3000 
    170 H170        5.2195  -16.2531  -42.3875 H         1 UNK         0.0600 
    171 H171        4.6573  -15.5835  -44.7181 H         1 UNK         0.0600 
    172 H172        3.7234  -14.2116  -44.1213 H         1 UNK         0.0600 
    173 H173        5.4698  -14.2652  -43.8902 H         1 UNK         0.0600 
    174 H174        3.3533  -14.1834  -41.3746 H         1 UNK         0.3000 
    175 H175        5.3339  -13.5061  -38.6446 H         1 UNK         0.0600 
    176 H176        5.5245  -11.0888  -39.2098 H         1 UNK         0.0600 
    177 H177        5.3317  -11.4536  -40.9253 H         1 UNK         0.0600 
    178 H178        6.7541  -12.0141  -40.0545 H         1 UNK         0.0600 
    179 H179        3.1893  -12.0190  -39.8925 H         1 UNK         0.3000 
    180 H180        0.5497  -14.1355  -38.9945 H         1 UNK         0.0600 
    181 H181       -0.3147  -12.2273  -37.6676 H         1 UNK         0.0600 
    182 H182        1.3018  -11.5276  -37.5665 H         1 UNK         0.0600 
    183 H183        0.9476  -13.0577  -36.7732 H         1 UNK         0.0600 
    184 H184        0.5127  -11.4652  -39.9297 H         1 UNK         0.3000 
    185 H185       -0.3012  -11.2476  -42.1590 H         1 UNK         0.0600 
    186 H186        1.5058  -10.1494  -43.5384 H         1 UNK         0.0600 
    187 H187        2.0131  -10.2933  -41.8639 H         1 UNK         0.0600 
    188 H188        2.6420  -11.4117  -43.0702 H         1 UNK         0.0600 
    189 H189        0.6313  -13.5084  -43.6947 H         1 UNK         0.3000 
    190 H190       -4.6107  -20.0049  -50.1933 H         1 UNK         0.3000 
    191 H191       -5.4589  -22.5991  -51.3122 H         1 UNK         0.0600 
    192 H192       -7.7005  -21.4624  -51.4093 H         1 UNK         0.0600 
    193 H193       -6.4737  -20.5652  -52.2770 H         1 UNK         0.0600 
    194 H194       -6.9959  -20.0221  -50.6849 H         1 UNK         0.0600 
    195 H195       -5.5321  -20.7972  -48.2581 H         1 UNK         0.3000 
    196 H196       -7.2843  -22.8274  -46.9573 H         1 UNK         0.0600 
    197 H197       -6.4498  -20.0045  -46.0965 H         1 UNK         0.0600 
    198 H198       -8.0124  -20.4574  -46.7752 H         1 UNK         0.0600 
    199 H199       -7.5236  -21.0776  -45.2054 H         1 UNK         0.0600 
    200 H200       -4.1187  -21.1518  -46.7333 H         1 UNK         0.3000 
    201 H201       -3.2057  -22.5698  -44.3941 H         1 UNK         0.0600 
    202 H202       -2.3533  -20.3444  -44.9266 H         1 UNK         0.0600 
    203 H203       -1.7004  -20.8934  -46.4665 H         1 UNK         0.0600 
    204 H204       -1.0277  -21.4934  -44.9583 H         1 UNK         0.0600 
    205 H205       -3.5412  -24.7198  -44.7973 H         1 UNK         0.3000 
    206 H206       -3.0531  -26.8237  -45.2005 H         1 UNK         0.0600 
    207 H207       -0.7452  -26.1383  -44.4940 H         1 UNK         0.0600 
    208 H208       -0.7097  -27.4773  -45.6271 H         1 UNK         0.0600 
    209 H209       -0.3136  -25.8567  -46.1801 H         1 UNK         0.0600 
    210 H210       -3.8049  -24.9118  -47.6012 H         1 UNK         0.3000 
    211 H211       -4.2778  -24.9263  -49.7606 H         1 UNK         0.0600 
    212 H212       -4.9757  -27.0174  -50.8827 H         1 UNK         0.0600 
    213 H213       -5.6194  -26.9700  -49.2512 H         1 UNK         0.0600 
    214 H214       -4.2287  -27.9881  -49.6249 H         1 UNK         0.0600 
    215 H215       -1.5731  -24.6686  -48.9273 H         1 UNK         0.3000 
    216 H216        0.3138  -26.2156  -50.2390 H         1 UNK         0.0600 
    217 H217        0.4819  -23.3230  -49.2420 H         1 UNK         0.0600 
    218 H218        1.8712  -24.3287  -49.6378 H         1 UNK         0.0600 
    219 H219        0.8143  -24.7772  -48.3086 H         1 UNK         0.0600 
    220 H220       -1.5330  -23.5717  -51.6327 H         1 UNK         0.3000 
    221 H221       -0.4511  -24.1965  -54.2589 H         1 UNK         0.0600 
    222 H222        1.1865  -22.4338  -53.4834 H         1 UNK         0.0600 
    223 H223       -0.1530  -21.3118  -53.2633 H         1 UNK         0.0600 
    224 H224        0.2321  -21.9186  -54.8625 H         1 UNK         0.0600 
    225 H225       -2.8684  -24.7689  -53.0917 H         1 UNK         0.3000 
    226 H226       -4.9116  -22.8614  -53.4903 H         1 UNK         0.0600 
    227 H227       -5.0411  -25.9263  -53.4620 H         1 UNK         0.0600 
    228 H228       -5.1836  -24.8647  -52.0624 H         1 UNK         0.0600 
    229 H229       -6.4280  -24.8534  -53.2990 H         1 UNK         0.0600 
    230 H230       -3.3573  -24.9697  -55.8257 H         1 UNK         0.3000 
    231 H231       -5.2855  -24.7899  -57.9265 H         1 UNK         0.0600 
    232 H232       -2.2531  -25.2443  -58.0221 H         1 UNK         0.0600 
    233 H233       -3.3717  -25.5441  -59.3467 H         1 UNK         0.0600 
    234 H234       -3.4850  -26.4993  -57.8775 H         1 UNK         0.0600 
    235 H235       -2.8875  -22.5098  -56.7457 H         1 UNK         0.3000 
    236 H236       -3.1965  -20.7285  -59.1206 H         1 UNK         0.0600 
    237 H237       -1.2186  -20.6530  -56.7791 H         1 UNK         0.0600 
    238 H238       -0.8677  -21.2059  -58.4149 H         1 UNK         0.0600 
    239 H239       -1.2668  -19.5199  -58.1243 H         1 UNK         0.0600 
    240 H240       -3.4363  -20.8055  -55.5309 H         1 UNK         0.3000 
    241 H241       -4.4909  -18.1388  -55.3763 H         1 UNK         0.0600 
    242 H242       -7.7801  -20.5377  -55.4708 H         1 UNK         0.3800 
    243 H243       -6.2250  -21.2813  -55.6992 H         1 UNK         0.3800 
    244 H244       -2.9875  -19.3263  -53.6709 H         1 UNK         0.0800 
    245 H245       -4.3775  -20.2062  -53.1402 H         1 UNK         0.0800 
    246 H246       -3.8143  -15.6605  -53.1255 H         1 UNK         0.0800 
    247 H247       -2.9008  -16.8414  -54.0222 H         1 UNK         0.0800 
@<TRIPOS>BOND
     1    1    2 1    
     2    1  127 1    
     3    1  128 1    
     4    1  129 1    
     5    2    3 2    
     6    2    4 am   BACKBONE|DICT|INTERRES
     7    4    5 1    
     8    4  130 1    
     9    5    6 1    
    10    5   65 1    
    11    5  131 1    
    12    6    7 1    
    13    6  132 1    
    14    6  133 1    
    15    7    8 1    
    16    8    9 1    
    17    8  134 1    
    18    8  135 1    
    19    9   10 ar   
    20    9   14 ar   
    21   10   11 ar   
    22   10  136 1    
    23   11   12 ar   
    24   11  126 1    
    25   12   13 ar   
    26   12  137 1    
    27   13   14 ar   
    28   13   15 1    
    29   14  138 1    
    30   15   16 1    
    31   15  139 1    
    32   15  140 1    
    33   16   17 1    
    34   17   18 1    
    35   17  141 1    
    36   17  142 1    
    37   18   19 1    
    38   18   67 1    
    39   18  143 1    
    40   19   20 am   BACKBONE|DICT|INTERRES
    41   19  144 1    
    42   20   21 2    
    43   20   22 1    
    44   22   23 1    
    45   22   24 1    
    46   22  145 1    
    47   23  146 1    
    48   23  147 1    
    49   23  148 1    
    50   24   25 am   BACKBONE|DICT|INTERRES
    51   24  149 1    
    52   25   26 2    
    53   25   27 1    
    54   27   28 1    
    55   27   29 1    
    56   27  150 1    
    57   28  151 1    
    58   28  152 1    
    59   28  153 1    
    60   29   30 am   BACKBONE|DICT|INTERRES
    61   29  154 1    
    62   30   31 2    
    63   30   32 1    
    64   32   33 1    
    65   32   34 1    
    66   32  155 1    
    67   33  156 1    
    68   33  157 1    
    69   33  158 1    
    70   34   35 am   BACKBONE|DICT|INTERRES
    71   34  159 1    
    72   35   36 2    
    73   35   37 1    
    74   37   38 1    
    75   37   39 1    
    76   37  160 1    
    77   38  161 1    
    78   38  162 1    
    79   38  163 1    
    80   39   40 am   BACKBONE|DICT|INTERRES
    81   39  164 1    
    82   40   41 2    
    83   40   42 1    
    84   42   43 1    
    85   42   44 1    
    86   42  165 1    
    87   43  166 1    
    88   43  167 1    
    89   43  168 1    
    90   44   45 am   BACKBONE|DICT|INTERRES
    91   44  169 1    
    92   45   46 2    
    93   45   47 1    
    94   47   48 1    
    95   47   49 1    
    96   47  170 1    
    97   48  171 1    
    98   48  172 1    
    99   48  173 1    
   100   49   50 am   BACKBONE|DICT|INTERRES
   101   49  174 1    
   102   50   51 2    
   103   50   52 1    
   104   52   53 1    
   105   52   54 1    
   106   52  175 1    
   107   53  176 1    
   108   53  177 1    
   109   53  178 1    
   110   54   55 am   BACKBONE|DICT|INTERRES
   111   54  179 1    
   112   55   56 2    
   113   55   57 1    
   114   57   58 1    
   115   57   59 1    
   116   57  180 1    
   117   58  181 1    
   118   58  182 1    
   119   58  183 1    
   120   59   60 am   BACKBONE|DICT|INTERRES
   121   59  184 1    
   122   60   61 2    
   123   60   62 1    
   124   62   63 1    
   125   62   64 1    
   126   62  185 1    
   127   63  186 1    
   128   63  187 1    
   129   63  188 1    
   130   64   65 am   BACKBONE|DICT|INTERRES
   131   64  189 1    
   132   65   66 2    
   133   67   68 2    
   134   67   69 am   BACKBONE|DICT|INTERRES
   135   69   70 1    
   136   69  190 1    
   137   70   71 1    
   138   70   72 1    
   139   70  191 1    
   140   71  192 1    
   141   71  193 1    
   142   71  194 1    
   143   72   73 2    
   144   72   74 am   BACKBONE|DICT|INTERRES
   145   74   75 1    
   146   74  195 1    
   147   75   76 1    
   148   75   77 1    
   149   75  196 1    
   150   76  197 1    
   151   76  198 1    
   152   76  199 1    
   153   77   78 2    
   154   77   79 am   BACKBONE|DICT|INTERRES
   155   79   80 1    
   156   79  200 1    
   157   80   81 1    
   158   80   82 1    
   159   80  201 1    
   160   81  202 1    
   161   81  203 1    
   162   81  204 1    
   163   82   83 2    
   164   82   84 am   BACKBONE|DICT|INTERRES
   165   84   85 1    
   166   84  205 1    
   167   85   86 1    
   168   85   87 1    
   169   85  206 1    
   170   86  207 1    
   171   86  208 1    
   172   86  209 1    
   173   87   88 2    
   174   87   89 am   BACKBONE|DICT|INTERRES
   175   89   90 1    
   176   89  210 1    
   177   90   91 1    
   178   90   92 1    
   179   90  211 1    
   180   91  212 1    
   181   91  213 1    
   182   91  214 1    
   183   92   93 2    
   184   92   94 am   BACKBONE|DICT|INTERRES
   185   94   95 1    
   186   94  215 1    
   187   95   96 1    
   188   95   97 1    
   189   95  216 1    
   190   96  217 1    
   191   96  218 1    
   192   96  219 1    
   193   97   98 2    
   194   97   99 am   BACKBONE|DICT|INTERRES
   195   99  100 1    
   196   99  220 1    
   197  100  101 1    
   198  100  102 1    
   199  100  221 1    
   200  101  222 1    
   201  101  223 1    
   202  101  224 1    
   203  102  103 2    
   204  102  104 am   BACKBONE|DICT|INTERRES
   205  104  105 1    
   206  104  225 1    
   207  105  106 1    
   208  105  107 1    
   209  105  226 1    
   210  106  227 1    
   211  106  228 1    
   212  106  229 1    
   213  107  108 2    
   214  107  109 am   BACKBONE|DICT|INTERRES
   215  109  110 1    
   216  109  230 1    
   217  110  111 1    
   218  110  112 1    
   219  110  231 1    
   220  111  232 1    
   221  111  233 1    
   222  111  234 1    
   223  112  113 2    
   224  112  114 am   BACKBONE|DICT|INTERRES
   225  114  115 1    
   226  114  235 1    
   227  115  116 1    
   228  115  117 1    
   229  115  236 1    
   230  116  237 1    
   231  116  238 1    
   232  116  239 1    
   233  117  118 2    
   234  117  119 am   BACKBONE|DICT|INTERRES
   235  119  120 1    
   236  119  240 1    
   237  120  121 1    
   238  120  124 1    
   239  120  241 1    
   240  121  122 am   BACKBONE|DICT|INTERRES
   241  121  123 2    
   242  122  242 1    
   243  122  243 1    
   244  124  125 1    
   245  124  244 1    
   246  124  245 1    
   247  125  126 1    
   248  126  246 1    
   249  126  247 1    
@<TRIPOS>SUBSTRUCTURE
     1 UNK         1 GROUP             0       ****    0 ROOT    
