@<TRIPOS>MOLECULE
3R540
247   249    1
SMALL
USER_CHARGES


@<TRIPOS>ATOM
      1 CA         -4.0594  -13.0369  -46.8885 C.3       0 UNK        -0.1800 
      2 C          -2.7375  -12.8190  -47.6115 C.2       0 UNK         0.5000 
      3 O          -2.6615  -11.9870  -48.5158 O.2       0 UNK        -0.5000 
      4 N          -1.7005  -13.5684  -47.2201 N.am      1 UNK        -0.5000 
      5 CA         -0.3378  -13.4501  -47.7419 C.3       1 UNK         0.1400 
      6 C6          0.5043  -14.6989  -47.3893 C.3       23 UNK        -0.0398 
      7 S7          2.0427  -14.8173  -48.3596 S.3       23 UNK        -0.2404 
      8 C8          2.3270  -16.6177  -48.3220 C.3       23 UNK        -0.0205 
      9 C9          1.5189  -17.4533  -49.3172 C.ar      23 UNK        -0.0193 
     10 C10         0.4933  -16.9309  -50.1186 C.ar      23 UNK        -0.1150 
     11 C11        -0.1952  -17.7460  -51.0224 C.ar      23 UNK        -0.0193 
     12 C12         0.1470  -19.0964  -51.1310 C.ar      23 UNK        -0.1150 
     13 C13         1.1640  -19.6324  -50.3366 C.ar      23 UNK        -0.0193 
     14 C14         1.8370  -18.8084  -49.4318 C.ar      23 UNK        -0.1150 
     15 C15         1.5507  -21.0983  -50.4565 C.3       23 UNK        -0.0205 
     16 S16         0.2922  -22.1997  -49.7463 S.3       23 UNK        -0.2404 
     17 C17         0.1374  -21.5585  -48.0416 C.3       23 UNK        -0.0398 
     18 CA         -0.3098  -22.6562  -47.0521 C.3       11 UNK         0.1400 
     19 N           0.0266  -22.3245  -45.6661 N.am      11 UNK        -0.5000 
     20 C           0.0285  -23.2226  -44.6709 C.2       10 UNK         0.5000 
     21 O          -0.2495  -24.4109  -44.8252 O.2       10 UNK        -0.5000 
     22 CA          0.3395  -22.7018  -43.2591 C.3       10 UNK         0.1400 
     23 CB          1.8405  -22.4193  -43.0976 C.3       10 UNK        -0.1800 
     24 N          -0.4359  -21.5081  -42.9259 N.am      10 UNK        -0.5000 
     25 C          -1.7745  -21.4705  -42.8593 C.2       9 UNK         0.5000 
     26 O          -2.4955  -22.4547  -43.0280 O.2       9 UNK        -0.5000 
     27 CA         -2.4194  -20.0978  -42.6004 C.3       9 UNK         0.1400 
     28 CB         -2.3978  -19.7626  -41.1018 C.3       9 UNK        -0.1800 
     29 N          -1.7896  -19.0131  -43.3546 N.am      9 UNK        -0.5000 
     30 C          -1.7404  -18.9304  -44.6924 C.2       8 UNK         0.5000 
     31 O          -2.2164  -19.7713  -45.4523 O.2       8 UNK        -0.5000 
     32 CA         -0.9840  -17.7263  -45.2802 C.3       8 UNK         0.1400 
     33 CB         -1.7908  -16.4305  -45.0879 C.3       8 UNK        -0.1800 
     34 N           0.3449  -17.5805  -44.6868 N.am      8 UNK        -0.5000 
     35 C           1.3154  -18.5050  -44.7580 C.2       7 UNK         0.5000 
     36 O           1.2272  -19.5519  -45.4020 O.2       7 UNK        -0.5000 
     37 CA          2.5753  -18.2336  -43.9185 C.3       7 UNK         0.1400 
     38 CB          3.5489  -17.3078  -44.6656 C.3       7 UNK        -0.1800 
     39 N           2.2433  -17.6593  -42.6128 N.am      7 UNK        -0.5000 
     40 C           1.6209  -18.3293  -41.6308 C.2       6 UNK         0.5000 
     41 O           1.2962  -19.5127  -41.7113 O.2       6 UNK        -0.5000 
     42 CA          1.2606  -17.5333  -40.3632 C.3       6 UNK         0.1400 
     43 CB          2.4638  -17.4577  -39.4116 C.3       6 UNK        -0.1800 
     44 N           0.7954  -16.1799  -40.6647 N.am      6 UNK        -0.5000 
     45 C          -0.3324  -15.8906  -41.3303 C.2       5 UNK         0.5000 
     46 O          -1.1397  -16.7397  -41.7040 O.2       5 UNK        -0.5000 
     47 CA         -0.5644  -14.4093  -41.6873 C.3       5 UNK         0.1400 
     48 CB         -1.3648  -13.7050  -40.5822 C.3       5 UNK        -0.1800 
     49 N           0.6904  -13.6871  -41.9183 N.am      5 UNK        -0.5000 
     50 C           1.5286  -13.9496  -42.9285 C.2       4 UNK         0.5000 
     51 O           1.2976  -14.7805  -43.8116 O.2       4 UNK        -0.5000 
     52 CA          2.8868  -13.2414  -42.8881 C.3       4 UNK         0.1400 
     53 CB          3.8659  -14.0669  -42.0260 C.3       4 UNK        -0.1800 
     54 N           3.3797  -13.1028  -44.2540 N.am      4 UNK        -0.5000 
     55 C           4.4867  -12.4544  -44.6348 C.2       3 UNK         0.5000 
     56 O           5.2526  -11.8775  -43.8618 O.2       3 UNK        -0.5000 
     57 CA          4.7698  -12.4241  -46.1466 C.3       3 UNK         0.1400 
     58 CB          5.1844  -13.8145  -46.6561 C.3       3 UNK        -0.1800 
     59 N           3.6228  -11.9358  -46.9141 N.am      3 UNK        -0.5000 
     60 C           3.1618  -10.6752  -46.8764 C.2       2 UNK         0.5000 
     61 O           3.6743   -9.7808  -46.2024 O.2       2 UNK        -0.5000 
     62 CA          1.9316  -10.3429  -47.7450 C.3       2 UNK         0.1400 
     63 CB          2.3654   -9.6521  -49.0473 C.3       2 UNK        -0.1800 
     64 N           1.1262  -11.5178  -48.0794 N.am      2 UNK        -0.5000 
     65 C           0.3338  -12.1646  -47.2161 C.2       1 UNK         0.5000 
     66 O           0.1611  -11.8137  -46.0462 O.2       1 UNK        -0.5000 
     67 C          -1.8000  -23.0244  -47.2216 C.2       11 UNK         0.5000 
     68 O          -2.1109  -23.9183  -48.0101 O.2       11 UNK        -0.5000 
     69 N          -2.6994  -22.3699  -46.4720 N.am      12 UNK        -0.5000 
     70 CA         -4.1276  -22.6945  -46.4165 C.3       12 UNK         0.1400 
     71 CB         -4.8799  -21.6549  -45.5742 C.3       12 UNK        -0.1800 
     72 C          -4.3908  -24.1201  -45.9012 C.2       12 UNK         0.5000 
     73 O          -5.2278  -24.8227  -46.4673 O.2       12 UNK        -0.5000 
     74 N          -3.6450  -24.5343  -44.8698 N.am      13 UNK        -0.5000 
     75 CA         -3.6810  -25.8905  -44.3295 C.3       13 UNK         0.1400 
     76 CB         -3.0038  -25.9064  -42.9501 C.3       13 UNK        -0.1800 
     77 C          -3.0310  -26.9211  -45.2724 C.2       13 UNK         0.5000 
     78 O          -3.6032  -27.9905  -45.4870 O.2       13 UNK        -0.5000 
     79 N          -1.8422  -26.5950  -45.7969 N.am      14 UNK        -0.5000 
     80 CA         -1.0048  -27.5191  -46.5608 C.3       14 UNK         0.1400 
     81 CB          0.4494  -27.0229  -46.5397 C.3       14 UNK        -0.1800 
     82 C          -1.4606  -27.7433  -48.0124 C.2       14 UNK         0.5000 
     83 O          -1.3755  -28.8749  -48.4926 O.2       14 UNK        -0.5000 
     84 N          -1.8821  -26.6750  -48.7016 N.am      15 UNK        -0.5000 
     85 CA         -2.0587  -26.6682  -50.1569 C.3       15 UNK         0.1400 
     86 CB         -0.7438  -26.2007  -50.8121 C.3       15 UNK        -0.1800 
     87 C          -3.2548  -25.8189  -50.6182 C.2       15 UNK         0.5000 
     88 O          -3.3098  -25.4526  -51.7933 O.2       15 UNK        -0.5000 
     89 N          -4.1789  -25.4895  -49.7024 N.am      16 UNK        -0.5000 
     90 CA         -5.3682  -24.6560  -49.9317 C.3       16 UNK         0.1400 
     91 CB         -6.3895  -25.4054  -50.8135 C.3       16 UNK        -0.1800 
     92 C          -5.0237  -23.2500  -50.4731 C.2       16 UNK         0.5000 
     93 O          -5.7337  -22.7286  -51.3335 O.2       16 UNK        -0.5000 
     94 N          -3.9097  -22.6867  -49.9789 N.am      17 UNK        -0.5000 
     95 CA         -3.3035  -21.4148  -50.3863 C.3       17 UNK         0.1400 
     96 CB         -4.2119  -20.2227  -50.0263 C.3       17 UNK        -0.1800 
     97 C          -2.8499  -21.4454  -51.8607 C.2       17 UNK         0.5000 
     98 O          -3.1095  -20.5105  -52.6183 O.2       17 UNK        -0.5000 
     99 N          -2.2021  -22.5587  -52.2366 N.am      18 UNK        -0.5000 
    100 CA        -1.7538  -22.9181  -53.5862 C.3       18 UNK         0.1400 
    101 CB        -0.6688  -21.9415  -54.0867 C.3       18 UNK        -0.1800 
    102 C         -2.9277  -23.0819  -54.5757 C.2       18 UNK         0.5000 
    103 O         -2.7889  -22.7636  -55.7581 O.2       18 UNK        -0.5000 
    104 N         -4.0709  -23.5562  -54.0578 N.am      19 UNK        -0.5000 
    105 CA        -5.3760  -23.7936  -54.6900 C.3       19 UNK         0.1400 
    106 CB        -5.2718  -24.8825  -55.7732 C.3       19 UNK        -0.1800 
    107 C         -6.0874  -22.5374  -55.2367 C.2       19 UNK         0.5000 
    108 O         -7.2977  -22.4002  -55.0568 O.2       19 UNK        -0.5000 
    109 N         -5.3381  -21.6497  -55.8977 N.am      20 UNK        -0.5000 
    110 CA        -5.8165  -20.4209  -56.5301 C.3       20 UNK         0.1400 
    111 CB        -4.8282  -20.0391  -57.6444 C.3       20 UNK        -0.1800 
    112 C         -5.9925  -19.2459  -55.5490 C.2       20 UNK         0.5000 
    113 O         -6.4961  -18.1987  -55.9597 O.2       20 UNK        -0.5000 
    114 N         -5.5299  -19.4031  -54.2981 N.am      21 UNK        -0.5000 
    115 CA        -5.5191  -18.3954  -53.2275 C.3       21 UNK         0.1400 
    116 CB        -6.9559  -18.0570  -52.7795 C.3       21 UNK        -0.1800 
    117 C         -4.6861  -17.1434  -53.5780 C.2       21 UNK         0.5000 
    118 O         -4.9599  -16.0583  -53.0629 O.2       21 UNK        -0.5000 
    119 N         -3.7005  -17.3196  -54.4706 N.am      22 UNK        -0.5000 
    120 CA        -2.9013  -16.2626  -55.1132 C.3       22 UNK         0.1400 
    121 C         -3.7286  -15.2878  -56.0128 C.2       22 UNK         0.5000 
    122 N         -4.9402  -15.6342  -56.4359 N.am      22 UNK        -0.7600 
    123 O         -3.2559  -14.2118  -56.3693 O.2       22 UNK        -0.5000 
    124 C124       -1.9581  -15.5294  -54.1173 C.3       23 UNK        -0.0398 
    125 S125       -0.6270  -16.6100  -53.4898 S.3       23 UNK        -0.2404 
    126 C126       -1.2962  -17.1575  -51.8903 C.3       23 UNK        -0.0205 
    127 H127       -4.3813  -12.1124  -46.4090 H         1 UNK         0.0600 
    128 H128       -3.9808  -13.8080  -46.1216 H         1 UNK         0.0600 
    129 H129       -4.8294  -13.3405  -47.5978 H         1 UNK         0.0600 
    130 H130       -1.8195  -14.1963  -46.4402 H         1 UNK         0.3000 
    131 H131       -0.4127  -13.3863  -48.8301 H         1 UNK         0.0600 
    132 H132        0.7591  -14.7210  -46.3299 H         1 UNK         0.0800 
    133 H133       -0.0831  -15.5985  -47.5769 H         1 UNK         0.0800 
    134 H134        3.3882  -16.7848  -48.5122 H         1 UNK         0.0800 
    135 H135        2.1345  -16.9858  -47.3141 H         1 UNK         0.0800 
    136 H136        0.2253  -15.8870  -50.0605 H         1 UNK         0.1150 
    137 H137       -0.3733  -19.7279  -51.8373 H         1 UNK         0.1150 
    138 H138        2.6237  -19.2227  -48.8164 H         1 UNK         0.1150 
    139 H139        1.6914  -21.3503  -51.5081 H         1 UNK         0.0800 
    140 H140        2.5072  -21.2894  -49.9675 H         1 UNK         0.0800 
    141 H141       -0.5394  -20.7019  -48.0248 H         1 UNK         0.0800 
    142 H142        1.1139  -21.1767  -47.7399 H         1 UNK         0.0800 
    143 H143        0.2601  -23.5565  -47.2928 H         1 UNK         0.0600 
    144 H144        0.2694  -21.3586  -45.4677 H         1 UNK         0.3000 
    145 H145        0.0647  -23.4851  -42.5496 H         1 UNK         0.0600 
    146 H146        2.0812  -22.1504  -42.0690 H         1 UNK         0.0600 
    147 H147        2.4334  -23.2993  -43.3498 H         1 UNK         0.0600 
    148 H148        2.1702  -21.6042  -43.7421 H         1 UNK         0.0600 
    149 H149        0.0928  -20.6668  -42.7148 H         1 UNK         0.3000 
    150 H150       -3.4620  -20.1561  -42.9182 H         1 UNK         0.0600 
    151 H151       -2.8793  -20.5481  -40.5181 H         1 UNK         0.0600 
    152 H152       -2.9301  -18.8333  -40.8985 H         1 UNK         0.0600 
    153 H153       -1.3791  -19.6524  -40.7290 H         1 UNK         0.0600 
    154 H154       -1.3980  -18.2523  -42.8049 H         1 UNK         0.3000 
    155 H155       -0.8471  -17.8931  -46.3509 H         1 UNK         0.0600 
    156 H156       -2.6496  -16.4101  -45.7597 H         1 UNK         0.0600 
    157 H157       -1.1884  -15.5480  -45.2880 H         1 UNK         0.0600 
    158 H158       -2.1751  -16.3303  -44.0732 H         1 UNK         0.0600 
    159 H159        0.5229  -16.7354  -44.1570 H         1 UNK         0.3000 
    160 H160        3.0779  -19.1886  -43.7514 H         1 UNK         0.0600 
    161 H161        3.1009  -16.3417  -44.8974 H         1 UNK         0.0600 
    162 H162        3.8621  -17.7562  -45.6091 H         1 UNK         0.0600 
    163 H163        4.4501  -17.1269  -44.0798 H         1 UNK         0.0600 
    164 H164        2.4309  -16.6765  -42.4882 H         1 UNK         0.3000 
    165 H165        0.4533  -18.0637  -39.8537 H         1 UNK         0.0600 
    166 H166        2.1976  -16.9612  -38.4783 H         1 UNK         0.0600 
    167 H167        2.8219  -18.4560  -39.1564 H         1 UNK         0.0600 
    168 H168        3.2979  -16.9133  -39.8561 H         1 UNK         0.0600 
    169 H169        1.3926  -15.4188  -40.3796 H         1 UNK         0.3000 
    170 H170       -1.1499  -14.3778  -42.6086 H         1 UNK         0.0600 
    171 H171       -2.3142  -14.2123  -40.4054 H         1 UNK         0.0600 
    172 H172       -0.8205  -13.6880  -39.6372 H         1 UNK         0.0600 
    173 H173       -1.5943  -12.6754  -40.8571 H         1 UNK         0.0600 
    174 H174        0.9469  -12.9947  -41.2291 H         1 UNK         0.3000 
    175 H175        2.7574  -12.2463  -42.4582 H         1 UNK         0.0600 
    176 H176        4.0829  -15.0343  -42.4800 H         1 UNK         0.0600 
    177 H177        4.8134  -13.5489  -41.8821 H         1 UNK         0.0600 
    178 H178        3.4584  -14.2533  -41.0318 H         1 UNK         0.0600 
    179 H179        2.7890  -13.5387  -44.9500 H         1 UNK         0.3000 
    180 H180        5.6046  -11.7412  -46.3185 H         1 UNK         0.0600 
    181 H181        4.4020  -14.5576  -46.4998 H         1 UNK         0.0600 
    182 H182        6.0757  -14.1678  -46.1360 H         1 UNK         0.0600 
    183 H183        5.4173  -13.7924  -47.7208 H         1 UNK         0.0600 
    184 H184        3.1468  -12.6068  -47.4998 H         1 UNK         0.3000 
    185 H185        1.3087   -9.6457  -47.1805 H         1 UNK         0.0600 
    186 H186        2.9443   -8.7516  -48.8381 H         1 UNK         0.0600 
    187 H187        2.9856  -10.3052  -49.6626 H         1 UNK         0.0600 
    188 H188        1.5020   -9.3505  -49.6407 H         1 UNK         0.0600 
    189 H189        1.2221  -11.8733  -49.0201 H         1 UNK         0.3000 
    190 H190       -2.3925  -21.5853  -45.9018 H         1 UNK         0.3000 
    191 H191       -4.5262  -22.6349  -47.4276 H         1 UNK         0.0600 
    192 H192       -4.7623  -20.6532  -45.9877 H         1 UNK         0.0600 
    193 H193       -5.9484  -21.8720  -45.5510 H         1 UNK         0.0600 
    194 H194       -4.5281  -21.6371  -44.5438 H         1 UNK         0.0600 
    195 H195       -3.0093  -23.8785  -44.4272 H         1 UNK         0.3000 
    196 H196       -4.7260  -26.1765  -44.1922 H         1 UNK         0.0600 
    197 H197       -3.0282  -26.9057  -42.5137 H         1 UNK         0.0600 
    198 H198       -3.5103  -25.2351  -42.2564 H         1 UNK         0.0600 
    199 H199       -1.9596  -25.5974  -43.0079 H         1 UNK         0.0600 
    200 H200       -1.4137  -25.7115  -45.5314 H         1 UNK         0.3000 
    201 H201       -1.0267  -28.4889  -46.0586 H         1 UNK         0.0600 
    202 H202        0.8248  -26.9448  -45.5192 H         1 UNK         0.0600 
    203 H203        0.5467  -26.0430  -47.0085 H         1 UNK         0.0600 
    204 H204        1.1062  -27.7095  -47.0753 H         1 UNK         0.0600 
    205 H205       -1.9264  -25.7655  -48.2469 H         1 UNK         0.3000 
    206 H206       -2.2744  -27.6783  -50.5103 H         1 UNK         0.0600 
    207 H207        0.0899  -26.8419  -50.5261 H         1 UNK         0.0600 
    208 H208       -0.8077  -26.2269  -51.9006 H         1 UNK         0.0600 
    209 H209       -0.4950  -25.1799  -50.5194 H         1 UNK         0.0600 
    210 H210       -4.0472  -25.8168  -48.7552 H         1 UNK         0.3000 
    211 H211       -5.8357  -24.4963  -48.9609 H         1 UNK         0.0600 
    212 H212       -6.0117  -25.5727  -51.8222 H         1 UNK         0.0600 
    213 H213       -7.3197  -24.8428  -50.9016 H         1 UNK         0.0600 
    214 H214       -6.6395  -26.3760  -50.3854 H         1 UNK         0.0600 
    215 H215       -3.3709  -23.2274  -49.3076 H         1 UNK         0.3000 
    216 H216       -2.3980  -21.3001  -49.7940 H         1 UNK         0.0600 
    217 H217       -3.7316  -19.2760  -50.2767 H         1 UNK         0.0600 
    218 H218       -4.4221  -20.2039  -48.9568 H         1 UNK         0.0600 
    219 H219       -5.1659  -20.2615  -50.5511 H         1 UNK         0.0600 
    220 H220       -2.0759  -23.2803  -51.5413 H         1 UNK         0.3000 
    221 H221       -1.2946  -23.9038  -53.4993 H         1 UNK         0.0600 
    222 H222       -1.0686  -20.9427  -54.2638 H         1 UNK         0.0600 
    223 H223        0.1436  -21.8546  -53.3661 H         1 UNK         0.0600 
    224 H224       -0.2334  -22.2887  -55.0242 H         1 UNK         0.0600 
    225 H225       -4.0397  -23.8002  -53.0749 H         1 UNK         0.3000 
    226 H226       -6.0135  -24.1839  -53.8954 H         1 UNK         0.0600 
    227 H227       -4.8521  -25.8025  -55.3660 H         1 UNK         0.0600 
    228 H228       -6.2555  -25.1248  -56.1773 H         1 UNK         0.0600 
    229 H229       -4.6451  -24.5682  -56.6082 H         1 UNK         0.0600 
    230 H230       -4.3490  -21.8679  -56.0004 H         1 UNK         0.3000 
    231 H231       -6.7898  -20.6138  -56.9858 H         1 UNK         0.0600 
    232 H232       -3.8327  -19.8372  -57.2466 H         1 UNK         0.0600 
    233 H233       -5.1579  -19.1453  -58.1758 H         1 UNK         0.0600 
    234 H234       -4.7382  -20.8375  -58.3813 H         1 UNK         0.0600 
    235 H235       -5.0849  -20.2812  -54.0650 H         1 UNK         0.3000 
    236 H236       -5.0187  -18.8495  -52.3766 H         1 UNK         0.0600 
    237 H237       -7.5134  -18.9607  -52.5330 H         1 UNK         0.0600 
    238 H238       -6.9500  -17.4287  -51.8882 H         1 UNK         0.0600 
    239 H239       -7.5074  -17.5215  -53.5526 H         1 UNK         0.0600 
    240 H240       -3.5419  -18.2566  -54.8106 H         1 UNK         0.3000 
    241 H241       -2.2637  -16.7841  -55.8278 H         1 UNK         0.0600 
    242 H242       -5.4532  -14.9983  -57.0256 H         1 UNK         0.3800 
    243 H243       -5.3645  -16.5158  -56.1692 H         1 UNK         0.3800 
    244 H244       -1.4562  -14.6945  -54.6083 H         1 UNK         0.0800 
    245 H245       -2.5160  -15.0898  -53.2903 H         1 UNK         0.0800 
    246 H246       -1.7673  -16.3186  -51.3758 H         1 UNK         0.0800 
    247 H247       -2.0782  -17.8994  -52.0581 H         1 UNK         0.0800 
@<TRIPOS>BOND
     1    1    2 1    
     2    1  127 1    
     3    1  128 1    
     4    1  129 1    
     5    2    3 2    
     6    2    4 am   BACKBONE|DICT|INTERRES
     7    4    5 1    
     8    4  130 1    
     9    5    6 1    
    10    5   65 1    
    11    5  131 1    
    12    6    7 1    
    13    6  132 1    
    14    6  133 1    
    15    7    8 1    
    16    8    9 1    
    17    8  134 1    
    18    8  135 1    
    19    9   10 ar   
    20    9   14 ar   
    21   10   11 ar   
    22   10  136 1    
    23   11   12 ar   
    24   11  126 1    
    25   12   13 ar   
    26   12  137 1    
    27   13   14 ar   
    28   13   15 1    
    29   14  138 1    
    30   15   16 1    
    31   15  139 1    
    32   15  140 1    
    33   16   17 1    
    34   17   18 1    
    35   17  141 1    
    36   17  142 1    
    37   18   19 1    
    38   18   67 1    
    39   18  143 1    
    40   19   20 am   BACKBONE|DICT|INTERRES
    41   19  144 1    
    42   20   21 2    
    43   20   22 1    
    44   22   23 1    
    45   22   24 1    
    46   22  145 1    
    47   23  146 1    
    48   23  147 1    
    49   23  148 1    
    50   24   25 am   BACKBONE|DICT|INTERRES
    51   24  149 1    
    52   25   26 2    
    53   25   27 1    
    54   27   28 1    
    55   27   29 1    
    56   27  150 1    
    57   28  151 1    
    58   28  152 1    
    59   28  153 1    
    60   29   30 am   BACKBONE|DICT|INTERRES
    61   29  154 1    
    62   30   31 2    
    63   30   32 1    
    64   32   33 1    
    65   32   34 1    
    66   32  155 1    
    67   33  156 1    
    68   33  157 1    
    69   33  158 1    
    70   34   35 am   BACKBONE|DICT|INTERRES
    71   34  159 1    
    72   35   36 2    
    73   35   37 1    
    74   37   38 1    
    75   37   39 1    
    76   37  160 1    
    77   38  161 1    
    78   38  162 1    
    79   38  163 1    
    80   39   40 am   BACKBONE|DICT|INTERRES
    81   39  164 1    
    82   40   41 2    
    83   40   42 1    
    84   42   43 1    
    85   42   44 1    
    86   42  165 1    
    87   43  166 1    
    88   43  167 1    
    89   43  168 1    
    90   44   45 am   BACKBONE|DICT|INTERRES
    91   44  169 1    
    92   45   46 2    
    93   45   47 1    
    94   47   48 1    
    95   47   49 1    
    96   47  170 1    
    97   48  171 1    
    98   48  172 1    
    99   48  173 1    
   100   49   50 am   BACKBONE|DICT|INTERRES
   101   49  174 1    
   102   50   51 2    
   103   50   52 1    
   104   52   53 1    
   105   52   54 1    
   106   52  175 1    
   107   53  176 1    
   108   53  177 1    
   109   53  178 1    
   110   54   55 am   BACKBONE|DICT|INTERRES
   111   54  179 1    
   112   55   56 2    
   113   55   57 1    
   114   57   58 1    
   115   57   59 1    
   116   57  180 1    
   117   58  181 1    
   118   58  182 1    
   119   58  183 1    
   120   59   60 am   BACKBONE|DICT|INTERRES
   121   59  184 1    
   122   60   61 2    
   123   60   62 1    
   124   62   63 1    
   125   62   64 1    
   126   62  185 1    
   127   63  186 1    
   128   63  187 1    
   129   63  188 1    
   130   64   65 am   BACKBONE|DICT|INTERRES
   131   64  189 1    
   132   65   66 2    
   133   67   68 2    
   134   67   69 am   BACKBONE|DICT|INTERRES
   135   69   70 1    
   136   69  190 1    
   137   70   71 1    
   138   70   72 1    
   139   70  191 1    
   140   71  192 1    
   141   71  193 1    
   142   71  194 1    
   143   72   73 2    
   144   72   74 am   BACKBONE|DICT|INTERRES
   145   74   75 1    
   146   74  195 1    
   147   75   76 1    
   148   75   77 1    
   149   75  196 1    
   150   76  197 1    
   151   76  198 1    
   152   76  199 1    
   153   77   78 2    
   154   77   79 am   BACKBONE|DICT|INTERRES
   155   79   80 1    
   156   79  200 1    
   157   80   81 1    
   158   80   82 1    
   159   80  201 1    
   160   81  202 1    
   161   81  203 1    
   162   81  204 1    
   163   82   83 2    
   164   82   84 am   BACKBONE|DICT|INTERRES
   165   84   85 1    
   166   84  205 1    
   167   85   86 1    
   168   85   87 1    
   169   85  206 1    
   170   86  207 1    
   171   86  208 1    
   172   86  209 1    
   173   87   88 2    
   174   87   89 am   BACKBONE|DICT|INTERRES
   175   89   90 1    
   176   89  210 1    
   177   90   91 1    
   178   90   92 1    
   179   90  211 1    
   180   91  212 1    
   181   91  213 1    
   182   91  214 1    
   183   92   93 2    
   184   92   94 am   BACKBONE|DICT|INTERRES
   185   94   95 1    
   186   94  215 1    
   187   95   96 1    
   188   95   97 1    
   189   95  216 1    
   190   96  217 1    
   191   96  218 1    
   192   96  219 1    
   193   97   98 2    
   194   97   99 am   BACKBONE|DICT|INTERRES
   195   99  100 1    
   196   99  220 1    
   197  100  101 1    
   198  100  102 1    
   199  100  221 1    
   200  101  222 1    
   201  101  223 1    
   202  101  224 1    
   203  102  103 2    
   204  102  104 am   BACKBONE|DICT|INTERRES
   205  104  105 1    
   206  104  225 1    
   207  105  106 1    
   208  105  107 1    
   209  105  226 1    
   210  106  227 1    
   211  106  228 1    
   212  106  229 1    
   213  107  108 2    
   214  107  109 am   BACKBONE|DICT|INTERRES
   215  109  110 1    
   216  109  230 1    
   217  110  111 1    
   218  110  112 1    
   219  110  231 1    
   220  111  232 1    
   221  111  233 1    
   222  111  234 1    
   223  112  113 2    
   224  112  114 am   BACKBONE|DICT|INTERRES
   225  114  115 1    
   226  114  235 1    
   227  115  116 1    
   228  115  117 1    
   229  115  236 1    
   230  116  237 1    
   231  116  238 1    
   232  116  239 1    
   233  117  118 2    
   234  117  119 am   BACKBONE|DICT|INTERRES
   235  119  120 1    
   236  119  240 1    
   237  120  121 1    
   238  120  124 1    
   239  120  241 1    
   240  121  122 am   BACKBONE|DICT|INTERRES
   241  121  123 2    
   242  122  242 1    
   243  122  243 1    
   244  124  125 1    
   245  124  244 1    
   246  124  245 1    
   247  125  126 1    
   248  126  246 1    
   249  126  247 1    
@<TRIPOS>SUBSTRUCTURE
     1 UNK         1 GROUP             0       ****    0 ROOT    
