@<TRIPOS>MOLECULE
3R540
247   249    1
SMALL
USER_CHARGES


@<TRIPOS>ATOM
      1 CA          0.8271  -16.1570  -48.6705 C.3       0 UNK        -0.1800 
      2 C           0.1604  -14.8830  -48.1815 C.2       0 UNK         0.5000 
      3 O           0.4037  -14.4639  -47.0510 O.2       0 UNK        -0.5000 
      4 N          -0.6583  -14.2544  -49.0337 N.am      1 UNK        -0.5000 
      5 CA         -1.3836  -13.0005  -48.7715 C.3       1 UNK         0.1400 
      6 C6         -2.3341  -12.6689  -49.9490 C.3       23 UNK        -0.0398 
      7 S7         -3.7851  -11.6425  -49.5116 S.3       23 UNK        -0.2404 
      8 C8         -4.8982  -12.7672  -48.5924 C.3       23 UNK        -0.0205 
      9 C9         -4.8911  -14.1930  -49.1224 C.ar      23 UNK        -0.0193 
     10 C10        -5.5209  -14.5129  -50.3308 C.ar      23 UNK        -0.1150 
     11 C11        -5.4192  -15.8050  -50.8593 C.ar      23 UNK        -0.0193 
     12 C12        -4.7143  -16.7815  -50.1511 C.ar      23 UNK        -0.1150 
     13 C13        -4.1051  -16.4774  -48.9334 C.ar      23 UNK        -0.0193 
     14 C14        -4.2010  -15.1844  -48.4200 C.ar      23 UNK        -0.1150 
     15 C15        -3.3086  -17.5350  -48.1960 C.3       23 UNK        -0.0205 
     16 S16        -4.3875  -18.6066  -47.1954 S.3       23 UNK        -0.2404 
     17 C17        -3.1292  -19.6689  -46.4199 C.3       23 UNK        -0.0398 
     18 CA         -2.6000  -20.7629  -47.3836 C.3       11 UNK         0.1400 
     19 N          -1.1747  -21.0360  -47.2158 N.am      11 UNK        -0.5000 
     20 C          -0.1999  -20.2138  -47.6201 C.2       10 UNK         0.5000 
     21 O          -0.4149  -19.0964  -48.0865 O.2       10 UNK        -0.5000 
     22 CA          1.2407  -20.7177  -47.4534 C.3       10 UNK         0.1400 
     23 CB          2.3000  -19.6995  -47.9157 C.3       10 UNK        -0.1800 
     24 N           1.4829  -21.0502  -46.0548 N.am      10 UNK        -0.5000 
     25 C           2.1784  -22.1117  -45.6295 C.2       9 UNK         0.5000 
     26 O           2.6337  -22.9747  -46.3818 O.2       9 UNK        -0.5000 
     27 CA          2.4023  -22.2128  -44.1062 C.3       9 UNK         0.1400 
     28 CB          3.4755  -23.2485  -43.7125 C.3       9 UNK        -0.1800 
     29 N           2.6761  -20.9110  -43.4912 N.am      9 UNK        -0.5000 
     30 C           3.7003  -20.0786  -43.7445 C.2       8 UNK         0.5000 
     31 O           4.6255  -20.3451  -44.5121 O.2       8 UNK        -0.5000 
     32 CA          3.6886  -18.7079  -43.0332 C.3       8 UNK         0.1400 
     33 CB          3.6855  -17.5572  -44.0559 C.3       8 UNK        -0.1800 
     34 N           2.5359  -18.5581  -42.1409 N.am      8 UNK        -0.5000 
     35 C           2.5111  -18.9268  -40.8517 C.2       7 UNK         0.5000 
     36 O           3.5050  -19.3066  -40.2327 O.2       7 UNK        -0.5000 
     37 CA          1.1411  -18.9159  -40.1432 C.3       7 UNK         0.1400 
     38 CB          1.0019  -17.6995  -39.2172 C.3       7 UNK        -0.1800 
     39 N           0.0149  -18.9498  -41.0814 N.am      7 UNK        -0.5000 
     40 C          -0.3769  -20.0506  -41.7405 C.2       6 UNK         0.5000 
     41 O           0.1612  -21.1488  -41.6058 O.2       6 UNK        -0.5000 
     42 CA         -1.5113  -19.8944  -42.7706 C.3       6 UNK         0.1400 
     43 CB         -2.8784  -20.1492  -42.1200 C.3       6 UNK        -0.1800 
     44 N          -1.5223  -18.5860  -43.4258 N.am      6 UNK        -0.5000 
     45 C          -0.5455  -18.1197  -44.2151 C.2       5 UNK         0.5000 
     46 O           0.4713  -18.7635  -44.4791 O.2       5 UNK        -0.5000 
     47 CA         -0.7265  -16.7092  -44.8117 C.3       5 UNK         0.1400 
     48 CB         -2.1601  -16.1459  -44.6868 C.3       5 UNK        -0.1800 
     49 N           0.2347  -15.7440  -44.2716 N.am      5 UNK        -0.5000 
     50 C           0.4477  -15.4461  -42.9794 C.2       4 UNK         0.5000 
     51 O          -0.1250  -16.0185  -42.0504 O.2       4 UNK        -0.5000 
     52 CA          1.4694  -14.3328  -42.6613 C.3       4 UNK         0.1400 
     53 CB          2.3606  -14.6992  -41.4617 C.3       4 UNK        -0.1800 
     54 N           2.3284  -14.0151  -43.8047 N.am      4 UNK        -0.5000 
     55 C           2.1466  -12.9908  -44.6469 C.2       3 UNK         0.5000 
     56 O           1.2284  -12.1755  -44.5350 O.2       3 UNK        -0.5000 
     57 CA          3.1611  -12.8496  -45.7995 C.3       3 UNK         0.1400 
     58 CB          3.8658  -14.1736  -46.1651 C.3       3 UNK        -0.1800 
     59 N           2.4706  -12.3526  -46.9846 N.am      3 UNK        -0.5000 
     60 C           2.6705  -11.1693  -47.5773 C.2       2 UNK         0.5000 
     61 O           3.5054  -10.3481  -47.1945 O.2       2 UNK        -0.5000 
     62 CA          1.8181  -10.8455  -48.8237 C.3       2 UNK         0.1400 
     63 CB          2.7025  -10.7834  -50.0798 C.3       2 UNK        -0.1800 
     64 N           0.7486  -11.8172  -49.0609 N.am      2 UNK        -0.5000 
     65 C          -0.4468  -11.8115  -48.4550 C.2       1 UNK         0.5000 
     66 O          -0.8056  -10.9395  -47.6630 O.2       1 UNK        -0.5000 
     67 C          -3.3962  -22.0760  -47.3297 C.2       11 UNK         0.5000 
     68 O          -2.7974  -23.1523  -47.2884 O.2       11 UNK        -0.5000 
     69 N          -4.7315  -21.9714  -47.3659 N.am      12 UNK        -0.5000 
     70 CA         -5.6765  -23.0850  -47.4963 C.3       12 UNK         0.1400 
     71 CB         -7.1100  -22.5359  -47.4946 C.3       12 UNK        -0.1800 
     72 C          -5.5135  -24.1912  -46.4375 C.2       12 UNK         0.5000 
     73 O          -5.5981  -25.3738  -46.7728 O.2       12 UNK        -0.5000 
     74 N          -5.2239  -23.7779  -45.1965 N.am      13 UNK        -0.5000 
     75 CA         -4.9563  -24.6519  -44.0529 C.3       13 UNK         0.1400 
     76 CB         -4.9063  -23.7932  -42.7796 C.3       13 UNK        -0.1800 
     77 C          -3.6625  -25.4806  -44.1872 C.2       13 UNK         0.5000 
     78 O          -3.5512  -26.5287  -43.5510 O.2       13 UNK        -0.5000 
     79 N          -2.7187  -25.0185  -45.0177 N.am      14 UNK        -0.5000 
     80 CA         -1.4462  -25.6754  -45.3039 C.3       14 UNK         0.1400 
     81 CB         -0.3414  -24.6069  -45.3736 C.3       14 UNK        -0.1800 
     82 C          -1.5607  -26.5093  -46.5937 C.2       14 UNK         0.5000 
     83 O          -0.7737  -26.3278  -47.5226 O.2       14 UNK        -0.5000 
     84 N          -2.5569  -27.4063  -46.6214 N.am      15 UNK        -0.5000 
     85 CA         -2.8621  -28.3607  -47.6921 C.3       15 UNK         0.1400 
     86 CB         -1.7538  -29.4304  -47.7941 C.3       15 UNK        -0.1800 
     87 C          -3.1750  -27.6813  -49.0421 C.2       15 UNK         0.5000 
     88 O          -2.5979  -28.0454  -50.0685 O.2       15 UNK        -0.5000 
     89 N          -4.0995  -26.7095  -49.0082 N.am      16 UNK        -0.5000 
     90 CA         -4.6489  -25.9814  -50.1592 C.3       16 UNK         0.1400 
     91 CB         -5.3796  -26.9369  -51.1270 C.3       16 UNK        -0.1800 
     92 C          -3.6352  -25.0669  -50.8818 C.2       16 UNK         0.5000 
     93 O          -3.8374  -24.7443  -52.0536 O.2       16 UNK        -0.5000 
     94 N          -2.5860  -24.6152  -50.1766 N.am      17 UNK        -0.5000 
     95 CA         -1.5059  -23.7821  -50.7247 C.3       17 UNK         0.1400 
     96 CB         -0.3496  -23.7022  -49.7171 C.3       17 UNK        -0.1800 
     97 C          -1.9404  -22.3758  -51.1921 C.2       17 UNK         0.5000 
     98 O          -1.1910  -21.7269  -51.9205 O.2       17 UNK        -0.5000 
     99 N          -3.1589  -21.9495  -50.8264 N.am      18 UNK        -0.5000 
    100 CA        -3.8288  -20.7492  -51.3389 C.3       18 UNK         0.1400 
    101 CB        -5.1745  -20.5792  -50.6165 C.3       18 UNK        -0.1800 
    102 C         -4.0561  -20.7703  -52.8644 C.2       18 UNK         0.5000 
    103 O         -4.1180  -19.7048  -53.4800 O.2       18 UNK        -0.5000 
    104 N         -4.1495  -21.9766  -53.4471 N.am      19 UNK        -0.5000 
    105 CA        -4.3129  -22.2122  -54.8825 C.3       19 UNK         0.1400 
    106 CB        -4.5878  -23.7049  -55.1172 C.3       19 UNK        -0.1800 
    107 C         -3.1150  -21.7465  -55.7334 C.2       19 UNK         0.5000 
    108 O         -3.2859  -21.5139  -56.9311 O.2       19 UNK        -0.5000 
    109 N         -1.9368  -21.5765  -55.1148 N.am      20 UNK        -0.5000 
    110 CA        -0.7256  -21.0319  -55.7309 C.3       20 UNK         0.1400 
    111 CB         0.4990  -21.5116  -54.9314 C.3       20 UNK        -0.1800 
    112 C         -0.7940  -19.4934  -55.8534 C.2       20 UNK         0.5000 
    113 O          0.0675  -18.7887  -55.3237 O.2       20 UNK        -0.5000 
    114 N         -1.8431  -19.0037  -56.5307 N.am      21 UNK        -0.5000 
    115 CA        -2.1397  -17.6025  -56.8522 C.3       21 UNK         0.1400 
    116 CB        -1.1942  -17.1146  -57.9694 C.3       21 UNK        -0.1800 
    117 C         -2.1459  -16.6650  -55.6242 C.2       21 UNK         0.5000 
    118 O         -1.6539  -15.5384  -55.7113 O.2       21 UNK        -0.5000 
    119 N         -2.6793  -17.1597  -54.4979 N.am      22 UNK        -0.5000 
    120 CA        -2.6878  -16.4967  -53.1817 C.3       22 UNK         0.1400 
    121 C         -1.2849  -16.3466  -52.5110 C.2       22 UNK         0.5000 
    122 N         -0.2383  -17.0145  -52.9816 N.am      22 UNK        -0.7600 
    123 O         -1.1412  -15.6280  -51.5246 O.2       22 UNK        -0.5000 
    124 C124       -3.4841  -15.1598  -53.1646 C.3       23 UNK        -0.0398 
    125 S125       -5.2452  -15.3089  -53.6328 S.3       23 UNK        -0.2404 
    126 C126       -6.0316  -16.1519  -52.2110 C.3       23 UNK        -0.0205 
    127 H127        0.1917  -16.6928  -49.3758 H         1 UNK         0.0600 
    128 H128        1.7725  -15.9246  -49.1598 H         1 UNK         0.0600 
    129 H129        1.0323  -16.8195  -47.8308 H         1 UNK         0.0600 
    130 H130       -0.8218  -14.6793  -49.9458 H         1 UNK         0.3000 
    131 H131       -1.9848  -13.1789  -47.8782 H         1 UNK         0.0600 
    132 H132       -2.7006  -13.5885  -50.3986 H         1 UNK         0.0800 
    133 H133       -1.7928  -12.1712  -50.7558 H         1 UNK         0.0800 
    134 H134       -5.9136  -12.3707  -48.6335 H         1 UNK         0.0800 
    135 H135       -4.6130  -12.7533  -47.5393 H         1 UNK         0.0800 
    136 H136       -6.0454  -13.7462  -50.8837 H         1 UNK         0.1150 
    137 H137       -4.6219  -17.7781  -50.5547 H         1 UNK         0.1150 
    138 H138       -3.7111  -14.9439  -47.4871 H         1 UNK         0.1150 
    139 H139       -2.7589  -18.1349  -48.9219 H         1 UNK         0.0800 
    140 H140       -2.5560  -17.0649  -47.5618 H         1 UNK         0.0800 
    141 H141       -2.3187  -19.0135  -46.1158 H         1 UNK         0.0800 
    142 H142       -3.5221  -20.0922  -45.4939 H         1 UNK         0.0800 
    143 H143       -2.7131  -20.4174  -48.4124 H         1 UNK         0.0600 
    144 H144       -0.9553  -21.9605  -46.8700 H         1 UNK         0.3000 
    145 H145        1.3273  -21.6083  -48.0787 H         1 UNK         0.0600 
    146 H146        3.3021  -20.1254  -47.8623 H         1 UNK         0.0600 
    147 H147        2.1309  -19.3930  -48.9488 H         1 UNK         0.0600 
    148 H148        2.2882  -18.8029  -47.2951 H         1 UNK         0.0600 
    149 H149        1.1489  -20.3661  -45.3802 H         1 UNK         0.3000 
    150 H150        1.4555  -22.5500  -43.6836 H         1 UNK         0.0600 
    151 H151        3.1974  -24.2464  -44.0537 H         1 UNK         0.0600 
    152 H152        3.5959  -23.2987  -42.6304 H         1 UNK         0.0600 
    153 H153        4.4469  -23.0136  -44.1483 H         1 UNK         0.0600 
    154 H154        1.9738  -20.5983  -42.8347 H         1 UNK         0.3000 
    155 H155        4.6123  -18.6383  -42.4552 H         1 UNK         0.0600 
    156 H156        4.5324  -17.6361  -44.7387 H         1 UNK         0.0600 
    157 H157        3.7685  -16.5925  -43.5593 H         1 UNK         0.0600 
    158 H158        2.7803  -17.5499  -44.6626 H         1 UNK         0.0600 
    159 H159        1.6664  -18.2926  -42.5840 H         1 UNK         0.3000 
    160 H160        1.0963  -19.8111  -39.5191 H         1 UNK         0.0600 
    161 H161        1.0063  -16.7657  -39.7753 H         1 UNK         0.0600 
    162 H162        0.0734  -17.7433  -38.6479 H         1 UNK         0.0600 
    163 H163        1.8219  -17.6572  -38.4992 H         1 UNK         0.0600 
    164 H164       -0.4278  -18.0617  -41.2900 H         1 UNK         0.3000 
    165 H165       -1.3570  -20.6515  -43.5428 H         1 UNK         0.0600 
    166 H166       -3.6779  -20.1381  -42.8609 H         1 UNK         0.0600 
    167 H167       -2.9028  -21.1242  -41.6314 H         1 UNK         0.0600 
    168 H168       -3.1099  -19.3981  -41.3638 H         1 UNK         0.0600 
    169 H169       -2.3085  -17.9845  -43.2260 H         1 UNK         0.3000 
    170 H170       -0.5063  -16.8122  -45.8743 H         1 UNK         0.0600 
    171 H171       -2.9011  -16.8323  -45.0961 H         1 UNK         0.0600 
    172 H172       -2.4343  -15.9393  -43.6518 H         1 UNK         0.0600 
    173 H173       -2.2532  -15.2120  -45.2416 H         1 UNK         0.0600 
    174 H174        0.7306  -15.2064  -44.9718 H         1 UNK         0.3000 
    175 H175        0.8913  -13.4507  -42.3790 H         1 UNK         0.0600 
    176 H176        2.8419  -15.6687  -41.5880 H         1 UNK         0.0600 
    177 H177        3.1411  -13.9543  -41.3060 H         1 UNK         0.0600 
    178 H178        1.7746  -14.7378  -40.5437 H         1 UNK         0.0600 
    179 H179        3.1013  -14.6420  -43.9717 H         1 UNK         0.3000 
    180 H180        3.9198  -12.1380  -45.4687 H         1 UNK         0.0600 
    181 H181        4.5002  -14.5289  -45.3525 H         1 UNK         0.0600 
    182 H182        3.1508  -14.9621  -46.4050 H         1 UNK         0.0600 
    183 H183        4.5125  -14.0425  -47.0330 H         1 UNK         0.0600 
    184 H184        1.6936  -12.9267  -47.2929 H         1 UNK         0.3000 
    185 H185        1.3764   -9.8588  -48.6698 H         1 UNK         0.0600 
    186 H186        3.4914  -10.0384  -49.9680 H         1 UNK         0.0600 
    187 H187        3.1825  -11.7418  -50.2817 H         1 UNK         0.0600 
    188 H188        2.1203  -10.5067  -50.9590 H         1 UNK         0.0600 
    189 H189        0.9623  -12.5797  -49.6877 H         1 UNK         0.3000 
    190 H190       -5.1384  -21.0454  -47.3706 H         1 UNK         0.3000 
    191 H191       -5.4937  -23.5339  -48.4708 H         1 UNK         0.0600 
    192 H192       -7.8374  -23.3398  -47.6155 H         1 UNK         0.0600 
    193 H193       -7.2652  -21.8341  -48.3144 H         1 UNK         0.0600 
    194 H194       -7.3424  -22.0195  -46.5625 H         1 UNK         0.0600 
    195 H195       -5.1694  -22.7847  -45.0271 H         1 UNK         0.3000 
    196 H196       -5.7877  -25.3542  -43.9633 H         1 UNK         0.0600 
    197 H197       -4.7405  -24.4116  -41.8964 H         1 UNK         0.0600 
    198 H198       -5.8429  -23.2566  -42.6269 H         1 UNK         0.0600 
    199 H199       -4.1006  -23.0593  -42.8221 H         1 UNK         0.0600 
    200 H200       -2.9244  -24.2078  -45.5906 H         1 UNK         0.3000 
    201 H201       -1.1869  -26.3622  -44.4956 H         1 UNK         0.0600 
    202 H202       -0.3115  -24.0168  -44.4581 H         1 UNK         0.0600 
    203 H203       -0.4874  -23.9243  -46.2101 H         1 UNK         0.0600 
    204 H204        0.6392  -25.0681  -45.4972 H         1 UNK         0.0600 
    205 H205       -3.1609  -27.4509  -45.8115 H         1 UNK         0.3000 
    206 H206       -3.7785  -28.8715  -47.3932 H         1 UNK         0.0600 
    207 H207       -1.5881  -29.9190  -46.8340 H         1 UNK         0.0600 
    208 H208       -2.0258  -30.2073  -48.5095 H         1 UNK         0.0600 
    209 H209       -0.8052  -29.0032  -48.1210 H         1 UNK         0.0600 
    210 H210       -4.5023  -26.4589  -48.1098 H         1 UNK         0.3000 
    211 H211       -5.4123  -25.3202  -49.7545 H         1 UNK         0.0600 
    212 H212       -4.6856  -27.5878  -51.6593 H         1 UNK         0.0600 
    213 H213       -5.9403  -26.3795  -51.8783 H         1 UNK         0.0600 
    214 H214       -6.0929  -27.5675  -50.5962 H         1 UNK         0.0600 
    215 H215       -2.4851  -24.9037  -49.2123 H         1 UNK         0.3000 
    216 H216       -1.1277  -24.2914  -51.6135 H         1 UNK         0.0600 
    217 H217       -0.6710  -23.2981  -48.7601 H         1 UNK         0.0600 
    218 H218        0.4567  -23.0689  -50.0890 H         1 UNK         0.0600 
    219 H219        0.0765  -24.6884  -49.5334 H         1 UNK         0.0600 
    220 H220       -3.7111  -22.5681  -50.2533 H         1 UNK         0.3000 
    221 H221       -3.1985  -19.8860  -51.1151 H         1 UNK         0.0600 
    222 H222       -5.7796  -21.4850  -50.6709 H         1 UNK         0.0600 
    223 H223       -5.0309  -20.3308  -49.5676 H         1 UNK         0.0600 
    224 H224       -5.7627  -19.7724  -51.0557 H         1 UNK         0.0600 
    225 H225       -4.0737  -22.8068  -52.8694 H         1 UNK         0.3000 
    226 H226       -5.1863  -21.6470  -55.2140 H         1 UNK         0.0600 
    227 H227       -5.4650  -24.0380  -54.5623 H         1 UNK         0.0600 
    228 H228       -4.7744  -23.9079  -56.1726 H         1 UNK         0.0600 
    229 H229       -3.7426  -24.3215  -54.8086 H         1 UNK         0.0600 
    230 H230       -1.8879  -21.7423  -54.1176 H         1 UNK         0.3000 
    231 H231       -0.6346  -21.4325  -56.7426 H         1 UNK         0.0600 
    232 H232        0.4976  -21.1162  -53.9152 H         1 UNK         0.0600 
    233 H233        0.5288  -22.5994  -54.8677 H         1 UNK         0.0600 
    234 H234        1.4259  -21.1886  -55.4068 H         1 UNK         0.0600 
    235 H235       -2.5060  -19.6856  -56.8869 H         1 UNK         0.3000 
    236 H236       -3.1560  -17.5867  -57.2483 H         1 UNK         0.0600 
    237 H237       -1.2351  -17.7739  -58.8364 H         1 UNK         0.0600 
    238 H238       -1.4699  -16.1162  -58.3109 H         1 UNK         0.0600 
    239 H239       -0.1589  -17.0720  -57.6293 H         1 UNK         0.0600 
    240 H240       -3.0628  -18.0977  -54.5056 H         1 UNK         0.3000 
    241 H241       -3.2132  -17.1916  -52.5286 H         1 UNK         0.0600 
    242 H242        0.6527  -16.9057  -52.5266 H         1 UNK         0.3800 
    243 H243       -0.3052  -17.6007  -53.8078 H         1 UNK         0.3800 
    244 H244       -3.0219  -14.4343  -53.8339 H         1 UNK         0.0800 
    245 H245       -3.4385  -14.6925  -52.1845 H         1 UNK         0.0800 
    246 H246       -7.0931  -15.9015  -52.1969 H         1 UNK         0.0800 
    247 H247       -5.9793  -17.2280  -52.3856 H         1 UNK         0.0800 
@<TRIPOS>BOND
     1    1    2 1    
     2    1  127 1    
     3    1  128 1    
     4    1  129 1    
     5    2    3 2    
     6    2    4 am   BACKBONE|DICT|INTERRES
     7    4    5 1    
     8    4  130 1    
     9    5    6 1    
    10    5   65 1    
    11    5  131 1    
    12    6    7 1    
    13    6  132 1    
    14    6  133 1    
    15    7    8 1    
    16    8    9 1    
    17    8  134 1    
    18    8  135 1    
    19    9   10 ar   
    20    9   14 ar   
    21   10   11 ar   
    22   10  136 1    
    23   11   12 ar   
    24   11  126 1    
    25   12   13 ar   
    26   12  137 1    
    27   13   14 ar   
    28   13   15 1    
    29   14  138 1    
    30   15   16 1    
    31   15  139 1    
    32   15  140 1    
    33   16   17 1    
    34   17   18 1    
    35   17  141 1    
    36   17  142 1    
    37   18   19 1    
    38   18   67 1    
    39   18  143 1    
    40   19   20 am   BACKBONE|DICT|INTERRES
    41   19  144 1    
    42   20   21 2    
    43   20   22 1    
    44   22   23 1    
    45   22   24 1    
    46   22  145 1    
    47   23  146 1    
    48   23  147 1    
    49   23  148 1    
    50   24   25 am   BACKBONE|DICT|INTERRES
    51   24  149 1    
    52   25   26 2    
    53   25   27 1    
    54   27   28 1    
    55   27   29 1    
    56   27  150 1    
    57   28  151 1    
    58   28  152 1    
    59   28  153 1    
    60   29   30 am   BACKBONE|DICT|INTERRES
    61   29  154 1    
    62   30   31 2    
    63   30   32 1    
    64   32   33 1    
    65   32   34 1    
    66   32  155 1    
    67   33  156 1    
    68   33  157 1    
    69   33  158 1    
    70   34   35 am   BACKBONE|DICT|INTERRES
    71   34  159 1    
    72   35   36 2    
    73   35   37 1    
    74   37   38 1    
    75   37   39 1    
    76   37  160 1    
    77   38  161 1    
    78   38  162 1    
    79   38  163 1    
    80   39   40 am   BACKBONE|DICT|INTERRES
    81   39  164 1    
    82   40   41 2    
    83   40   42 1    
    84   42   43 1    
    85   42   44 1    
    86   42  165 1    
    87   43  166 1    
    88   43  167 1    
    89   43  168 1    
    90   44   45 am   BACKBONE|DICT|INTERRES
    91   44  169 1    
    92   45   46 2    
    93   45   47 1    
    94   47   48 1    
    95   47   49 1    
    96   47  170 1    
    97   48  171 1    
    98   48  172 1    
    99   48  173 1    
   100   49   50 am   BACKBONE|DICT|INTERRES
   101   49  174 1    
   102   50   51 2    
   103   50   52 1    
   104   52   53 1    
   105   52   54 1    
   106   52  175 1    
   107   53  176 1    
   108   53  177 1    
   109   53  178 1    
   110   54   55 am   BACKBONE|DICT|INTERRES
   111   54  179 1    
   112   55   56 2    
   113   55   57 1    
   114   57   58 1    
   115   57   59 1    
   116   57  180 1    
   117   58  181 1    
   118   58  182 1    
   119   58  183 1    
   120   59   60 am   BACKBONE|DICT|INTERRES
   121   59  184 1    
   122   60   61 2    
   123   60   62 1    
   124   62   63 1    
   125   62   64 1    
   126   62  185 1    
   127   63  186 1    
   128   63  187 1    
   129   63  188 1    
   130   64   65 am   BACKBONE|DICT|INTERRES
   131   64  189 1    
   132   65   66 2    
   133   67   68 2    
   134   67   69 am   BACKBONE|DICT|INTERRES
   135   69   70 1    
   136   69  190 1    
   137   70   71 1    
   138   70   72 1    
   139   70  191 1    
   140   71  192 1    
   141   71  193 1    
   142   71  194 1    
   143   72   73 2    
   144   72   74 am   BACKBONE|DICT|INTERRES
   145   74   75 1    
   146   74  195 1    
   147   75   76 1    
   148   75   77 1    
   149   75  196 1    
   150   76  197 1    
   151   76  198 1    
   152   76  199 1    
   153   77   78 2    
   154   77   79 am   BACKBONE|DICT|INTERRES
   155   79   80 1    
   156   79  200 1    
   157   80   81 1    
   158   80   82 1    
   159   80  201 1    
   160   81  202 1    
   161   81  203 1    
   162   81  204 1    
   163   82   83 2    
   164   82   84 am   BACKBONE|DICT|INTERRES
   165   84   85 1    
   166   84  205 1    
   167   85   86 1    
   168   85   87 1    
   169   85  206 1    
   170   86  207 1    
   171   86  208 1    
   172   86  209 1    
   173   87   88 2    
   174   87   89 am   BACKBONE|DICT|INTERRES
   175   89   90 1    
   176   89  210 1    
   177   90   91 1    
   178   90   92 1    
   179   90  211 1    
   180   91  212 1    
   181   91  213 1    
   182   91  214 1    
   183   92   93 2    
   184   92   94 am   BACKBONE|DICT|INTERRES
   185   94   95 1    
   186   94  215 1    
   187   95   96 1    
   188   95   97 1    
   189   95  216 1    
   190   96  217 1    
   191   96  218 1    
   192   96  219 1    
   193   97   98 2    
   194   97   99 am   BACKBONE|DICT|INTERRES
   195   99  100 1    
   196   99  220 1    
   197  100  101 1    
   198  100  102 1    
   199  100  221 1    
   200  101  222 1    
   201  101  223 1    
   202  101  224 1    
   203  102  103 2    
   204  102  104 am   BACKBONE|DICT|INTERRES
   205  104  105 1    
   206  104  225 1    
   207  105  106 1    
   208  105  107 1    
   209  105  226 1    
   210  106  227 1    
   211  106  228 1    
   212  106  229 1    
   213  107  108 2    
   214  107  109 am   BACKBONE|DICT|INTERRES
   215  109  110 1    
   216  109  230 1    
   217  110  111 1    
   218  110  112 1    
   219  110  231 1    
   220  111  232 1    
   221  111  233 1    
   222  111  234 1    
   223  112  113 2    
   224  112  114 am   BACKBONE|DICT|INTERRES
   225  114  115 1    
   226  114  235 1    
   227  115  116 1    
   228  115  117 1    
   229  115  236 1    
   230  116  237 1    
   231  116  238 1    
   232  116  239 1    
   233  117  118 2    
   234  117  119 am   BACKBONE|DICT|INTERRES
   235  119  120 1    
   236  119  240 1    
   237  120  121 1    
   238  120  124 1    
   239  120  241 1    
   240  121  122 am   BACKBONE|DICT|INTERRES
   241  121  123 2    
   242  122  242 1    
   243  122  243 1    
   244  124  125 1    
   245  124  244 1    
   246  124  245 1    
   247  125  126 1    
   248  126  246 1    
   249  126  247 1    
@<TRIPOS>SUBSTRUCTURE
     1 UNK         1 GROUP             0       ****    0 ROOT    
