@<TRIPOS>MOLECULE
3R540
247   249    1
SMALL
USER_CHARGES


@<TRIPOS>ATOM
      1 CA         -0.7895   -9.5664  -51.8732 C.3       0 UNK        -0.1800 
      2 C           0.2007  -10.2808  -50.9651 C.2       0 UNK         0.5000 
      3 O           0.8588   -9.6393  -50.1460 O.2       0 UNK        -0.5000 
      4 N           0.3007  -11.6088  -51.0983 N.am      1 UNK        -0.5000 
      5 CA          1.1701  -12.4776  -50.2970 C.3       1 UNK         0.1400 
      6 C6          1.3155  -13.8671  -50.9685 C.3       23 UNK        -0.0398 
      7 S7          2.8371  -14.7795  -50.5309 S.3       23 UNK        -0.2404 
      8 C8          2.3570  -15.8094  -49.1013 C.3       23 UNK        -0.0205 
      9 C9          1.1340  -16.6756  -49.3534 C.ar      23 UNK        -0.0193 
     10 C10        -0.1299  -16.2518  -48.9333 C.ar      23 UNK        -0.1150 
     11 C11        -1.2567  -17.0507  -49.1396 C.ar      23 UNK        -0.0193 
     12 C12        -1.1068  -18.2970  -49.7533 C.ar      23 UNK        -0.1150 
     13 C13         0.1583  -18.7454  -50.1460 C.ar      23 UNK        -0.0193 
     14 C14         1.2720  -17.9241  -49.9594 C.ar      23 UNK        -0.1150 
     15 C15         0.3415  -20.1399  -50.7161 C.3       23 UNK        -0.0205 
     16 S16         0.7574  -21.3153  -49.3896 S.3       23 UNK        -0.2404 
     17 C17        -0.8485  -21.4295  -48.5376 C.3       23 UNK        -0.0398 
     18 CA         -0.9511  -22.6873  -47.6477 C.3       11 UNK         0.1400 
     19 N          -0.2067  -22.5229  -46.3961 N.am      11 UNK        -0.5000 
     20 C           0.0309  -23.4986  -45.5103 C.2       10 UNK         0.5000 
     21 O          -0.3268  -24.6655  -45.6690 O.2       10 UNK        -0.5000 
     22 CA          0.7417  -23.0910  -44.2068 C.3       10 UNK         0.1400 
     23 CB          2.2544  -22.9386  -44.4256 C.3       10 UNK        -0.1800 
     24 N           0.1956  -21.8575  -43.6371 N.am      10 UNK        -0.5000 
     25 C          -1.0467  -21.7421  -43.1450 C.2       9 UNK         0.5000 
     26 O          -1.8433  -22.6769  -43.0763 O.2       9 UNK        -0.5000 
     27 CA         -1.4921  -20.3443  -42.6798 C.3       9 UNK         0.1400 
     28 CB         -1.0089  -20.0709  -41.2479 C.3       9 UNK        -0.1800 
     29 N          -1.0397  -19.2721  -43.5662 N.am      9 UNK        -0.5000 
     30 C          -1.3991  -19.1401  -44.8509 C.2       8 UNK         0.5000 
     31 O          -2.1780  -19.8990  -45.4260 O.2       8 UNK        -0.5000 
     32 CA         -0.7299  -18.0057  -45.6462 C.3       8 UNK         0.1400 
     33 CB         -1.3765  -16.6486  -45.3316 C.3       8 UNK        -0.1800 
     34 N           0.7114  -17.9291  -45.4185 N.am      8 UNK        -0.5000 
     35 C           1.5744  -18.9204  -45.6833 C.2       7 UNK         0.5000 
     36 O           1.2522  -20.0006  -46.1768 O.2       7 UNK        -0.5000 
     37 CA          3.0317  -18.6888  -45.2561 C.3       7 UNK         0.1400 
     38 CB          3.7800  -17.8283  -46.2841 C.3       7 UNK        -0.1800 
     39 N           3.1064  -18.0632  -43.9362 N.am      7 UNK        -0.5000 
     40 C           2.7950  -18.6865  -42.7909 C.2       6 UNK         0.5000 
     41 O           2.4602  -19.8699  -42.7244 O.2       6 UNK        -0.5000 
     42 CA          2.8275  -17.8302  -41.5112 C.3       6 UNK         0.1400 
     43 CB          4.2609  -17.7138  -40.9717 C.3       6 UNK        -0.1800 
     44 N           2.2736  -16.4894  -41.7131 N.am      6 UNK        -0.5000 
     45 C           0.9846  -16.2401  -41.9832 C.2       5 UNK         0.5000 
     46 O           0.1256  -17.1160  -42.0669 O.2       5 UNK        -0.5000 
     47 CA          0.5893  -14.7732  -42.2359 C.3       5 UNK         0.1400 
     48 CB          0.2151  -14.0823  -40.9166 C.3       5 UNK        -0.1800 
     49 N           1.6102  -13.9785  -42.9221 N.am      5 UNK        -0.5000 
     50 C           2.1375  -14.2548  -44.1216 C.2       4 UNK         0.5000 
     51 O           1.8796  -15.2738  -44.7665 O.2       4 UNK        -0.5000 
     52 CA          3.0748  -13.1801  -44.6990 C.3       4 UNK         0.1400 
     53 CB          4.0192  -13.7379  -45.7774 C.3       4 UNK        -0.1800 
     54 N           2.2673  -12.1044  -45.2688 N.am      4 UNK        -0.5000 
     55 C           1.7488  -11.0816  -44.5726 C.2       3 UNK         0.5000 
     56 O           2.0080  -10.8698  -43.3869 O.2       3 UNK        -0.5000 
     57 CA          0.7483  -10.1589  -45.3032 C.3       3 UNK         0.1400 
     58 CB          1.4777   -8.9589  -45.9253 C.3       3 UNK        -0.1800 
     59 N          -0.0142  -10.8455  -46.3475 N.am      3 UNK        -0.5000 
     60 C          -0.8632  -11.8610  -46.1371 C.2       2 UNK         0.5000 
     61 O          -1.2218  -12.2223  -45.0159 O.2       2 UNK        -0.5000 
     62 CA         -1.3791  -12.6325  -47.3717 C.3       2 UNK         0.1400 
     63 CB         -2.8647  -12.3310  -47.6208 C.3       2 UNK        -0.1800 
     64 N          -0.6451  -12.4297  -48.6287 N.am      2 UNK        -0.5000 
     65 C           0.6693  -12.6054  -48.8414 C.2       1 UNK         0.5000 
     66 O           1.4741  -12.8408  -47.9427 O.2       1 UNK        -0.5000 
     67 C          -2.4297  -23.0631  -47.4159 C.2       11 UNK         0.5000 
     68 O          -2.9808  -23.8378  -48.1986 O.2       11 UNK        -0.5000 
     69 N          -3.0449  -22.5123  -46.3618 N.am      12 UNK        -0.5000 
     70 CA         -4.4265  -22.7885  -45.9632 C.3       12 UNK         0.1400 
     71 CB         -4.9175  -21.6513  -45.0543 C.3       12 UNK        -0.1800 
     72 C          -4.6142  -24.1541  -45.2724 C.2       12 UNK         0.5000 
     73 O          -5.7538  -24.6055  -45.1450 O.2       12 UNK        -0.5000 
     74 N          -3.5156  -24.7794  -44.8289 N.am      13 UNK        -0.5000 
     75 CA         -3.4902  -26.1041  -44.2127 C.3       13 UNK         0.1400 
     76 CB         -2.2971  -26.1788  -43.2386 C.3       13 UNK        -0.1800 
     77 C          -3.4801  -27.2241  -45.2774 C.2       13 UNK         0.5000 
     78 O          -3.9707  -27.0322  -46.3928 O.2       13 UNK        -0.5000 
     79 N          -2.9183  -28.3865  -44.9156 N.am      14 UNK        -0.5000 
     80 CA         -2.8846  -29.6259  -45.7024 C.3       14 UNK         0.1400 
     81 CB         -2.2142  -30.7222  -44.8594 C.3       14 UNK        -0.1800 
     82 C          -2.2084  -29.5237  -47.0862 C.2       14 UNK         0.5000 
     83 O          -2.4333  -30.3954  -47.9270 O.2       14 UNK        -0.5000 
     84 N          -1.4107  -28.4697  -47.3096 N.am      15 UNK        -0.5000 
     85 CA         -0.8219  -28.1295  -48.6048 C.3       15 UNK         0.1400 
     86 CB          0.1738  -26.9742  -48.4148 C.3       15 UNK        -0.1800 
     87 C          -1.8741  -27.7508  -49.6664 C.2       15 UNK         0.5000 
     88 O          -1.6599  -28.0287  -50.8465 O.2       15 UNK        -0.5000 
     89 N          -2.9744  -27.1141  -49.2285 N.am      16 UNK        -0.5000 
     90 CA         -4.1141  -26.6331  -50.0244 C.3       16 UNK         0.1400 
     91 CB         -4.9125  -27.8236  -50.5923 C.3       16 UNK        -0.1800 
     92 C          -3.7483  -25.5993  -51.1158 C.2       16 UNK         0.5000 
     93 O          -4.5332  -25.3651  -52.0366 O.2       16 UNK        -0.5000 
     94 N          -2.5698  -24.9780  -50.9863 N.am      17 UNK        -0.5000 
     95 CA         -1.9973  -24.0185  -51.9285 C.3       17 UNK         0.1400 
     96 CB         -0.4902  -23.9082  -51.6623 C.3       17 UNK        -0.1800 
     97 C          -2.6820  -22.6390  -51.9061 C.2       17 UNK         0.5000 
     98 O          -2.4629  -21.8458  -52.8211 O.2       17 UNK        -0.5000 
     99 N          -3.5372  -22.3816  -50.9035 N.am      18 UNK        -0.5000 
    100 CA        -4.3812  -21.1846  -50.7955 C.3       18 UNK         0.1400 
    101 CB        -5.1133  -21.1967  -49.4465 C.3       18 UNK        -0.1800 
    102 C         -5.3753  -21.0061  -51.9639 C.2       18 UNK         0.5000 
    103 O         -5.8454  -19.8913  -52.1926 O.2       18 UNK        -0.5000 
    104 N         -5.6186  -22.0804  -52.7309 N.am      19 UNK        -0.5000 
    105 CA        -6.3346  -22.0864  -54.0098 C.3       19 UNK         0.1400 
    106 CB        -6.4315  -23.5358  -54.5094 C.3       19 UNK        -0.1800 
    107 C         -5.7063  -21.1818  -55.0956 C.2       19 UNK         0.5000 
    108 O         -6.4014  -20.8129  -56.0425 O.2       19 UNK        -0.5000 
    109 N         -4.4279  -20.8045  -54.9293 N.am      20 UNK        -0.5000 
    110 CA        -3.7296  -19.7982  -55.7354 C.3       20 UNK         0.1400 
    111 CB        -2.2227  -19.8952  -55.4480 C.3       20 UNK        -0.1800 
    112 C         -4.2274  -18.3526  -55.5023 C.2       20 UNK         0.5000 
    113 O         -3.8319  -17.4581  -56.2506 O.2       20 UNK        -0.5000 
    114 N         -5.0640  -18.1429  -54.4729 N.am      21 UNK        -0.5000 
    115 CA        -5.7181  -16.8877  -54.0842 C.3       21 UNK         0.1400 
    116 CB        -6.6112  -16.3431  -55.2192 C.3       21 UNK        -0.1800 
    117 C         -4.7602  -15.8237  -53.5097 C.2       21 UNK         0.5000 
    118 O         -5.1285  -14.6499  -53.4396 O.2       21 UNK        -0.5000 
    119 N         -3.5721  -16.2586  -53.0665 N.am      22 UNK        -0.5000 
    120 CA        -2.5767  -15.4638  -52.3217 C.3       22 UNK         0.1400 
    121 C         -1.9285  -14.3041  -53.1396 C.2       22 UNK         0.5000 
    122 N         -1.9165  -14.3663  -54.4652 N.am      22 UNK        -0.7600 
    123 O         -1.4134  -13.3435  -52.5730 O.2       22 UNK        -0.5000 
    124 C124       -3.0988  -14.9962  -50.9313 C.3       23 UNK        -0.0398 
    125 S125       -3.8347  -16.3586  -49.9576 S.3       23 UNK        -0.2404 
    126 C126       -2.6181  -16.5980  -48.6299 C.3       23 UNK        -0.0205 
    127 H127       -1.5368   -9.0436  -51.2763 H         1 UNK         0.0600 
    128 H128       -1.3077  -10.2635  -52.5328 H         1 UNK         0.0600 
    129 H129       -0.2709   -8.8340  -52.4917 H         1 UNK         0.0600 
    130 H130       -0.2947  -12.0930  -51.7690 H         1 UNK         0.3000 
    131 H131        2.1555  -12.0079  -50.2628 H         1 UNK         0.0600 
    132 H132        0.4281  -14.4804  -50.8221 H         1 UNK         0.0800 
    133 H133        1.3752  -13.7305  -52.0493 H         1 UNK         0.0800 
    134 H134        2.1953  -15.1916  -48.2213 H         1 UNK         0.0800 
    135 H135        3.2046  -16.4482  -48.8529 H         1 UNK         0.0800 
    136 H136       -0.2308  -15.3026  -48.4315 H         1 UNK         0.1150 
    137 H137       -1.9709  -18.9308  -49.8891 H         1 UNK         0.1150 
    138 H138        2.2518  -18.2709  -50.2566 H         1 UNK         0.1150 
    139 H139       -0.5558  -20.4635  -51.2450 H         1 UNK         0.0800 
    140 H140        1.1456  -20.1371  -51.4534 H         1 UNK         0.0800 
    141 H141       -1.6227  -21.4258  -49.3031 H         1 UNK         0.0800 
    142 H142       -1.0051  -20.5264  -47.9455 H         1 UNK         0.0800 
    143 H143       -0.5047  -23.5279  -48.1825 H         1 UNK         0.0600 
    144 H144        0.1724  -21.5960  -46.2164 H         1 UNK         0.3000 
    145 H145        0.5860  -23.8921  -43.4811 H         1 UNK         0.0600 
    146 H146        2.4843  -22.1429  -45.1341 H         1 UNK         0.0600 
    147 H147        2.7661  -22.7100  -43.4905 H         1 UNK         0.0600 
    148 H148        2.6860  -23.8607  -44.8167 H         1 UNK         0.0600 
    149 H149        0.8017  -21.0459  -43.6348 H         1 UNK         0.3000 
    150 H150       -2.5839  -20.3306  -42.6767 H         1 UNK         0.0600 
    151 H151       -1.3345  -20.8585  -40.5672 H         1 UNK         0.0600 
    152 H152       -1.4093  -19.1299  -40.8705 H         1 UNK         0.0600 
    153 H153        0.0790  -20.0170  -41.1937 H         1 UNK         0.0600 
    154 H154       -0.4320  -18.5702  -43.1517 H         1 UNK         0.3000 
    155 H155       -0.8760  -18.2236  -46.7039 H         1 UNK         0.0600 
    156 H156       -2.4402  -16.6579  -45.5706 H         1 UNK         0.0600 
    157 H157       -1.2850  -16.3949  -44.2767 H         1 UNK         0.0600 
    158 H158       -0.9148  -15.8475  -45.9085 H         1 UNK         0.0600 
    159 H159        1.0732  -17.0584  -45.0407 H         1 UNK         0.3000 
    160 H160        3.5253  -19.6617  -45.2052 H         1 UNK         0.0600 
    161 H161        4.8277  -17.7066  -46.0095 H         1 UNK         0.0600 
    162 H162        3.7531  -18.2944  -47.2699 H         1 UNK         0.0600 
    163 H163        3.3405  -16.8353  -46.3772 H         1 UNK         0.0600 
    164 H164        3.3010  -17.0727  -43.9142 H         1 UNK         0.3000 
    165 H165        2.2205  -18.3374  -40.7580 H         1 UNK         0.0600 
    166 H166        4.2823  -17.1784  -40.0223 H         1 UNK         0.0600 
    167 H167        4.6928  -18.7002  -40.7970 H         1 UNK         0.0600 
    168 H168        4.9142  -17.1880  -41.6690 H         1 UNK         0.0600 
    169 H169        2.9153  -15.7121  -41.6623 H         1 UNK         0.3000 
    170 H170       -0.2952  -14.7776  -42.8750 H         1 UNK         0.0600 
    171 H171       -0.5639  -14.6371  -40.3919 H         1 UNK         0.0600 
    172 H172        1.0717  -14.0038  -40.2460 H         1 UNK         0.0600 
    173 H173       -0.1672  -13.0766  -41.0931 H         1 UNK         0.0600 
    174 H174        1.8477  -13.0922  -42.4963 H         1 UNK         0.3000 
    175 H175        3.6937  -12.7910  -43.8878 H         1 UNK         0.0600 
    176 H176        3.4724  -14.1251  -46.6356 H         1 UNK         0.0600 
    177 H177        4.7005  -12.9677  -46.1387 H         1 UNK         0.0600 
    178 H178        4.6267  -14.5523  -45.3812 H         1 UNK         0.0600 
    179 H179        1.9643  -12.2474  -46.2299 H         1 UNK         0.3000 
    180 H180        0.0407   -9.7847  -44.5606 H         1 UNK         0.0600 
    181 H181        2.1806   -9.2729  -46.6982 H         1 UNK         0.0600 
    182 H182        2.0419   -8.4099  -45.1703 H         1 UNK         0.0600 
    183 H183        0.7735   -8.2595  -46.3765 H         1 UNK         0.0600 
    184 H184        0.2309  -10.6268  -47.3025 H         1 UNK         0.3000 
    185 H185       -1.2912  -13.6899  -47.1204 H         1 UNK         0.0600 
    186 H186       -3.2745  -12.9741  -48.4000 H         1 UNK         0.0600 
    187 H187       -3.4573  -12.5006  -46.7208 H         1 UNK         0.0600 
    188 H188       -3.0171  -11.2944  -47.9239 H         1 UNK         0.0600 
    189 H189       -1.2076  -12.1844  -49.4304 H         1 UNK         0.3000 
    190 H190       -2.5504  -21.8140  -45.8147 H         1 UNK         0.3000 
    191 H191       -5.0498  -22.7972  -46.8592 H         1 UNK         0.0600 
    192 H192       -4.3181  -21.5783  -44.1463 H         1 UNK         0.0600 
    193 H193       -5.9542  -21.8068  -44.7535 H         1 UNK         0.0600 
    194 H194       -4.8697  -20.6900  -45.5663 H         1 UNK         0.0600 
    195 H195       -2.6185  -24.3394  -44.9827 H         1 UNK         0.3000 
    196 H196       -4.4015  -26.2340  -43.6256 H         1 UNK         0.0600 
    197 H197       -2.3407  -27.0753  -42.6196 H         1 UNK         0.0600 
    198 H198       -2.2952  -25.3290  -42.5559 H         1 UNK         0.0600 
    199 H199       -1.3421  -26.1830  -43.7640 H         1 UNK         0.0600 
    200 H200       -2.5202  -28.4474  -43.9898 H         1 UNK         0.3000 
    201 H201       -3.9205  -29.9205  -45.8812 H         1 UNK         0.0600 
    202 H202       -2.7496  -30.8853  -43.9238 H         1 UNK         0.0600 
    203 H203       -1.1819  -30.4666  -44.6172 H         1 UNK         0.0600 
    204 H204       -2.2002  -31.6743  -45.3918 H         1 UNK         0.0600 
    205 H205       -1.2796  -27.8048  -46.5614 H         1 UNK         0.3000 
    206 H206       -0.2751  -29.0015  -48.9697 H         1 UNK         0.0600 
    207 H207        0.9620  -27.2422  -47.7110 H         1 UNK         0.0600 
    208 H208        0.6553  -26.7128  -49.3581 H         1 UNK         0.0600 
    209 H209       -0.3195  -26.0772  -48.0390 H         1 UNK         0.0600 
    210 H210       -3.0682  -26.9590  -48.2290 H         1 UNK         0.3000 
    211 H211       -4.7617  -26.1059  -49.3224 H         1 UNK         0.0600 
    212 H212       -4.3448  -28.3668  -51.3483 H         1 UNK         0.0600 
    213 H213       -5.8404  -27.4892  -51.0575 H         1 UNK         0.0600 
    214 H214       -5.1816  -28.5276  -49.8046 H         1 UNK         0.0600 
    215 H215       -2.0243  -25.1918  -50.1646 H         1 UNK         0.3000 
    216 H216       -2.1301  -24.4131  -52.9379 H         1 UNK         0.0600 
    217 H217       -0.0315  -23.1274  -52.2705 H         1 UNK         0.0600 
    218 H218       -0.2856  -23.6810  -50.6181 H         1 UNK         0.0600 
    219 H219        0.0162  -24.8439  -51.8999 H         1 UNK         0.0600 
    220 H220       -3.6411  -23.0810  -50.1780 H         1 UNK         0.3000 
    221 H221       -3.7223  -20.3146  -50.8139 H         1 UNK         0.0600 
    222 H222       -5.7036  -22.1044  -49.3163 H         1 UNK         0.0600 
    223 H223       -4.4082  -21.1270  -48.6192 H         1 UNK         0.0600 
    224 H224       -5.7910  -20.3463  -49.3584 H         1 UNK         0.0600 
    225 H225       -5.1945  -22.9575  -52.4596 H         1 UNK         0.3000 
    226 H226       -7.3447  -21.7162  -53.8242 H         1 UNK         0.0600 
    227 H227       -6.9485  -24.1686  -53.7877 H         1 UNK         0.0600 
    228 H228       -6.9866  -23.5923  -55.4467 H         1 UNK         0.0600 
    229 H229       -5.4445  -23.9662  -54.6840 H         1 UNK         0.0600 
    230 H230       -3.9075  -21.1774  -54.1420 H         1 UNK         0.3000 
    231 H231       -3.8932  -20.0327  -56.7890 H         1 UNK         0.0600 
    232 H232       -1.6566  -19.2137  -56.0842 H         1 UNK         0.0600 
    233 H233       -1.8479  -20.9013  -55.6370 H         1 UNK         0.0600 
    234 H234       -1.9943  -19.6423  -54.4118 H         1 UNK         0.0600 
    235 H235       -5.2970  -18.9337  -53.8805 H         1 UNK         0.3000 
    236 H236       -6.3790  -17.1543  -53.2582 H         1 UNK         0.0600 
    237 H237       -7.2369  -15.5231  -54.8650 H         1 UNK         0.0600 
    238 H238       -7.2783  -17.1158  -55.6013 H         1 UNK         0.0600 
    239 H239       -6.0221  -15.9634  -56.0542 H         1 UNK         0.0600 
    240 H240       -3.3641  -17.2400  -53.1709 H         1 UNK         0.3000 
    241 H241       -1.7506  -16.1490  -52.1286 H         1 UNK         0.0600 
    242 H242       -1.4961  -13.6180  -54.9928 H         1 UNK         0.3800 
    243 H243       -2.3481  -15.1408  -54.9457 H         1 UNK         0.3800 
    244 H244       -3.8560  -14.2202  -51.0515 H         1 UNK         0.0800 
    245 H245       -2.2927  -14.5404  -50.3549 H         1 UNK         0.0800 
    246 H246       -3.0037  -17.3525  -47.9431 H         1 UNK         0.0800 
    247 H247       -2.5363  -15.6744  -48.0557 H         1 UNK         0.0800 
@<TRIPOS>BOND
     1    1    2 1    
     2    1  127 1    
     3    1  128 1    
     4    1  129 1    
     5    2    3 2    
     6    2    4 am   BACKBONE|DICT|INTERRES
     7    4    5 1    
     8    4  130 1    
     9    5    6 1    
    10    5   65 1    
    11    5  131 1    
    12    6    7 1    
    13    6  132 1    
    14    6  133 1    
    15    7    8 1    
    16    8    9 1    
    17    8  134 1    
    18    8  135 1    
    19    9   10 ar   
    20    9   14 ar   
    21   10   11 ar   
    22   10  136 1    
    23   11   12 ar   
    24   11  126 1    
    25   12   13 ar   
    26   12  137 1    
    27   13   14 ar   
    28   13   15 1    
    29   14  138 1    
    30   15   16 1    
    31   15  139 1    
    32   15  140 1    
    33   16   17 1    
    34   17   18 1    
    35   17  141 1    
    36   17  142 1    
    37   18   19 1    
    38   18   67 1    
    39   18  143 1    
    40   19   20 am   BACKBONE|DICT|INTERRES
    41   19  144 1    
    42   20   21 2    
    43   20   22 1    
    44   22   23 1    
    45   22   24 1    
    46   22  145 1    
    47   23  146 1    
    48   23  147 1    
    49   23  148 1    
    50   24   25 am   BACKBONE|DICT|INTERRES
    51   24  149 1    
    52   25   26 2    
    53   25   27 1    
    54   27   28 1    
    55   27   29 1    
    56   27  150 1    
    57   28  151 1    
    58   28  152 1    
    59   28  153 1    
    60   29   30 am   BACKBONE|DICT|INTERRES
    61   29  154 1    
    62   30   31 2    
    63   30   32 1    
    64   32   33 1    
    65   32   34 1    
    66   32  155 1    
    67   33  156 1    
    68   33  157 1    
    69   33  158 1    
    70   34   35 am   BACKBONE|DICT|INTERRES
    71   34  159 1    
    72   35   36 2    
    73   35   37 1    
    74   37   38 1    
    75   37   39 1    
    76   37  160 1    
    77   38  161 1    
    78   38  162 1    
    79   38  163 1    
    80   39   40 am   BACKBONE|DICT|INTERRES
    81   39  164 1    
    82   40   41 2    
    83   40   42 1    
    84   42   43 1    
    85   42   44 1    
    86   42  165 1    
    87   43  166 1    
    88   43  167 1    
    89   43  168 1    
    90   44   45 am   BACKBONE|DICT|INTERRES
    91   44  169 1    
    92   45   46 2    
    93   45   47 1    
    94   47   48 1    
    95   47   49 1    
    96   47  170 1    
    97   48  171 1    
    98   48  172 1    
    99   48  173 1    
   100   49   50 am   BACKBONE|DICT|INTERRES
   101   49  174 1    
   102   50   51 2    
   103   50   52 1    
   104   52   53 1    
   105   52   54 1    
   106   52  175 1    
   107   53  176 1    
   108   53  177 1    
   109   53  178 1    
   110   54   55 am   BACKBONE|DICT|INTERRES
   111   54  179 1    
   112   55   56 2    
   113   55   57 1    
   114   57   58 1    
   115   57   59 1    
   116   57  180 1    
   117   58  181 1    
   118   58  182 1    
   119   58  183 1    
   120   59   60 am   BACKBONE|DICT|INTERRES
   121   59  184 1    
   122   60   61 2    
   123   60   62 1    
   124   62   63 1    
   125   62   64 1    
   126   62  185 1    
   127   63  186 1    
   128   63  187 1    
   129   63  188 1    
   130   64   65 am   BACKBONE|DICT|INTERRES
   131   64  189 1    
   132   65   66 2    
   133   67   68 2    
   134   67   69 am   BACKBONE|DICT|INTERRES
   135   69   70 1    
   136   69  190 1    
   137   70   71 1    
   138   70   72 1    
   139   70  191 1    
   140   71  192 1    
   141   71  193 1    
   142   71  194 1    
   143   72   73 2    
   144   72   74 am   BACKBONE|DICT|INTERRES
   145   74   75 1    
   146   74  195 1    
   147   75   76 1    
   148   75   77 1    
   149   75  196 1    
   150   76  197 1    
   151   76  198 1    
   152   76  199 1    
   153   77   78 2    
   154   77   79 am   BACKBONE|DICT|INTERRES
   155   79   80 1    
   156   79  200 1    
   157   80   81 1    
   158   80   82 1    
   159   80  201 1    
   160   81  202 1    
   161   81  203 1    
   162   81  204 1    
   163   82   83 2    
   164   82   84 am   BACKBONE|DICT|INTERRES
   165   84   85 1    
   166   84  205 1    
   167   85   86 1    
   168   85   87 1    
   169   85  206 1    
   170   86  207 1    
   171   86  208 1    
   172   86  209 1    
   173   87   88 2    
   174   87   89 am   BACKBONE|DICT|INTERRES
   175   89   90 1    
   176   89  210 1    
   177   90   91 1    
   178   90   92 1    
   179   90  211 1    
   180   91  212 1    
   181   91  213 1    
   182   91  214 1    
   183   92   93 2    
   184   92   94 am   BACKBONE|DICT|INTERRES
   185   94   95 1    
   186   94  215 1    
   187   95   96 1    
   188   95   97 1    
   189   95  216 1    
   190   96  217 1    
   191   96  218 1    
   192   96  219 1    
   193   97   98 2    
   194   97   99 am   BACKBONE|DICT|INTERRES
   195   99  100 1    
   196   99  220 1    
   197  100  101 1    
   198  100  102 1    
   199  100  221 1    
   200  101  222 1    
   201  101  223 1    
   202  101  224 1    
   203  102  103 2    
   204  102  104 am   BACKBONE|DICT|INTERRES
   205  104  105 1    
   206  104  225 1    
   207  105  106 1    
   208  105  107 1    
   209  105  226 1    
   210  106  227 1    
   211  106  228 1    
   212  106  229 1    
   213  107  108 2    
   214  107  109 am   BACKBONE|DICT|INTERRES
   215  109  110 1    
   216  109  230 1    
   217  110  111 1    
   218  110  112 1    
   219  110  231 1    
   220  111  232 1    
   221  111  233 1    
   222  111  234 1    
   223  112  113 2    
   224  112  114 am   BACKBONE|DICT|INTERRES
   225  114  115 1    
   226  114  235 1    
   227  115  116 1    
   228  115  117 1    
   229  115  236 1    
   230  116  237 1    
   231  116  238 1    
   232  116  239 1    
   233  117  118 2    
   234  117  119 am   BACKBONE|DICT|INTERRES
   235  119  120 1    
   236  119  240 1    
   237  120  121 1    
   238  120  124 1    
   239  120  241 1    
   240  121  122 am   BACKBONE|DICT|INTERRES
   241  121  123 2    
   242  122  242 1    
   243  122  243 1    
   244  124  125 1    
   245  124  244 1    
   246  124  245 1    
   247  125  126 1    
   248  126  246 1    
   249  126  247 1    
@<TRIPOS>SUBSTRUCTURE
     1 UNK         1 GROUP             0       ****    0 ROOT    
