@<TRIPOS>MOLECULE
3R540
247   249    1
SMALL
USER_CHARGES


@<TRIPOS>ATOM
      1 CA          2.1138   -8.6061  -47.0150 C.3       0 UNK        -0.1800 
      2 C           2.2828  -10.0937  -46.7423 C.2       0 UNK         0.5000 
      3 O           2.6067  -10.4738  -45.6184 O.2       0 UNK        -0.5000 
      4 N           2.0586  -10.9326  -47.7628 N.am      1 UNK        -0.5000 
      5 CA          2.1983  -12.3932  -47.7229 C.3       1 UNK         0.1400 
      6 C6          1.1838  -13.0538  -46.7436 C.3       23 UNK        -0.0398 
      7 S7          0.7765  -14.7897  -47.1285 S.3       23 UNK        -0.2404 
      8 C8         -0.3566  -14.5801  -48.5405 C.3       23 UNK        -0.0205 
      9 C9         -0.9591  -15.9065  -48.9780 C.ar      23 UNK        -0.0193 
     10 C10        -2.3398  -16.1137  -48.9036 C.ar      23 UNK        -0.1150 
     11 C11        -2.8991  -17.3404  -49.2741 C.ar      23 UNK        -0.0193 
     12 C12        -2.0590  -18.3589  -49.7355 C.ar      23 UNK        -0.1150 
     13 C13        -0.6770  -18.1705  -49.8062 C.ar      23 UNK        -0.0193 
     14 C14        -0.1352  -16.9329  -49.4490 C.ar      23 UNK        -0.1150 
     15 C15         0.2254  -19.3289  -50.2113 C.3       23 UNK        -0.0205 
     16 S16         1.4605  -19.7572  -48.9365 S.3       23 UNK        -0.2404 
     17 C17         0.4774  -19.8156  -47.3969 C.3       23 UNK        -0.0398 
     18 CA          0.3278  -21.2345  -46.8019 C.3       11 UNK         0.1400 
     19 N           0.1976  -21.1715  -45.3419 N.am      11 UNK        -0.5000 
     20 C           0.1544  -22.2181  -44.5059 C.2       10 UNK         0.5000 
     21 O           0.2118  -23.3911  -44.8720 O.2       10 UNK        -0.5000 
     22 CA         -0.0213  -21.8934  -43.0133 C.3       10 UNK         0.1400 
     23 CB          1.3105  -21.4590  -42.3816 C.3       10 UNK        -0.1800 
     24 N          -1.0214  -20.8434  -42.8244 N.am      10 UNK        -0.5000 
     25 C          -2.3437  -21.0616  -42.8078 C.2       9 UNK         0.5000 
     26 O          -2.8509  -22.1828  -42.8422 O.2       9 UNK        -0.5000 
     27 CA         -3.2588  -19.8221  -42.7623 C.3       9 UNK         0.1400 
     28 CB         -3.6008  -19.4567  -41.3103 C.3       9 UNK        -0.1800 
     29 N          -2.6870  -18.6507  -43.4284 N.am      9 UNK        -0.5000 
     30 C          -2.4540  -18.5617  -44.7465 C.2       8 UNK         0.5000 
     31 O          -2.6917  -19.4666  -45.5425 O.2       8 UNK        -0.5000 
     32 CA         -1.7844  -17.2691  -45.2484 C.3       8 UNK         0.1400 
     33 CB         -2.8482  -16.2009  -45.5351 C.3       8 UNK        -0.1800 
     34 N          -0.7973  -16.7302  -44.3103 N.am      8 UNK        -0.5000 
     35 C           0.2706  -17.3968  -43.8447 C.2       7 UNK         0.5000 
     36 O           0.5548  -18.5455  -44.1850 O.2       7 UNK        -0.5000 
     37 CA          1.1454  -16.6961  -42.7887 C.3       7 UNK         0.1400 
     38 CB          2.4389  -16.1770  -43.4318 C.3       7 UNK        -0.1800 
     39 N           0.4637  -15.6007  -42.0944 N.am      7 UNK        -0.5000 
     40 C          -0.5827  -15.7562  -41.2667 C.2       6 UNK         0.5000 
     41 O          -1.0669  -16.8543  -40.9892 O.2       6 UNK        -0.5000 
     42 CA         -1.2222  -14.4839  -40.6708 C.3       6 UNK         0.1400 
     43 CB         -0.7200  -14.2551  -39.2373 C.3       6 UNK        -0.1800 
     44 N          -0.9795  -13.2713  -41.4545 N.am      6 UNK        -0.5000 
     45 C          -1.3917  -13.0638  -42.7129 C.2       5 UNK         0.5000 
     46 O          -2.0923  -13.8585  -43.3387 O.2       5 UNK        -0.5000 
     47 CA         -0.8934  -11.7803  -43.4089 C.3       5 UNK         0.1400 
     48 CB         -1.9629  -10.6805  -43.3386 C.3       5 UNK        -0.1800 
     49 N           0.3755  -11.2487  -42.8924 N.am      5 UNK        -0.5000 
     50 C           1.5326  -11.9215  -42.8441 C.2       4 UNK         0.5000 
     51 O           1.6438  -13.1142  -43.1424 O.2       4 UNK        -0.5000 
     52 CA          2.7646  -11.1532  -42.3519 C.3       4 UNK         0.1400 
     53 CB          2.7798  -11.0523  -40.8172 C.3       4 UNK        -0.1800 
     54 N           3.9374  -11.8851  -42.8092 N.am      4 UNK        -0.5000 
     55 C           5.1297  -11.3638  -43.1110 C.2       3 UNK         0.5000 
     56 O           5.4320  -10.1820  -42.9419 O.2       3 UNK        -0.5000 
     57 CA          6.1426  -12.3331  -43.7336 C.3       3 UNK         0.1400 
     58 CB          6.7682  -13.2381  -42.6539 C.3       3 UNK        -0.1800 
     59 N           5.4935  -13.1282  -44.7772 N.am      3 UNK        -0.5000 
     60 C           6.1249  -13.8479  -45.7120 C.2       2 UNK         0.5000 
     61 O           7.3502  -13.9515  -45.7837 O.2       2 UNK        -0.5000 
     62 CA          5.2475  -14.5778  -46.7496 C.3       2 UNK         0.1400 
     63 CB          5.0861  -16.0574  -46.3703 C.3       2 UNK        -0.1800 
     64 N           3.9176  -13.9880  -46.9307 N.am      2 UNK        -0.5000 
     65 C           3.6782  -12.8156  -47.5327 C.2       1 UNK         0.5000 
     66 O           4.5769  -12.0926  -47.9713 O.2       1 UNK        -0.5000 
     67 C          -0.8220  -22.0211  -47.4731 C.2       11 UNK         0.5000 
     68 O          -0.5783  -22.7558  -48.4309 O.2       11 UNK        -0.5000 
     69 N          -2.0359  -21.9130  -46.9095 N.am      12 UNK        -0.5000 
     70 CA         -3.2526  -22.6364  -47.2929 C.3       12 UNK         0.1400 
     71 CB         -4.3832  -22.2640  -46.3210 C.3       12 UNK        -0.1800 
     72 C          -3.1087  -24.1708  -47.3452 C.2       12 UNK         0.5000 
     73 O          -3.8467  -24.8156  -48.0901 O.2       12 UNK        -0.5000 
     74 N          -2.1527  -24.7348  -46.5899 N.am      13 UNK        -0.5000 
     75 CA         -1.8287  -26.1641  -46.5786 C.3       13 UNK         0.1400 
     76 CB         -0.8279  -26.4491  -45.4494 C.3       13 UNK        -0.1800 
     77 C          -1.2893  -26.6942  -47.9237 C.2       13 UNK         0.5000 
     78 O          -1.3557  -27.9011  -48.1601 O.2       13 UNK        -0.5000 
     79 N          -0.7909  -25.7982  -48.7900 N.am      14 UNK        -0.5000 
     80 CA         -0.3834  -26.1125  -50.1612 C.3       14 UNK         0.1400 
     81 CB          0.5071  -24.9763  -50.6842 C.3       14 UNK        -0.1800 
     82 C          -1.5813  -26.3667  -51.1050 C.2       14 UNK         0.5000 
     83 O          -1.3957  -26.9897  -52.1512 O.2       14 UNK        -0.5000 
     84 N          -2.7794  -25.9141  -50.6997 N.am      15 UNK        -0.5000 
     85 CA         -4.0857  -26.0835  -51.3414 C.3       15 UNK         0.1400 
     86 CB         -4.4531  -27.5817  -51.4125 C.3       15 UNK        -0.1800 
     87 C          -4.2225  -25.3897  -52.7128 C.2       15 UNK         0.5000 
     88 O          -3.2924  -24.7453  -53.2059 O.2       15 UNK        -0.5000 
     89 N          -5.4101  -25.5354  -53.3173 N.am      16 UNK        -0.5000 
     90 CA         -5.7844  -24.9637  -54.6145 C.3       16 UNK         0.1400 
     91 CB         -7.2651  -25.2660  -54.8862 C.3       16 UNK        -0.1800 
     92 C          -4.9100  -25.4421  -55.7909 C.2       16 UNK         0.5000 
     93 O          -4.7849  -24.7189  -56.7784 O.2       16 UNK        -0.5000 
     94 N          -4.2706  -26.6115  -55.6441 N.am      17 UNK        -0.5000 
     95 CA         -3.2694  -27.1531  -56.5672 C.3       17 UNK         0.1400 
     96 CB         -2.8856  -28.5679  -56.1080 C.3       17 UNK        -0.1800 
     97 C          -2.0097  -26.2700  -56.6968 C.2       17 UNK         0.5000 
     98 O          -1.3835  -26.2634  -57.7570 O.2       17 UNK        -0.5000 
     99 N          -1.6837  -25.5228  -55.6337 N.am      18 UNK        -0.5000 
    100 CA        -0.6096  -24.5293  -55.5877 C.3       18 UNK         0.1400 
    101 CB         0.1734  -24.7332  -54.2828 C.3       18 UNK        -0.1800 
    102 C         -1.1608  -23.0903  -55.6701 C.2       18 UNK         0.5000 
    103 O         -0.4124  -22.1441  -55.4231 O.2       18 UNK        -0.5000 
    104 N         -2.4589  -22.9498  -55.9825 N.am      19 UNK        -0.5000 
    105 CA        -3.2532  -21.7171  -56.0104 C.3       19 UNK         0.1400 
    106 CB        -2.7116  -20.7226  -57.0583 C.3       19 UNK        -0.1800 
    107 C         -3.4552  -21.0699  -54.6226 C.2       19 UNK         0.5000 
    108 O         -3.8562  -19.9077  -54.5484 O.2       19 UNK        -0.5000 
    109 N         -3.2374  -21.8308  -53.5405 N.am      20 UNK        -0.5000 
    110 CA        -3.4111  -21.4004  -52.1523 C.3       20 UNK         0.1400 
    111 CB        -2.3704  -22.1155  -51.2748 C.3       20 UNK        -0.1800 
    112 C         -4.8585  -21.6365  -51.6752 C.2       20 UNK         0.5000 
    113 O         -5.0839  -22.1747  -50.5903 O.2       20 UNK        -0.5000 
    114 N         -5.8257  -21.2388  -52.5094 N.am      21 UNK        -0.5000 
    115 CA        -7.2604  -21.3264  -52.2552 C.3       21 UNK         0.1400 
    116 CB        -7.9892  -21.4578  -53.6047 C.3       21 UNK        -0.1800 
    117 C         -7.7224  -20.1009  -51.4446 C.2       21 UNK         0.5000 
    118 O         -8.3988  -19.2209  -51.9803 O.2       21 UNK        -0.5000 
    119 N         -7.3014  -20.0436  -50.1758 N.am      22 UNK        -0.5000 
    120 CA        -7.5474  -18.9169  -49.2577 C.3       22 UNK         0.1400 
    121 C         -9.0243  -18.7465  -48.7911 C.2       22 UNK         0.5000 
    122 N         -9.9047  -19.7202  -48.9890 N.am      22 UNK        -0.7600 
    123 O         -9.3780  -17.7072  -48.2410 O.2       22 UNK        -0.5000 
    124 C124       -6.5995  -18.9394  -48.0298 C.3       23 UNK        -0.0398 
    125 S125       -4.8363  -19.1656  -48.4361 S.3       23 UNK        -0.2404 
    126 C126       -4.4062  -17.5530  -49.1678 C.3       23 UNK        -0.0205 
    127 H127        1.3496   -8.1898  -46.3587 H         1 UNK         0.0600 
    128 H128        1.8188   -8.4132  -48.0467 H         1 UNK         0.0600 
    129 H129        3.0505   -8.0823  -46.8249 H         1 UNK         0.0600 
    130 H130        1.8300  -10.5479  -48.6687 H         1 UNK         0.3000 
    131 H131        1.9435  -12.7159  -48.7324 H         1 UNK         0.0600 
    132 H132        1.5472  -12.9991  -45.7183 H         1 UNK         0.0800 
    133 H133        0.2470  -12.4951  -46.7470 H         1 UNK         0.0800 
    134 H134       -1.1422  -13.8738  -48.2676 H         1 UNK         0.0800 
    135 H135        0.1788  -14.1427  -49.3836 H         1 UNK         0.0800 
    136 H136       -2.9803  -15.3213  -48.5428 H         1 UNK         0.1150 
    137 H137       -2.4816  -19.3140  -50.0080 H         1 UNK         0.1150 
    138 H138        0.9345  -16.7831  -49.4949 H         1 UNK         0.1150 
    139 H139       -0.3635  -20.2207  -50.4229 H         1 UNK         0.0800 
    140 H140        0.7419  -19.0734  -51.1372 H         1 UNK         0.0800 
    141 H141       -0.4978  -19.3445  -47.5136 H         1 UNK         0.0800 
    142 H142        1.0168  -19.1755  -46.6982 H         1 UNK         0.0800 
    143 H143        1.2490  -21.7882  -46.9951 H         1 UNK         0.0600 
    144 H144        0.1807  -20.2392  -44.9373 H         1 UNK         0.3000 
    145 H145       -0.3515  -22.8024  -42.5058 H         1 UNK         0.0600 
    146 H146        1.1937  -21.2601  -41.3162 H         1 UNK         0.0600 
    147 H147        1.7106  -20.5583  -42.8479 H         1 UNK         0.0600 
    148 H148        2.0624  -22.2421  -42.4856 H         1 UNK         0.0600 
    149 H149       -0.6869  -19.8896  -42.8389 H         1 UNK         0.3000 
    150 H150       -4.1863  -20.0802  -43.2780 H         1 UNK         0.0600 
    151 H151       -4.0604  -20.2999  -40.7930 H         1 UNK         0.0600 
    152 H152       -4.3055  -18.6261  -41.2673 H         1 UNK         0.0600 
    153 H153       -2.7110  -19.1713  -40.7476 H         1 UNK         0.0600 
    154 H154       -2.4183  -17.8773  -42.8351 H         1 UNK         0.3000 
    155 H155       -1.2661  -17.4958  -46.1817 H         1 UNK         0.0600 
    156 H156       -3.5847  -16.5674  -46.2510 H         1 UNK         0.0600 
    157 H157       -2.3994  -15.3010  -45.9562 H         1 UNK         0.0600 
    158 H158       -3.3863  -15.9156  -44.6305 H         1 UNK         0.0600 
    159 H159       -0.9681  -15.7927  -43.9697 H         1 UNK         0.3000 
    160 H160        1.4159  -17.4451  -42.0416 H         1 UNK         0.0600 
    161 H161        2.2330  -15.4747  -44.2404 H         1 UNK         0.0600 
    162 H162        3.0136  -17.0027  -43.8522 H         1 UNK         0.0600 
    163 H163        3.0747  -15.6759  -42.7017 H         1 UNK         0.0600 
    164 H164        0.7934  -14.6639  -42.3091 H         1 UNK         0.3000 
    165 H165       -2.3011  -14.6480  -40.6358 H         1 UNK         0.0600 
    166 H166       -1.2267  -13.4099  -38.7711 H         1 UNK         0.0600 
    167 H167       -0.9082  -15.1294  -38.6126 H         1 UNK         0.0600 
    168 H168        0.3529  -14.0595  -39.2140 H         1 UNK         0.0600 
    169 H169       -0.3993  -12.5657  -41.0260 H         1 UNK         0.3000 
    170 H170       -0.7342  -12.0316  -44.4591 H         1 UNK         0.0600 
    171 H171       -2.1390  -10.3566  -42.3121 H         1 UNK         0.0600 
    172 H172       -1.6708   -9.8074  -43.9224 H         1 UNK         0.0600 
    173 H173       -2.9142  -11.0334  -43.7396 H         1 UNK         0.0600 
    174 H174        0.3692  -10.2776  -42.6155 H         1 UNK         0.3000 
    175 H175        2.7540  -10.1550  -42.7948 H         1 UNK         0.0600 
    176 H176        2.7725  -12.0380  -40.3500 H         1 UNK         0.0600 
    177 H177        3.6658  -10.5230  -40.4661 H         1 UNK         0.0600 
    178 H178        1.9100  -10.5064  -40.4502 H         1 UNK         0.0600 
    179 H179        3.7504  -12.8638  -42.9851 H         1 UNK         0.3000 
    180 H180        6.9318  -11.7347  -44.1938 H         1 UNK         0.0600 
    181 H181        7.5743  -13.8484  -43.0605 H         1 UNK         0.0600 
    182 H182        6.0300  -13.9100  -42.2148 H         1 UNK         0.0600 
    183 H183        7.1938  -12.6428  -41.8451 H         1 UNK         0.0600 
    184 H184        4.4901  -13.0348  -44.8465 H         1 UNK         0.3000 
    185 H185        5.7696  -14.5310  -47.7076 H         1 UNK         0.0600 
    186 H186        4.5002  -16.5975  -47.1144 H         1 UNK         0.0600 
    187 H187        6.0567  -16.5503  -46.3012 H         1 UNK         0.0600 
    188 H188        4.5938  -16.1709  -45.4054 H         1 UNK         0.0600 
    189 H189        3.1281  -14.5477  -46.6365 H         1 UNK         0.3000 
    190 H190       -2.1570  -21.2152  -46.1807 H         1 UNK         0.3000 
    191 H191       -3.5334  -22.2974  -48.2908 H         1 UNK         0.0600 
    192 H192       -4.1490  -22.5664  -45.2998 H         1 UNK         0.0600 
    193 H193       -5.3179  -22.7500  -46.6035 H         1 UNK         0.0600 
    194 H194       -4.5697  -21.1913  -46.3149 H         1 UNK         0.0600 
    195 H195       -1.5610  -24.1362  -46.0260 H         1 UNK         0.3000 
    196 H196       -2.7502  -26.7080  -46.3613 H         1 UNK         0.0600 
    197 H197       -1.2014  -26.0950  -44.4883 H         1 UNK         0.0600 
    198 H198        0.1331  -25.9681  -45.6353 H         1 UNK         0.0600 
    199 H199       -0.6435  -27.5197  -45.3526 H         1 UNK         0.0600 
    200 H200       -0.7617  -24.8184  -48.5253 H         1 UNK         0.3000 
    201 H201        0.2161  -27.0248  -50.1371 H         1 UNK         0.0600 
    202 H202        1.3099  -24.7462  -49.9836 H         1 UNK         0.0600 
    203 H203       -0.0621  -24.0615  -50.8517 H         1 UNK         0.0600 
    204 H204        0.9763  -25.2562  -51.6267 H         1 UNK         0.0600 
    205 H205       -2.8172  -25.4222  -49.8147 H         1 UNK         0.3000 
    206 H206       -4.8002  -25.5925  -50.6791 H         1 UNK         0.0600 
    207 H207       -4.3078  -28.0664  -50.4468 H         1 UNK         0.0600 
    208 H208       -5.4986  -27.7270  -51.6849 H         1 UNK         0.0600 
    209 H209       -3.8470  -28.1143  -52.1461 H         1 UNK         0.0600 
    210 H210       -6.1256  -26.0739  -52.8508 H         1 UNK         0.3000 
    211 H211       -5.6627  -23.8810  -54.5413 H         1 UNK         0.0600 
    212 H212       -7.5914  -24.8111  -55.8225 H         1 UNK         0.0600 
    213 H213       -7.9022  -24.8698  -54.0952 H         1 UNK         0.0600 
    214 H214       -7.4493  -26.3385  -54.9602 H         1 UNK         0.0600 
    215 H215       -4.4309  -27.1358  -54.7969 H         1 UNK         0.3000 
    216 H216       -3.7275  -27.2226  -57.5559 H         1 UNK         0.0600 
    217 H217       -2.4442  -28.5600  -55.1102 H         1 UNK         0.0600 
    218 H218       -3.7545  -29.2260  -56.0868 H         1 UNK         0.0600 
    219 H219       -2.1572  -29.0148  -56.7860 H         1 UNK         0.0600 
    220 H220       -2.2580  -25.5766  -54.7984 H         1 UNK         0.3000 
    221 H221        0.0764  -24.6666  -56.4256 H         1 UNK         0.0600 
    222 H222       -0.4513  -24.5150  -53.4161 H         1 UNK         0.0600 
    223 H223        0.5305  -25.7590  -54.1901 H         1 UNK         0.0600 
    224 H224        1.0446  -24.0789  -54.2352 H         1 UNK         0.0600 
    225 H225       -2.9810  -23.7909  -56.1966 H         1 UNK         0.3000 
    226 H226       -4.2489  -22.0174  -56.3386 H         1 UNK         0.0600 
    227 H227       -2.5776  -21.2042  -58.0269 H         1 UNK         0.0600 
    228 H228       -3.4042  -19.8929  -57.2041 H         1 UNK         0.0600 
    229 H229       -1.7542  -20.2958  -56.7589 H         1 UNK         0.0600 
    230 H230       -2.9958  -22.8086  -53.6661 H         1 UNK         0.3000 
    231 H231       -3.2189  -20.3281  -52.0817 H         1 UNK         0.0600 
    232 H232       -2.3699  -21.7081  -50.2647 H         1 UNK         0.0600 
    233 H233       -1.3642  -21.9970  -51.6761 H         1 UNK         0.0600 
    234 H234       -2.5698  -23.1823  -51.1925 H         1 UNK         0.0600 
    235 H235       -5.5462  -20.7498  -53.3501 H         1 UNK         0.3000 
    236 H236       -7.4770  -22.2219  -51.6686 H         1 UNK         0.0600 
    237 H237       -7.8039  -20.5990  -54.2512 H         1 UNK         0.0600 
    238 H238       -7.6695  -22.3509  -54.1402 H         1 UNK         0.0600 
    239 H239       -9.0674  -21.5352  -53.4599 H         1 UNK         0.0600 
    240 H240       -6.6954  -20.7793  -49.8337 H         1 UNK         0.3000 
    241 H241       -7.3177  -18.0086  -49.8178 H         1 UNK         0.0600 
    242 H242      -10.8584  -19.5969  -48.6865 H         1 UNK         0.3800 
    243 H243       -9.6287  -20.5778  -49.4394 H         1 UNK         0.3800 
    244 H244       -6.7014  -18.0214  -47.4482 H         1 UNK         0.0800 
    245 H245       -6.8801  -19.7523  -47.3578 H         1 UNK         0.0800 
    246 H246       -4.8566  -16.7621  -48.5664 H         1 UNK         0.0800 
    247 H247       -4.8449  -17.4820  -50.1637 H         1 UNK         0.0800 
@<TRIPOS>BOND
     1    1    2 1    
     2    1  127 1    
     3    1  128 1    
     4    1  129 1    
     5    2    3 2    
     6    2    4 am   BACKBONE|DICT|INTERRES
     7    4    5 1    
     8    4  130 1    
     9    5    6 1    
    10    5   65 1    
    11    5  131 1    
    12    6    7 1    
    13    6  132 1    
    14    6  133 1    
    15    7    8 1    
    16    8    9 1    
    17    8  134 1    
    18    8  135 1    
    19    9   10 ar   
    20    9   14 ar   
    21   10   11 ar   
    22   10  136 1    
    23   11   12 ar   
    24   11  126 1    
    25   12   13 ar   
    26   12  137 1    
    27   13   14 ar   
    28   13   15 1    
    29   14  138 1    
    30   15   16 1    
    31   15  139 1    
    32   15  140 1    
    33   16   17 1    
    34   17   18 1    
    35   17  141 1    
    36   17  142 1    
    37   18   19 1    
    38   18   67 1    
    39   18  143 1    
    40   19   20 am   BACKBONE|DICT|INTERRES
    41   19  144 1    
    42   20   21 2    
    43   20   22 1    
    44   22   23 1    
    45   22   24 1    
    46   22  145 1    
    47   23  146 1    
    48   23  147 1    
    49   23  148 1    
    50   24   25 am   BACKBONE|DICT|INTERRES
    51   24  149 1    
    52   25   26 2    
    53   25   27 1    
    54   27   28 1    
    55   27   29 1    
    56   27  150 1    
    57   28  151 1    
    58   28  152 1    
    59   28  153 1    
    60   29   30 am   BACKBONE|DICT|INTERRES
    61   29  154 1    
    62   30   31 2    
    63   30   32 1    
    64   32   33 1    
    65   32   34 1    
    66   32  155 1    
    67   33  156 1    
    68   33  157 1    
    69   33  158 1    
    70   34   35 am   BACKBONE|DICT|INTERRES
    71   34  159 1    
    72   35   36 2    
    73   35   37 1    
    74   37   38 1    
    75   37   39 1    
    76   37  160 1    
    77   38  161 1    
    78   38  162 1    
    79   38  163 1    
    80   39   40 am   BACKBONE|DICT|INTERRES
    81   39  164 1    
    82   40   41 2    
    83   40   42 1    
    84   42   43 1    
    85   42   44 1    
    86   42  165 1    
    87   43  166 1    
    88   43  167 1    
    89   43  168 1    
    90   44   45 am   BACKBONE|DICT|INTERRES
    91   44  169 1    
    92   45   46 2    
    93   45   47 1    
    94   47   48 1    
    95   47   49 1    
    96   47  170 1    
    97   48  171 1    
    98   48  172 1    
    99   48  173 1    
   100   49   50 am   BACKBONE|DICT|INTERRES
   101   49  174 1    
   102   50   51 2    
   103   50   52 1    
   104   52   53 1    
   105   52   54 1    
   106   52  175 1    
   107   53  176 1    
   108   53  177 1    
   109   53  178 1    
   110   54   55 am   BACKBONE|DICT|INTERRES
   111   54  179 1    
   112   55   56 2    
   113   55   57 1    
   114   57   58 1    
   115   57   59 1    
   116   57  180 1    
   117   58  181 1    
   118   58  182 1    
   119   58  183 1    
   120   59   60 am   BACKBONE|DICT|INTERRES
   121   59  184 1    
   122   60   61 2    
   123   60   62 1    
   124   62   63 1    
   125   62   64 1    
   126   62  185 1    
   127   63  186 1    
   128   63  187 1    
   129   63  188 1    
   130   64   65 am   BACKBONE|DICT|INTERRES
   131   64  189 1    
   132   65   66 2    
   133   67   68 2    
   134   67   69 am   BACKBONE|DICT|INTERRES
   135   69   70 1    
   136   69  190 1    
   137   70   71 1    
   138   70   72 1    
   139   70  191 1    
   140   71  192 1    
   141   71  193 1    
   142   71  194 1    
   143   72   73 2    
   144   72   74 am   BACKBONE|DICT|INTERRES
   145   74   75 1    
   146   74  195 1    
   147   75   76 1    
   148   75   77 1    
   149   75  196 1    
   150   76  197 1    
   151   76  198 1    
   152   76  199 1    
   153   77   78 2    
   154   77   79 am   BACKBONE|DICT|INTERRES
   155   79   80 1    
   156   79  200 1    
   157   80   81 1    
   158   80   82 1    
   159   80  201 1    
   160   81  202 1    
   161   81  203 1    
   162   81  204 1    
   163   82   83 2    
   164   82   84 am   BACKBONE|DICT|INTERRES
   165   84   85 1    
   166   84  205 1    
   167   85   86 1    
   168   85   87 1    
   169   85  206 1    
   170   86  207 1    
   171   86  208 1    
   172   86  209 1    
   173   87   88 2    
   174   87   89 am   BACKBONE|DICT|INTERRES
   175   89   90 1    
   176   89  210 1    
   177   90   91 1    
   178   90   92 1    
   179   90  211 1    
   180   91  212 1    
   181   91  213 1    
   182   91  214 1    
   183   92   93 2    
   184   92   94 am   BACKBONE|DICT|INTERRES
   185   94   95 1    
   186   94  215 1    
   187   95   96 1    
   188   95   97 1    
   189   95  216 1    
   190   96  217 1    
   191   96  218 1    
   192   96  219 1    
   193   97   98 2    
   194   97   99 am   BACKBONE|DICT|INTERRES
   195   99  100 1    
   196   99  220 1    
   197  100  101 1    
   198  100  102 1    
   199  100  221 1    
   200  101  222 1    
   201  101  223 1    
   202  101  224 1    
   203  102  103 2    
   204  102  104 am   BACKBONE|DICT|INTERRES
   205  104  105 1    
   206  104  225 1    
   207  105  106 1    
   208  105  107 1    
   209  105  226 1    
   210  106  227 1    
   211  106  228 1    
   212  106  229 1    
   213  107  108 2    
   214  107  109 am   BACKBONE|DICT|INTERRES
   215  109  110 1    
   216  109  230 1    
   217  110  111 1    
   218  110  112 1    
   219  110  231 1    
   220  111  232 1    
   221  111  233 1    
   222  111  234 1    
   223  112  113 2    
   224  112  114 am   BACKBONE|DICT|INTERRES
   225  114  115 1    
   226  114  235 1    
   227  115  116 1    
   228  115  117 1    
   229  115  236 1    
   230  116  237 1    
   231  116  238 1    
   232  116  239 1    
   233  117  118 2    
   234  117  119 am   BACKBONE|DICT|INTERRES
   235  119  120 1    
   236  119  240 1    
   237  120  121 1    
   238  120  124 1    
   239  120  241 1    
   240  121  122 am   BACKBONE|DICT|INTERRES
   241  121  123 2    
   242  122  242 1    
   243  122  243 1    
   244  124  125 1    
   245  124  244 1    
   246  124  245 1    
   247  125  126 1    
   248  126  246 1    
   249  126  247 1    
@<TRIPOS>SUBSTRUCTURE
     1 UNK         1 GROUP             0       ****    0 ROOT    
