@<TRIPOS>MOLECULE
3R540
247   249    1
SMALL
USER_CHARGES


@<TRIPOS>ATOM
      1 CA          1.1251   -9.7405  -51.1502 C.3       0 UNK        -0.1800 
      2 C           1.0916  -10.6251  -49.9119 C.2       0 UNK         0.5000 
      3 O           1.7826  -10.3375  -48.9340 O.2       0 UNK        -0.5000 
      4 N           0.2965  -11.7014  -49.9504 N.am      1 UNK        -0.5000 
      5 CA          0.0903  -12.6318  -48.8399 C.3       1 UNK         0.1400 
      6 C6         -0.3555  -14.0262  -49.3505 C.3       23 UNK        -0.0398 
      7 S7         -0.1762  -15.3331  -48.0879 S.3       23 UNK        -0.2404 
      8 C8          1.5000  -15.9687  -48.4081 C.3       23 UNK        -0.0205 
      9 C9          1.5561  -16.8582  -49.6421 C.ar      23 UNK        -0.0193 
     10 C10         2.0288  -16.3566  -50.8583 C.ar      23 UNK        -0.1150 
     11 C11         2.0937  -17.1747  -51.9911 C.ar      23 UNK        -0.0193 
     12 C12         1.6985  -18.5127  -51.8919 C.ar      23 UNK        -0.1150 
     13 C13         1.2074  -19.0214  -50.6874 C.ar      23 UNK        -0.0193 
     14 C14         1.1459  -18.1917  -49.5646 C.ar      23 UNK        -0.1150 
     15 C15         0.7042  -20.4522  -50.6122 C.3       23 UNK        -0.0205 
     16 S16         1.8694  -21.5438  -49.7397 S.3       23 UNK        -0.2404 
     17 C17         1.0150  -23.1552  -49.8952 C.3       23 UNK        -0.0398 
     18 CA          0.1564  -23.5527  -48.6676 C.3       11 UNK         0.1400 
     19 N           0.9524  -23.5983  -47.4395 N.am      11 UNK        -0.5000 
     20 C           0.5645  -24.1459  -46.2806 C.2       10 UNK         0.5000 
     21 O          -0.5224  -24.6970  -46.1120 O.2       10 UNK        -0.5000 
     22 CA          1.5364  -23.9955  -45.0942 C.3       10 UNK         0.1400 
     23 CB          2.5154  -25.1777  -45.0491 C.3       10 UNK        -0.1800 
     24 N           2.2944  -22.7391  -45.1039 N.am      10 UNK        -0.5000 
     25 C           1.7518  -21.5140  -45.1086 C.2       9 UNK         0.5000 
     26 O           0.5382  -21.3075  -45.1596 O.2       9 UNK        -0.5000 
     27 CA          2.7271  -20.3271  -45.0988 C.3       9 UNK         0.1400 
     28 CB          2.5096  -19.4304  -46.3276 C.3       9 UNK        -0.1800 
     29 N           2.5747  -19.5272  -43.8874 N.am      9 UNK        -0.5000 
     30 C           2.9816  -19.8982  -42.6671 C.2       8 UNK         0.5000 
     31 O           3.5316  -20.9744  -42.4281 O.2       8 UNK        -0.5000 
     32 CA          2.7624  -18.8898  -41.5249 C.3       8 UNK         0.1400 
     33 CB          3.8107  -17.7675  -41.5805 C.3       8 UNK        -0.1800 
     34 N           1.4243  -18.3012  -41.5323 N.am      8 UNK        -0.5000 
     35 C           0.3132  -18.9374  -41.1363 C.2       7 UNK         0.5000 
     36 O           0.2990  -20.0963  -40.7196 O.2       7 UNK        -0.5000 
     37 CA         -1.0039  -18.1407  -41.2017 C.3       7 UNK         0.1400 
     38 CB         -1.1886  -17.2897  -39.9361 C.3       7 UNK        -0.1800 
     39 N          -1.0738  -17.2775  -42.3788 N.am      7 UNK        -0.5000 
     40 C          -1.2428  -17.7293  -43.6286 C.2       6 UNK         0.5000 
     41 O          -1.4622  -18.9073  -43.9015 O.2       6 UNK        -0.5000 
     42 CA         -1.1335  -16.6968  -44.7641 C.3       6 UNK         0.1400 
     43 CB         -2.5029  -16.0668  -45.0584 C.3       6 UNK        -0.1800 
     44 N          -0.1616  -15.6412  -44.4890 N.am      6 UNK        -0.5000 
     45 C           1.1585  -15.8234  -44.3608 C.2       5 UNK         0.5000 
     46 O           1.7135  -16.9145  -44.4619 O.2       5 UNK        -0.5000 
     47 CA          1.9945  -14.5839  -44.0066 C.3       5 UNK         0.1400 
     48 CB          2.3093  -13.7555  -45.2622 C.3       5 UNK        -0.1800 
     49 N           1.3247  -13.7489  -43.0097 N.am      5 UNK        -0.5000 
     50 C           1.1440  -14.1017  -41.7289 C.2       4 UNK         0.5000 
     51 O           1.5624  -15.1535  -41.2447 O.2       4 UNK        -0.5000 
     52 CA          0.3267  -13.1321  -40.8550 C.3       4 UNK         0.1400 
     53 CB          1.2170  -11.9983  -40.3246 C.3       4 UNK        -0.1800 
     54 N          -0.8155  -12.5588  -41.5696 N.am      4 UNK        -0.5000 
     55 C          -1.8952  -13.2575  -41.9478 C.2       3 UNK         0.5000 
     56 O          -2.0565  -14.4521  -41.6978 O.2       3 UNK        -0.5000 
     57 CA         -2.9493  -12.5061  -42.7876 C.3       3 UNK         0.1400 
     58 CB         -3.9378  -11.7662  -41.8741 C.3       3 UNK        -0.1800 
     59 N          -2.3856  -11.5610  -43.7613 N.am      3 UNK        -0.5000 
     60 C          -1.5117  -11.8896  -44.7221 C.2       2 UNK         0.5000 
     61 O          -1.0398  -13.0202  -44.8416 O.2       2 UNK        -0.5000 
     62 CA         -1.0509  -10.7647  -45.6698 C.3       2 UNK         0.1400 
     63 CB         -0.1145   -9.7937  -44.9323 C.3       2 UNK        -0.1800 
     64 N          -0.3363  -11.2979  -46.8315 N.am      2 UNK        -0.5000 
     65 C          -0.8903  -12.0079  -47.8228 C.2       1 UNK         0.5000 
     66 O          -2.1069  -12.1439  -47.9705 O.2       1 UNK        -0.5000 
     67 C          -1.1072  -22.6697  -48.5620 C.2       11 UNK         0.5000 
     68 O          -2.0224  -22.8598  -49.3601 O.2       11 UNK        -0.5000 
     69 N          -1.1232  -21.7126  -47.6238 N.am      12 UNK        -0.5000 
     70 CA         -2.2523  -20.8184  -47.3683 C.3       12 UNK         0.1400 
     71 CB         -1.7464  -19.3725  -47.3031 C.3       12 UNK        -0.1800 
     72 C          -3.0090  -21.2033  -46.0868 C.2       12 UNK         0.5000 
     73 O          -4.1987  -20.9031  -45.9795 O.2       12 UNK        -0.5000 
     74 N          -2.3309  -21.8808  -45.1490 N.am      13 UNK        -0.5000 
     75 CA         -2.9451  -22.4973  -43.9745 C.3       13 UNK         0.1400 
     76 CB         -1.8490  -22.9380  -42.9935 C.3       13 UNK        -0.1800 
     77 C          -3.8490  -23.6824  -44.3677 C.2       13 UNK         0.5000 
     78 O          -4.9376  -23.8307  -43.8102 O.2       13 UNK        -0.5000 
     79 N          -3.3968  -24.4811  -45.3445 N.am      14 UNK        -0.5000 
     80 CA         -4.1953  -25.4978  -46.0237 C.3       14 UNK         0.1400 
     81 CB         -3.2490  -26.4845  -46.7262 C.3       14 UNK        -0.1800 
     82 C          -5.1475  -24.8569  -47.0507 C.2       14 UNK         0.5000 
     83 O          -4.8327  -23.8103  -47.6183 O.2       14 UNK        -0.5000 
     84 N          -6.2767  -25.5278  -47.3090 N.am      15 UNK        -0.5000 
     85 CA         -7.2686  -25.1236  -48.3122 C.3       15 UNK         0.1400 
     86 CB         -8.6205  -25.7582  -47.9490 C.3       15 UNK        -0.1800 
     87 C          -6.8683  -25.4962  -49.7560 C.2       15 UNK         0.5000 
     88 O          -7.5181  -25.0400  -50.6987 O.2       15 UNK        -0.5000 
     89 N          -5.8300  -26.3328  -49.9036 N.am      16 UNK        -0.5000 
     90 CA         -5.2763  -26.8139  -51.1699 C.3       16 UNK         0.1400 
     91 CB         -4.0976  -27.7518  -50.8680 C.3       16 UNK        -0.1800 
     92 C          -4.8262  -25.6707  -52.0981 C.2       16 UNK         0.5000 
     93 O          -4.2984  -24.6652  -51.6189 O.2       16 UNK        -0.5000 
     94 N          -5.0593  -25.8463  -53.4074 N.am      17 UNK        -0.5000 
     95 CA         -4.7700  -24.8897  -54.4860 C.3       17 UNK         0.1400 
     96 CB         -3.2505  -24.7958  -54.7245 C.3       17 UNK        -0.1800 
     97 C          -5.4286  -23.5107  -54.2560 C.2       17 UNK         0.5000 
     98 O          -4.8065  -22.4730  -54.4912 O.2       17 UNK        -0.5000 
     99 N          -6.6653  -23.5397  -53.7341 N.am      18 UNK        -0.5000 
    100 CA        -7.4932  -22.3967  -53.3294 C.3       18 UNK         0.1400 
    101 CB        -7.9297  -21.5846  -54.5669 C.3       18 UNK        -0.1800 
    102 C         -6.8490  -21.5102  -52.2389 C.2       18 UNK         0.5000 
    103 O         -7.2019  -20.3352  -52.1272 O.2       18 UNK        -0.5000 
    104 N         -5.9103  -22.0827  -51.4677 N.am      19 UNK        -0.5000 
    105 CA        -5.0789  -21.4371  -50.4475 C.3       19 UNK         0.1400 
    106 CB        -5.9466  -20.9339  -49.2741 C.3       19 UNK        -0.1800 
    107 C         -4.1470  -20.3423  -51.0196 C.2       19 UNK         0.5000 
    108 O         -3.7688  -19.4216  -50.2939 O.2       19 UNK        -0.5000 
    109 N         -3.7994  -20.4428  -52.3103 N.am      20 UNK        -0.5000 
    110 CA        -3.0251  -19.4477  -53.0479 C.3       20 UNK         0.1400 
    111 CB        -3.9623  -18.3391  -53.5649 C.3       20 UNK        -0.1800 
    112 C         -2.2373  -20.1449  -54.1665 C.2       20 UNK         0.5000 
    113 O         -2.3873  -19.8087  -55.3430 O.2       20 UNK        -0.5000 
    114 N         -1.4131  -21.1250  -53.7706 N.am      21 UNK        -0.5000 
    115 CA        -0.6601  -22.0262  -54.6510 C.3       21 UNK         0.1400 
    116 CB         0.1097  -23.0399  -53.7897 C.3       21 UNK        -0.1800 
    117 C          0.2914  -21.3509  -55.6608 C.2       21 UNK         0.5000 
    118 O          0.6185  -21.9728  -56.6726 O.2       21 UNK        -0.5000 
    119 N          0.7099  -20.1069  -55.3909 N.am      22 UNK        -0.5000 
    120 CA         1.4807  -19.2788  -56.3323 C.3       22 UNK         0.1400 
    121 C          0.6403  -18.6437  -57.4826 C.2       22 UNK         0.5000 
    122 N         -0.6863  -18.7163  -57.4674 N.am      22 UNK        -0.7600 
    123 O          1.2073  -18.0882  -58.4199 O.2       22 UNK        -0.5000 
    124 C124        2.3741  -18.2424  -55.6036 C.3       23 UNK        -0.0398 
    125 S125        1.4625  -16.9381  -54.7016 S.3       23 UNK        -0.2404 
    126 C126        2.5967  -16.6032  -53.3111 C.3       23 UNK        -0.0205 
    127 H127        2.1395   -9.6866  -51.5452 H         1 UNK         0.0600 
    128 H128        0.8021   -8.7304  -50.8980 H         1 UNK         0.0600 
    129 H129        0.4732  -10.1195  -51.9377 H         1 UNK         0.0600 
    130 H130       -0.2700  -11.8659  -50.7705 H         1 UNK         0.3000 
    131 H131        1.0520  -12.7701  -48.3399 H         1 UNK         0.0600 
    132 H132       -1.3917  -14.0098  -49.6921 H         1 UNK         0.0800 
    133 H133        0.2314  -14.3081  -50.2239 H         1 UNK         0.0800 
    134 H134        2.1981  -15.1353  -48.4985 H         1 UNK         0.0800 
    135 H135        1.8243  -16.5415  -47.5378 H         1 UNK         0.0800 
    136 H136        2.3463  -15.3253  -50.9224 H         1 UNK         0.1150 
    137 H137        1.7548  -19.1537  -52.7593 H         1 UNK         0.1150 
    138 H138        0.7770  -18.5836  -48.6287 H         1 UNK         0.1150 
    139 H139       -0.2643  -20.4569  -50.1126 H         1 UNK         0.0800 
    140 H140        0.5344  -20.8409  -51.6154 H         1 UNK         0.0800 
    141 H141        0.4119  -23.1683  -50.8038 H         1 UNK         0.0800 
    142 H142        1.7819  -23.9146  -50.0526 H         1 UNK         0.0800 
    143 H143       -0.2042  -24.5686  -48.8442 H         1 UNK         0.0600 
    144 H144        1.8530  -23.1436  -47.4796 H         1 UNK         0.3000 
    145 H145        0.9446  -24.0114  -44.1781 H         1 UNK         0.0600 
    146 H146        3.1462  -25.1343  -44.1610 H         1 UNK         0.0600 
    147 H147        1.9794  -26.1274  -45.0186 H         1 UNK         0.0600 
    148 H148        3.1663  -25.1957  -45.9241 H         1 UNK         0.0600 
    149 H149        3.2994  -22.8242  -45.0522 H         1 UNK         0.3000 
    150 H150        3.7513  -20.7039  -45.1363 H         1 UNK         0.0600 
    151 H151        2.6237  -19.9958  -47.2524 H         1 UNK         0.0600 
    152 H152        3.2323  -18.6148  -46.3538 H         1 UNK         0.0600 
    153 H153        1.5126  -18.9889  -46.3302 H         1 UNK         0.0600 
    154 H154        2.1388  -18.6145  -44.0067 H         1 UNK         0.3000 
    155 H155        2.8961  -19.4232  -40.5812 H         1 UNK         0.0600 
    156 H156        4.8220  -18.1754  -41.5561 H         1 UNK         0.0600 
    157 H157        3.7108  -17.0932  -40.7297 H         1 UNK         0.0600 
    158 H158        3.7178  -17.1724  -42.4895 H         1 UNK         0.0600 
    159 H159        1.3525  -17.3386  -41.8365 H         1 UNK         0.3000 
    160 H160       -1.8263  -18.8578  -41.2506 H         1 UNK         0.0600 
    161 H161       -0.4079  -16.5345  -39.8399 H         1 UNK         0.0600 
    162 H162       -1.1586  -17.9106  -39.0399 H         1 UNK         0.0600 
    163 H163       -2.1501  -16.7759  -39.9444 H         1 UNK         0.0600 
    164 H164       -0.9756  -16.2808  -42.2279 H         1 UNK         0.3000 
    165 H165       -0.7949  -17.2172  -45.6599 H         1 UNK         0.0600 
    166 H166       -3.2373  -16.8311  -45.3148 H         1 UNK         0.0600 
    167 H167       -2.8847  -15.5189  -44.1970 H         1 UNK         0.0600 
    168 H168       -2.4465  -15.3733  -45.8978 H         1 UNK         0.0600 
    169 H169       -0.5220  -14.6888  -44.4594 H         1 UNK         0.3000 
    170 H170        2.9406  -14.9266  -43.5822 H         1 UNK         0.0600 
    171 H171        2.8755  -14.3469  -45.9826 H         1 UNK         0.0600 
    172 H172        1.4033  -13.4164  -45.7632 H         1 UNK         0.0600 
    173 H173        2.9085  -12.8782  -45.0185 H         1 UNK         0.0600 
    174 H174        0.8842  -12.9063  -43.3473 H         1 UNK         0.3000 
    175 H175       -0.0528  -13.6955  -39.9997 H         1 UNK         0.0600 
    176 H176        1.6089  -11.3797  -41.1330 H         1 UNK         0.0600 
    177 H177        0.6656  -11.3506  -39.6429 H         1 UNK         0.0600 
    178 H178        2.0695  -12.3977  -39.7736 H         1 UNK         0.0600 
    179 H179       -0.7617  -11.5817  -41.8165 H         1 UNK         0.3000 
    180 H180       -3.5077  -13.2562  -43.3510 H         1 UNK         0.0600 
    181 H181       -3.4487  -10.9691  -41.3128 H         1 UNK         0.0600 
    182 H182       -4.3877  -12.4485  -41.1515 H         1 UNK         0.0600 
    183 H183       -4.7509  -11.3228  -42.4490 H         1 UNK         0.0600 
    184 H184       -2.7207  -10.6098  -43.7085 H         1 UNK         0.3000 
    185 H185       -1.9314  -10.2212  -46.0182 H         1 UNK         0.0600 
    186 H186        0.7732  -10.3010  -44.5519 H         1 UNK         0.0600 
    187 H187        0.2165   -8.9904  -45.5909 H         1 UNK         0.0600 
    188 H188       -0.6152   -9.3266  -44.0835 H         1 UNK         0.0600 
    189 H189        0.6678  -11.1893  -46.8266 H         1 UNK         0.3000 
    190 H190       -0.3355  -21.6252  -46.9921 H         1 UNK         0.3000 
    191 H191       -2.9738  -20.8794  -48.1829 H         1 UNK         0.0600 
    192 H192       -0.8933  -19.2830  -46.6318 H         1 UNK         0.0600 
    193 H193       -2.5253  -18.6961  -46.9495 H         1 UNK         0.0600 
    194 H194       -1.4458  -19.0230  -48.2899 H         1 UNK         0.0600 
    195 H195       -1.3253  -21.9677  -45.2411 H         1 UNK         0.3000 
    196 H196       -3.5624  -21.7441  -43.4805 H         1 UNK         0.0600 
    197 H197       -2.2857  -23.3119  -42.0668 H         1 UNK         0.0600 
    198 H198       -1.1926  -22.1062  -42.7339 H         1 UNK         0.0600 
    199 H199       -1.2350  -23.7355  -43.4104 H         1 UNK         0.0600 
    200 H200       -2.4789  -24.3006  -45.7368 H         1 UNK         0.3000 
    201 H201       -4.7823  -26.0418  -45.2807 H         1 UNK         0.0600 
    202 H202       -2.5545  -26.9367  -46.0179 H         1 UNK         0.0600 
    203 H203       -2.6599  -25.9919  -47.5016 H         1 UNK         0.0600 
    204 H204       -3.8041  -27.2951  -47.1995 H         1 UNK         0.0600 
    205 H205       -6.4700  -26.3825  -46.8063 H         1 UNK         0.3000 
    206 H206       -7.3843  -24.0383  -48.2777 H         1 UNK         0.0600 
    207 H207       -8.9446  -25.4536  -46.9537 H         1 UNK         0.0600 
    208 H208       -9.3983  -25.4511  -48.6495 H         1 UNK         0.0600 
    209 H209       -8.5725  -26.8477  -47.9691 H         1 UNK         0.0600 
    210 H210       -5.3506  -26.6283  -49.0680 H         1 UNK         0.3000 
    211 H211       -6.0591  -27.3860  -51.6718 H         1 UNK         0.0600 
    212 H212       -3.6692  -28.1515  -51.7881 H         1 UNK         0.0600 
    213 H213       -4.4124  -28.6014  -50.2617 H         1 UNK         0.0600 
    214 H214       -3.3003  -27.2337  -50.3329 H         1 UNK         0.0600 
    215 H215       -5.5020  -26.7058  -53.7026 H         1 UNK         0.3000 
    216 H216       -5.2221  -25.2959  -55.3918 H         1 UNK         0.0600 
    217 H217       -3.0358  -24.2105  -55.6187 H         1 UNK         0.0600 
    218 H218       -2.8104  -25.7821  -54.8707 H         1 UNK         0.0600 
    219 H219       -2.7413  -24.3220  -53.8852 H         1 UNK         0.0600 
    220 H220       -7.0612  -24.4468  -53.5285 H         1 UNK         0.3000 
    221 H221       -8.3912  -22.8198  -52.8770 H         1 UNK         0.0600 
    222 H222       -8.6682  -20.8279  -54.3000 H         1 UNK         0.0600 
    223 H223       -8.3854  -22.2272  -55.3202 H         1 UNK         0.0600 
    224 H224       -7.0872  -21.0695  -55.0296 H         1 UNK         0.0600 
    225 H225       -5.6698  -23.0512  -51.6503 H         1 UNK         0.3000 
    226 H226       -4.4297  -22.2210  -50.0585 H         1 UNK         0.0600 
    227 H227       -6.5815  -21.7296  -48.8854 H         1 UNK         0.0600 
    228 H228       -5.3268  -20.5885  -48.4476 H         1 UNK         0.0600 
    229 H229       -6.5869  -20.1016  -49.5658 H         1 UNK         0.0600 
    230 H230       -4.1462  -21.2234  -52.8593 H         1 UNK         0.3000 
    231 H231       -2.2860  -18.9924  -52.3850 H         1 UNK         0.0600 
    232 H232       -3.4076  -17.5859  -54.1257 H         1 UNK         0.0600 
    233 H233       -4.4612  -17.8276  -52.7417 H         1 UNK         0.0600 
    234 H234       -4.7329  -18.7431  -54.2228 H         1 UNK         0.0600 
    235 H235       -1.3898  -21.3456  -52.7865 H         1 UNK         0.3000 
    236 H236       -1.3972  -22.5715  -55.2411 H         1 UNK         0.0600 
    237 H237       -0.5512  -23.5592  -53.0959 H         1 UNK         0.0600 
    238 H238        0.5815  -23.8000  -54.4139 H         1 UNK         0.0600 
    239 H239        0.9000  -22.5597  -53.2125 H         1 UNK         0.0600 
    240 H240        0.3679  -19.6439  -54.5630 H         1 UNK         0.3000 
    241 H241        2.1752  -19.9486  -56.8433 H         1 UNK         0.0600 
    242 H242       -1.2101  -18.3056  -58.2235 H         1 UNK         0.3800 
    243 H243       -1.1846  -19.1599  -56.7006 H         1 UNK         0.3800 
    244 H244        3.0270  -18.7722  -54.9090 H         1 UNK         0.0800 
    245 H245        3.0421  -17.7555  -56.3162 H         1 UNK         0.0800 
    246 H246        3.5933  -16.9946  -53.5177 H         1 UNK         0.0800 
    247 H247        2.7109  -15.5210  -53.2329 H         1 UNK         0.0800 
@<TRIPOS>BOND
     1    1    2 1    
     2    1  127 1    
     3    1  128 1    
     4    1  129 1    
     5    2    3 2    
     6    2    4 am   BACKBONE|DICT|INTERRES
     7    4    5 1    
     8    4  130 1    
     9    5    6 1    
    10    5   65 1    
    11    5  131 1    
    12    6    7 1    
    13    6  132 1    
    14    6  133 1    
    15    7    8 1    
    16    8    9 1    
    17    8  134 1    
    18    8  135 1    
    19    9   10 ar   
    20    9   14 ar   
    21   10   11 ar   
    22   10  136 1    
    23   11   12 ar   
    24   11  126 1    
    25   12   13 ar   
    26   12  137 1    
    27   13   14 ar   
    28   13   15 1    
    29   14  138 1    
    30   15   16 1    
    31   15  139 1    
    32   15  140 1    
    33   16   17 1    
    34   17   18 1    
    35   17  141 1    
    36   17  142 1    
    37   18   19 1    
    38   18   67 1    
    39   18  143 1    
    40   19   20 am   BACKBONE|DICT|INTERRES
    41   19  144 1    
    42   20   21 2    
    43   20   22 1    
    44   22   23 1    
    45   22   24 1    
    46   22  145 1    
    47   23  146 1    
    48   23  147 1    
    49   23  148 1    
    50   24   25 am   BACKBONE|DICT|INTERRES
    51   24  149 1    
    52   25   26 2    
    53   25   27 1    
    54   27   28 1    
    55   27   29 1    
    56   27  150 1    
    57   28  151 1    
    58   28  152 1    
    59   28  153 1    
    60   29   30 am   BACKBONE|DICT|INTERRES
    61   29  154 1    
    62   30   31 2    
    63   30   32 1    
    64   32   33 1    
    65   32   34 1    
    66   32  155 1    
    67   33  156 1    
    68   33  157 1    
    69   33  158 1    
    70   34   35 am   BACKBONE|DICT|INTERRES
    71   34  159 1    
    72   35   36 2    
    73   35   37 1    
    74   37   38 1    
    75   37   39 1    
    76   37  160 1    
    77   38  161 1    
    78   38  162 1    
    79   38  163 1    
    80   39   40 am   BACKBONE|DICT|INTERRES
    81   39  164 1    
    82   40   41 2    
    83   40   42 1    
    84   42   43 1    
    85   42   44 1    
    86   42  165 1    
    87   43  166 1    
    88   43  167 1    
    89   43  168 1    
    90   44   45 am   BACKBONE|DICT|INTERRES
    91   44  169 1    
    92   45   46 2    
    93   45   47 1    
    94   47   48 1    
    95   47   49 1    
    96   47  170 1    
    97   48  171 1    
    98   48  172 1    
    99   48  173 1    
   100   49   50 am   BACKBONE|DICT|INTERRES
   101   49  174 1    
   102   50   51 2    
   103   50   52 1    
   104   52   53 1    
   105   52   54 1    
   106   52  175 1    
   107   53  176 1    
   108   53  177 1    
   109   53  178 1    
   110   54   55 am   BACKBONE|DICT|INTERRES
   111   54  179 1    
   112   55   56 2    
   113   55   57 1    
   114   57   58 1    
   115   57   59 1    
   116   57  180 1    
   117   58  181 1    
   118   58  182 1    
   119   58  183 1    
   120   59   60 am   BACKBONE|DICT|INTERRES
   121   59  184 1    
   122   60   61 2    
   123   60   62 1    
   124   62   63 1    
   125   62   64 1    
   126   62  185 1    
   127   63  186 1    
   128   63  187 1    
   129   63  188 1    
   130   64   65 am   BACKBONE|DICT|INTERRES
   131   64  189 1    
   132   65   66 2    
   133   67   68 2    
   134   67   69 am   BACKBONE|DICT|INTERRES
   135   69   70 1    
   136   69  190 1    
   137   70   71 1    
   138   70   72 1    
   139   70  191 1    
   140   71  192 1    
   141   71  193 1    
   142   71  194 1    
   143   72   73 2    
   144   72   74 am   BACKBONE|DICT|INTERRES
   145   74   75 1    
   146   74  195 1    
   147   75   76 1    
   148   75   77 1    
   149   75  196 1    
   150   76  197 1    
   151   76  198 1    
   152   76  199 1    
   153   77   78 2    
   154   77   79 am   BACKBONE|DICT|INTERRES
   155   79   80 1    
   156   79  200 1    
   157   80   81 1    
   158   80   82 1    
   159   80  201 1    
   160   81  202 1    
   161   81  203 1    
   162   81  204 1    
   163   82   83 2    
   164   82   84 am   BACKBONE|DICT|INTERRES
   165   84   85 1    
   166   84  205 1    
   167   85   86 1    
   168   85   87 1    
   169   85  206 1    
   170   86  207 1    
   171   86  208 1    
   172   86  209 1    
   173   87   88 2    
   174   87   89 am   BACKBONE|DICT|INTERRES
   175   89   90 1    
   176   89  210 1    
   177   90   91 1    
   178   90   92 1    
   179   90  211 1    
   180   91  212 1    
   181   91  213 1    
   182   91  214 1    
   183   92   93 2    
   184   92   94 am   BACKBONE|DICT|INTERRES
   185   94   95 1    
   186   94  215 1    
   187   95   96 1    
   188   95   97 1    
   189   95  216 1    
   190   96  217 1    
   191   96  218 1    
   192   96  219 1    
   193   97   98 2    
   194   97   99 am   BACKBONE|DICT|INTERRES
   195   99  100 1    
   196   99  220 1    
   197  100  101 1    
   198  100  102 1    
   199  100  221 1    
   200  101  222 1    
   201  101  223 1    
   202  101  224 1    
   203  102  103 2    
   204  102  104 am   BACKBONE|DICT|INTERRES
   205  104  105 1    
   206  104  225 1    
   207  105  106 1    
   208  105  107 1    
   209  105  226 1    
   210  106  227 1    
   211  106  228 1    
   212  106  229 1    
   213  107  108 2    
   214  107  109 am   BACKBONE|DICT|INTERRES
   215  109  110 1    
   216  109  230 1    
   217  110  111 1    
   218  110  112 1    
   219  110  231 1    
   220  111  232 1    
   221  111  233 1    
   222  111  234 1    
   223  112  113 2    
   224  112  114 am   BACKBONE|DICT|INTERRES
   225  114  115 1    
   226  114  235 1    
   227  115  116 1    
   228  115  117 1    
   229  115  236 1    
   230  116  237 1    
   231  116  238 1    
   232  116  239 1    
   233  117  118 2    
   234  117  119 am   BACKBONE|DICT|INTERRES
   235  119  120 1    
   236  119  240 1    
   237  120  121 1    
   238  120  124 1    
   239  120  241 1    
   240  121  122 am   BACKBONE|DICT|INTERRES
   241  121  123 2    
   242  122  242 1    
   243  122  243 1    
   244  124  125 1    
   245  124  244 1    
   246  124  245 1    
   247  125  126 1    
   248  126  246 1    
   249  126  247 1    
@<TRIPOS>SUBSTRUCTURE
     1 UNK         1 GROUP             0       ****    0 ROOT    
