@<TRIPOS>MOLECULE
3R540
247   249    1
SMALL
USER_CHARGES


@<TRIPOS>ATOM
      1 CA         -0.1362  -12.2248  -50.3659 C.3       0 UNK        -0.1800 
      2 C           0.4743  -13.1214  -49.2988 C.2       0 UNK         0.5000 
      3 O           1.6796  -13.0581  -49.0570 O.2       0 UNK        -0.5000 
      4 N          -0.3558  -13.9476  -48.6478 N.am      1 UNK        -0.5000 
      5 CA          0.0388  -14.9114  -47.6118 C.3       1 UNK         0.1400 
      6 C6         -1.1163  -15.8772  -47.2549 C.3       23 UNK        -0.0398 
      7 S7         -2.5656  -15.0950  -46.4474 S.3       23 UNK        -0.2404 
      8 C8         -3.6418  -14.5866  -47.8305 C.3       23 UNK        -0.0205 
      9 C9         -3.8457  -15.6780  -48.8707 C.ar      23 UNK        -0.0193 
     10 C10        -3.4415  -15.4670  -50.1934 C.ar      23 UNK        -0.1150 
     11 C11        -3.6108  -16.4660  -51.1547 C.ar      23 UNK        -0.0193 
     12 C12        -4.1933  -17.6796  -50.7812 C.ar      23 UNK        -0.1150 
     13 C13        -4.5897  -17.9101  -49.4628 C.ar      23 UNK        -0.0193 
     14 C14        -4.4234  -16.9006  -48.5112 C.ar      23 UNK        -0.1150 
     15 C15        -5.1923  -19.2538  -49.0806 C.3       23 UNK        -0.0205 
     16 S16        -3.9412  -20.5782  -49.0679 S.3       23 UNK        -0.2404 
     17 C17        -3.0271  -20.1866  -47.5385 C.3       23 UNK        -0.0398 
     18 CA         -1.9746  -21.2585  -47.1568 C.3       11 UNK         0.1400 
     19 N          -1.0826  -20.7859  -46.0930 N.am      11 UNK        -0.5000 
     20 C           0.0379  -21.4091  -45.6963 C.2       10 UNK         0.5000 
     21 O           0.4811  -22.4262  -46.2274 O.2       10 UNK        -0.5000 
     22 CA          0.7496  -20.8270  -44.4615 C.3       10 UNK         0.1400 
     23 CB          1.6688  -19.6651  -44.8713 C.3       10 UNK        -0.1800 
     24 N          -0.2095  -20.3878  -43.4428 N.am      10 UNK        -0.5000 
     25 C          -0.9753  -21.2352  -42.7333 C.2       9 UNK         0.5000 
     26 O          -0.8681  -22.4578  -42.8066 O.2       9 UNK        -0.5000 
     27 CA         -2.0910  -20.6491  -41.8446 C.3       9 UNK         0.1400 
     28 CB         -1.7024  -20.6680  -40.3603 C.3       9 UNK        -0.1800 
     29 N          -2.4992  -19.3044  -42.2479 N.am      9 UNK        -0.5000 
     30 C          -3.1603  -19.0476  -43.3865 C.2       8 UNK         0.5000 
     31 O          -3.5316  -19.9307  -44.1616 O.2       8 UNK        -0.5000 
     32 CA         -3.3982  -17.5712  -43.7596 C.3       8 UNK         0.1400 
     33 CB         -4.8300  -17.1464  -43.4055 C.3       8 UNK        -0.1800 
     34 N          -2.4520  -16.6308  -43.1503 N.am      8 UNK        -0.5000 
     35 C          -1.1255  -16.6394  -43.3416 C.2       7 UNK         0.5000 
     36 O          -0.5536  -17.4793  -44.0372 O.2       7 UNK        -0.5000 
     37 CA         -0.2845  -15.5680  -42.6153 C.3       7 UNK         0.1400 
     38 CB         -1.1075  -14.5729  -41.7685 C.3       7 UNK        -0.1800 
     39 N           0.7786  -16.1712  -41.8077 N.am      7 UNK        -0.5000 
     40 C           0.6345  -17.0953  -40.8440 C.2       6 UNK         0.5000 
     41 O          -0.4589  -17.5294  -40.4798 O.2       6 UNK        -0.5000 
     42 CA          1.9149  -17.6425  -40.1763 C.3       6 UNK         0.1400 
     43 CB          2.2121  -19.0721  -40.6564 C.3       6 UNK        -0.1800 
     44 N           3.0989  -16.8223  -40.4290 N.am      6 UNK        -0.5000 
     45 C           3.3706  -15.6531  -39.8349 C.2       5 UNK         0.5000 
     46 O           2.6827  -15.1639  -38.9385 O.2       5 UNK        -0.5000 
     47 CA          4.6118  -14.8930  -40.3476 C.3       5 UNK         0.1400 
     48 CB          5.8208  -15.1637  -39.4391 C.3       5 UNK        -0.1800 
     49 N           4.9753  -15.2099  -41.7353 N.am      5 UNK        -0.5000 
     50 C           4.2048  -14.9554  -42.8009 C.2       4 UNK         0.5000 
     51 O           3.0742  -14.4695  -42.7225 O.2       4 UNK        -0.5000 
     52 CA          4.7630  -15.3646  -44.1722 C.3       4 UNK         0.1400 
     53 CB          4.1985  -16.7329  -44.5886 C.3       4 UNK        -0.1800 
     54 N           4.3765  -14.3635  -45.1611 N.am      4 UNK        -0.5000 
     55 C           5.0987  -13.2733  -45.4585 C.2       3 UNK         0.5000 
     56 O           6.2461  -13.0847  -45.0519 O.2       3 UNK        -0.5000 
     57 CA          4.4266  -12.1964  -46.3374 C.3       3 UNK         0.1400 
     58 CB          4.7881  -12.4050  -47.8154 C.3       3 UNK        -0.1800 
     59 N           2.9701  -12.1774  -46.1983 N.am      3 UNK        -0.5000 
     60 C           2.3165  -11.8486  -45.0732 C.2       2 UNK         0.5000 
     61 O           2.8685  -11.3409  -44.0963 O.2       2 UNK        -0.5000 
     62 CA          0.8024  -12.1471  -45.0083 C.3       2 UNK         0.1400 
     63 CB         -0.0096  -10.8429  -44.9863 C.3       2 UNK        -0.1800 
     64 N           0.2956  -12.9913  -46.0938 N.am      2 UNK        -0.5000 
     65 C           0.6561  -14.2565  -46.3567 C.2       1 UNK         0.5000 
     66 O           1.4777  -14.8834  -45.6904 O.2       1 UNK        -0.5000 
     67 C          -2.6204  -22.6073  -46.7726 C.2       11 UNK         0.5000 
     68 O          -2.6420  -23.5271  -47.5927 O.2       11 UNK        -0.5000 
     69 N          -3.0799  -22.7152  -45.5161 N.am      12 UNK        -0.5000 
     70 CA         -3.6420  -23.9389  -44.9429 C.3       12 UNK         0.1400 
     71 CB         -4.2361  -23.6413  -43.5586 C.3       12 UNK        -0.1800 
     72 C          -2.6178  -25.0870  -44.8678 C.2       12 UNK         0.5000 
     73 O          -2.9367  -26.2037  -45.2753 O.2       12 UNK        -0.5000 
     74 N          -1.3974  -24.7891  -44.3968 N.am      13 UNK        -0.5000 
     75 CA         -0.2775  -25.7327  -44.3152 C.3       13 UNK         0.1400 
     76 CB          0.8893  -25.0838  -43.5558 C.3       13 UNK        -0.1800 
     77 C           0.1910  -26.2393  -45.6920 C.2       13 UNK         0.5000 
     78 O           0.5429  -27.4122  -45.8213 O.2       13 UNK        -0.5000 
     79 N           0.1484  -25.3596  -46.7012 N.am      14 UNK        -0.5000 
     80 CA          0.4174  -25.6798  -48.1035 C.3       14 UNK         0.1400 
     81 CB          0.7350  -24.3768  -48.8562 C.3       14 UNK        -0.1800 
     82 C          -0.7405  -26.4244  -48.7991 C.2       14 UNK         0.5000 
     83 O          -0.5745  -26.8317  -49.9480 O.2       14 UNK        -0.5000 
     84 N          -1.9003  -26.5485  -48.1333 N.am      15 UNK        -0.5000 
     85 CA         -3.1617  -27.1032  -48.6419 C.3       15 UNK         0.1400 
     86 CB         -3.0373  -28.6252  -48.8593 C.3       15 UNK        -0.1800 
     87 C          -3.6795  -26.3544  -49.8903 C.2       15 UNK         0.5000 
     88 O          -4.2694  -26.9653  -50.7831 O.2       15 UNK        -0.5000 
     89 N          -3.4121  -25.0410  -49.9301 N.am      16 UNK        -0.5000 
     90 CA         -3.6699  -24.0995  -51.0200 C.3       16 UNK         0.1400 
     91 CB         -5.1837  -23.8695  -51.2026 C.3       16 UNK        -0.1800 
     92 C          -2.9527  -24.4352  -52.3485 C.2       16 UNK         0.5000 
     93 O          -3.3899  -23.9636  -53.3990 O.2       16 UNK        -0.5000 
     94 N          -1.8560  -25.2107  -52.3047 N.am      17 UNK        -0.5000 
     95 CA         -1.0267  -25.5390  -53.4696 C.3       17 UNK         0.1400 
     96 CB          0.0888  -26.5111  -53.0595 C.3       17 UNK        -0.1800 
     97 C          -0.4392  -24.2670  -54.1079 C.2       17 UNK         0.5000 
     98 O           0.2487  -23.5092  -53.4206 O.2       17 UNK        -0.5000 
     99 N          -0.7958  -24.0189  -55.3766 N.am      18 UNK        -0.5000 
    100 CA        -0.5579  -22.8111  -56.1859 C.3       18 UNK         0.1400 
    101 CB         0.9461  -22.5223  -56.3514 C.3       18 UNK        -0.1800 
    102 C         -1.3174  -21.5571  -55.6977 C.2       18 UNK         0.5000 
    103 O         -1.7922  -20.7760  -56.5231 O.2       18 UNK        -0.5000 
    104 N         -1.4550  -21.4014  -54.3755 N.am      19 UNK        -0.5000 
    105 CA        -2.1686  -20.3245  -53.6901 C.3       19 UNK         0.1400 
    106 CB        -1.9082  -20.4473  -52.1830 C.3       19 UNK        -0.1800 
    107 C         -3.6799  -20.2763  -53.9973 C.2       19 UNK         0.5000 
    108 O         -4.2780  -19.2080  -53.8907 O.2       19 UNK        -0.5000 
    109 N         -4.2655  -21.3953  -54.4488 N.am      20 UNK        -0.5000 
    110 CA        -5.6434  -21.5149  -54.9446 C.3       20 UNK         0.1400 
    111 CB        -5.9074  -22.9795  -55.3294 C.3       20 UNK        -0.1800 
    112 C         -6.0104  -20.5731  -56.1170 C.2       20 UNK         0.5000 
    113 O         -7.1937  -20.4388  -56.4305 O.2       20 UNK        -0.5000 
    114 N         -5.0102  -19.9219  -56.7298 N.am      21 UNK        -0.5000 
    115 CA        -5.1701  -18.8091  -57.6656 C.3       21 UNK         0.1400 
    116 CB        -3.7945  -18.4508  -58.2476 C.3       21 UNK        -0.1800 
    117 C         -5.8325  -17.5607  -57.0391 C.2       21 UNK         0.5000 
    118 O         -6.4744  -16.8021  -57.7674 O.2       21 UNK        -0.5000 
    119 N         -5.6866  -17.3674  -55.7188 N.am      22 UNK        -0.5000 
    120 CA        -6.4294  -16.3605  -54.9449 C.3       22 UNK         0.1400 
    121 C         -7.9309  -16.7438  -54.8272 C.2       22 UNK         0.5000 
    122 N         -8.8410  -15.8511  -55.1926 N.am      22 UNK        -0.7600 
    123 O         -8.2770  -17.8276  -54.3636 O.2       22 UNK        -0.5000 
    124 C124       -5.8247  -16.1442  -53.5339 C.3       23 UNK        -0.0398 
    125 S125       -4.2587  -15.2060  -53.5650 S.3       23 UNK        -0.2404 
    126 C126       -3.1315  -16.2492  -52.5847 C.3       23 UNK        -0.0205 
    127 H127       -1.2103  -12.3839  -50.4648 H         1 UNK         0.0600 
    128 H128        0.3273  -12.4242  -51.3320 H         1 UNK         0.0600 
    129 H129        0.0315  -11.1773  -50.1158 H         1 UNK         0.0600 
    130 H130       -1.3359  -13.9486  -48.8843 H         1 UNK         0.3000 
    131 H131        0.8336  -15.5194  -48.0497 H         1 UNK         0.0600 
    132 H132       -1.4284  -16.4214  -48.1456 H         1 UNK         0.0800 
    133 H133       -0.7457  -16.6501  -46.5799 H         1 UNK         0.0800 
    134 H134       -3.2340  -13.6835  -48.2855 H         1 UNK         0.0800 
    135 H135       -4.6144  -14.3034  -47.4259 H         1 UNK         0.0800 
    136 H136       -2.9922  -14.5274  -50.4820 H         1 UNK         0.1150 
    137 H137       -4.3303  -18.4610  -51.5120 H         1 UNK         0.1150 
    138 H138       -4.7274  -17.0681  -47.4874 H         1 UNK         0.1150 
    139 H139       -5.6841  -19.2011  -48.1080 H         1 UNK         0.0800 
    140 H140       -5.9688  -19.5129  -49.8017 H         1 UNK         0.0800 
    141 H141       -3.7444  -20.0377  -46.7310 H         1 UNK         0.0800 
    142 H142       -2.5340  -19.2251  -47.6889 H         1 UNK         0.0800 
    143 H143       -1.3505  -21.4380  -48.0351 H         1 UNK         0.0600 
    144 H144       -1.3894  -19.9784  -45.5705 H         1 UNK         0.3000 
    145 H145        1.3717  -21.6116  -44.0258 H         1 UNK         0.0600 
    146 H146        2.1382  -19.1989  -44.0069 H         1 UNK         0.0600 
    147 H147        2.4685  -20.0183  -45.5232 H         1 UNK         0.0600 
    148 H148        1.1295  -18.8898  -45.4159 H         1 UNK         0.0600 
    149 H149       -0.3722  -19.3882  -43.3771 H         1 UNK         0.3000 
    150 H150       -2.9605  -21.2992  -41.9534 H         1 UNK         0.0600 
    151 H151       -1.4570  -21.6801  -40.0360 H         1 UNK         0.0600 
    152 H152       -2.5224  -20.3164  -39.7340 H         1 UNK         0.0600 
    153 H153       -0.8365  -20.0435  -40.1567 H         1 UNK         0.0600 
    154 H154       -2.1748  -18.5347  -41.6752 H         1 UNK         0.3000 
    155 H155       -3.2825  -17.5003  -44.8426 H         1 UNK         0.0600 
    156 H156       -5.5608  -17.8137  -43.8645 H         1 UNK         0.0600 
    157 H157       -5.0418  -16.1393  -43.7656 H         1 UNK         0.0600 
    158 H158       -4.9996  -17.1632  -42.3282 H         1 UNK         0.0600 
    159 H159       -2.8455  -15.9260  -42.5444 H         1 UNK         0.3000 
    160 H160        0.2162  -14.9971  -43.3954 H         1 UNK         0.0600 
    161 H161       -1.6444  -15.0665  -40.9576 H         1 UNK         0.0600 
    162 H162       -1.8355  -14.0399  -42.3815 H         1 UNK         0.0600 
    163 H163       -0.4585  -13.8199  -41.3211 H         1 UNK         0.0600 
    164 H164        1.7127  -15.8504  -42.0361 H         1 UNK         0.3000 
    165 H165        1.7339  -17.6742  -39.0999 H         1 UNK         0.0600 
    166 H166        3.0804  -19.4864  -40.1439 H         1 UNK         0.0600 
    167 H167        1.3763  -19.7412  -40.4589 H         1 UNK         0.0600 
    168 H168        2.4101  -19.1035  -41.7269 H         1 UNK         0.0600 
    169 H169        3.7302  -17.1476  -41.1457 H         1 UNK         0.3000 
    170 H170        4.3806  -13.8268  -40.3002 H         1 UNK         0.0600 
    171 H171        5.5947  -14.9125  -38.4019 H         1 UNK         0.0600 
    172 H172        6.1170  -16.2131  -39.4654 H         1 UNK         0.0600 
    173 H173        6.6808  -14.5633  -39.7364 H         1 UNK         0.0600 
    174 H174        5.8862  -15.6236  -41.8754 H         1 UNK         0.3000 
    175 H175        5.8512  -15.4389  -44.1181 H         1 UNK         0.0600 
    176 H176        3.1077  -16.7335  -44.6082 H         1 UNK         0.0600 
    177 H177        4.5495  -17.0191  -45.5801 H         1 UNK         0.0600 
    178 H178        4.5125  -17.5133  -43.8946 H         1 UNK         0.0600 
    179 H179        3.4088  -14.4102  -45.4659 H         1 UNK         0.3000 
    180 H180        4.8106  -11.2234  -46.0240 H         1 UNK         0.0600 
    181 H181        4.4210  -13.3628  -48.1867 H         1 UNK         0.0600 
    182 H182        5.8691  -12.3881  -47.9600 H         1 UNK         0.0600 
    183 H183        4.3635  -11.6193  -48.4406 H         1 UNK         0.0600 
    184 H184        2.4404  -12.5574  -46.9733 H         1 UNK         0.3000 
    185 H185        0.6261  -12.6754  -44.0695 H         1 UNK         0.0600 
    186 H186        0.3055  -10.1978  -44.1650 H         1 UNK         0.0600 
    187 H187        0.1122  -10.2792  -45.9120 H         1 UNK         0.0600 
    188 H188       -1.0728  -11.0418  -44.8498 H         1 UNK         0.0600 
    189 H189       -0.3743  -12.5615  -46.7145 H         1 UNK         0.3000 
    190 H190       -3.0523  -21.8977  -44.9185 H         1 UNK         0.3000 
    191 H191       -4.4559  -24.2605  -45.5963 H         1 UNK         0.0600 
    192 H192       -4.9401  -22.8097  -43.5975 H         1 UNK         0.0600 
    193 H193       -4.7761  -24.5083  -43.1762 H         1 UNK         0.0600 
    194 H194       -3.4631  -23.3962  -42.8313 H         1 UNK         0.0600 
    195 H195       -1.2257  -23.8581  -44.0259 H         1 UNK         0.3000 
    196 H196       -0.6151  -26.5991  -43.7429 H         1 UNK         0.0600 
    197 H197        1.7340  -25.7689  -43.4750 H         1 UNK         0.0600 
    198 H198        0.5960  -24.8098  -42.5423 H         1 UNK         0.0600 
    199 H199        1.2429  -24.1825  -44.0577 H         1 UNK         0.0600 
    200 H200       -0.0894  -24.3942  -46.4980 H         1 UNK         0.3000 
    201 H201        1.2965  -26.3254  -48.1530 H         1 UNK         0.0600 
    202 H202        1.5907  -23.8655  -48.4150 H         1 UNK         0.0600 
    203 H203       -0.1104  -23.6880  -48.8406 H         1 UNK         0.0600 
    204 H204        0.9790  -24.5723  -49.9014 H         1 UNK         0.0600 
    205 H205       -1.9496  -26.1705  -47.1951 H         1 UNK         0.3000 
    206 H206       -3.9045  -26.9393  -47.8602 H         1 UNK         0.0600 
    207 H207       -2.6738  -29.1221  -47.9598 H         1 UNK         0.0600 
    208 H208       -4.0044  -29.0658  -49.1040 H         1 UNK         0.0600 
    209 H209       -2.3536  -28.8639  -49.6744 H         1 UNK         0.0600 
    210 H210       -2.9652  -24.6315  -49.1122 H         1 UNK         0.3000 
    211 H211       -3.2404  -23.1570  -50.6827 H         1 UNK         0.0600 
    212 H212       -5.3745  -23.0473  -51.8936 H         1 UNK         0.0600 
    213 H213       -5.6585  -23.6093  -50.2566 H         1 UNK         0.0600 
    214 H214       -5.6821  -24.7541  -51.5995 H         1 UNK         0.0600 
    215 H215       -1.5471  -25.5832  -51.4147 H         1 UNK         0.3000 
    216 H216       -1.6642  -26.0435  -54.1985 H         1 UNK         0.0600 
    217 H217        0.7108  -26.7759  -53.9154 H         1 UNK         0.0600 
    218 H218       -0.3234  -27.4371  -52.6584 H         1 UNK         0.0600 
    219 H219        0.7413  -26.0775  -52.3004 H         1 UNK         0.0600 
    220 H220       -1.4019  -24.6956  -55.8196 H         1 UNK         0.3000 
    221 H221       -0.9541  -23.0419  -57.1760 H         1 UNK         0.0600 
    222 H222        1.4150  -22.2337  -55.4105 H         1 UNK         0.0600 
    223 H223        1.4751  -23.3936  -56.7374 H         1 UNK         0.0600 
    224 H224        1.1073  -21.7055  -57.0559 H         1 UNK         0.0600 
    225 H225       -0.9938  -22.0885  -53.7875 H         1 UNK         0.3000 
    226 H226       -1.7395  -19.3812  -54.0334 H         1 UNK         0.0600 
    227 H227       -0.8404  -20.4796  -51.9661 H         1 UNK         0.0600 
    228 H228       -2.3172  -19.5958  -51.6418 H         1 UNK         0.0600 
    229 H229       -2.3602  -21.3480  -51.7720 H         1 UNK         0.0600 
    230 H230       -3.7274  -22.2554  -54.4255 H         1 UNK         0.3000 
    231 H231       -6.3068  -21.2552  -54.1174 H         1 UNK         0.0600 
    232 H232       -5.2064  -23.3260  -56.0895 H         1 UNK         0.0600 
    233 H233       -6.9152  -23.1098  -55.7260 H         1 UNK         0.0600 
    234 H234       -5.8188  -23.6368  -54.4647 H         1 UNK         0.0600 
    235 H235       -4.0635  -20.1233  -56.4352 H         1 UNK         0.3000 
    236 H236       -5.8114  -19.1483  -58.4815 H         1 UNK         0.0600 
    237 H237       -3.3485  -19.3033  -58.7604 H         1 UNK         0.0600 
    238 H238       -3.8747  -17.6401  -58.9729 H         1 UNK         0.0600 
    239 H239       -3.1015  -18.1295  -57.4688 H         1 UNK         0.0600 
    240 H240       -5.1642  -18.0468  -55.1733 H         1 UNK         0.3000 
    241 H241       -6.3645  -15.4131  -55.4842 H         1 UNK         0.0600 
    242 H242       -9.8184  -16.0836  -55.1054 H         1 UNK         0.3800 
    243 H243       -8.5790  -14.9554  -55.5754 H         1 UNK         0.3800 
    244 H244       -6.5096  -15.5746  -52.9029 H         1 UNK         0.0800 
    245 H245       -5.6904  -17.1035  -53.0352 H         1 UNK         0.0800 
    246 H246       -2.9824  -17.2003  -53.0924 H         1 UNK         0.0800 
    247 H247       -2.1510  -15.7716  -52.5622 H         1 UNK         0.0800 
@<TRIPOS>BOND
     1    1    2 1    
     2    1  127 1    
     3    1  128 1    
     4    1  129 1    
     5    2    3 2    
     6    2    4 am   BACKBONE|DICT|INTERRES
     7    4    5 1    
     8    4  130 1    
     9    5    6 1    
    10    5   65 1    
    11    5  131 1    
    12    6    7 1    
    13    6  132 1    
    14    6  133 1    
    15    7    8 1    
    16    8    9 1    
    17    8  134 1    
    18    8  135 1    
    19    9   10 ar   
    20    9   14 ar   
    21   10   11 ar   
    22   10  136 1    
    23   11   12 ar   
    24   11  126 1    
    25   12   13 ar   
    26   12  137 1    
    27   13   14 ar   
    28   13   15 1    
    29   14  138 1    
    30   15   16 1    
    31   15  139 1    
    32   15  140 1    
    33   16   17 1    
    34   17   18 1    
    35   17  141 1    
    36   17  142 1    
    37   18   19 1    
    38   18   67 1    
    39   18  143 1    
    40   19   20 am   BACKBONE|DICT|INTERRES
    41   19  144 1    
    42   20   21 2    
    43   20   22 1    
    44   22   23 1    
    45   22   24 1    
    46   22  145 1    
    47   23  146 1    
    48   23  147 1    
    49   23  148 1    
    50   24   25 am   BACKBONE|DICT|INTERRES
    51   24  149 1    
    52   25   26 2    
    53   25   27 1    
    54   27   28 1    
    55   27   29 1    
    56   27  150 1    
    57   28  151 1    
    58   28  152 1    
    59   28  153 1    
    60   29   30 am   BACKBONE|DICT|INTERRES
    61   29  154 1    
    62   30   31 2    
    63   30   32 1    
    64   32   33 1    
    65   32   34 1    
    66   32  155 1    
    67   33  156 1    
    68   33  157 1    
    69   33  158 1    
    70   34   35 am   BACKBONE|DICT|INTERRES
    71   34  159 1    
    72   35   36 2    
    73   35   37 1    
    74   37   38 1    
    75   37   39 1    
    76   37  160 1    
    77   38  161 1    
    78   38  162 1    
    79   38  163 1    
    80   39   40 am   BACKBONE|DICT|INTERRES
    81   39  164 1    
    82   40   41 2    
    83   40   42 1    
    84   42   43 1    
    85   42   44 1    
    86   42  165 1    
    87   43  166 1    
    88   43  167 1    
    89   43  168 1    
    90   44   45 am   BACKBONE|DICT|INTERRES
    91   44  169 1    
    92   45   46 2    
    93   45   47 1    
    94   47   48 1    
    95   47   49 1    
    96   47  170 1    
    97   48  171 1    
    98   48  172 1    
    99   48  173 1    
   100   49   50 am   BACKBONE|DICT|INTERRES
   101   49  174 1    
   102   50   51 2    
   103   50   52 1    
   104   52   53 1    
   105   52   54 1    
   106   52  175 1    
   107   53  176 1    
   108   53  177 1    
   109   53  178 1    
   110   54   55 am   BACKBONE|DICT|INTERRES
   111   54  179 1    
   112   55   56 2    
   113   55   57 1    
   114   57   58 1    
   115   57   59 1    
   116   57  180 1    
   117   58  181 1    
   118   58  182 1    
   119   58  183 1    
   120   59   60 am   BACKBONE|DICT|INTERRES
   121   59  184 1    
   122   60   61 2    
   123   60   62 1    
   124   62   63 1    
   125   62   64 1    
   126   62  185 1    
   127   63  186 1    
   128   63  187 1    
   129   63  188 1    
   130   64   65 am   BACKBONE|DICT|INTERRES
   131   64  189 1    
   132   65   66 2    
   133   67   68 2    
   134   67   69 am   BACKBONE|DICT|INTERRES
   135   69   70 1    
   136   69  190 1    
   137   70   71 1    
   138   70   72 1    
   139   70  191 1    
   140   71  192 1    
   141   71  193 1    
   142   71  194 1    
   143   72   73 2    
   144   72   74 am   BACKBONE|DICT|INTERRES
   145   74   75 1    
   146   74  195 1    
   147   75   76 1    
   148   75   77 1    
   149   75  196 1    
   150   76  197 1    
   151   76  198 1    
   152   76  199 1    
   153   77   78 2    
   154   77   79 am   BACKBONE|DICT|INTERRES
   155   79   80 1    
   156   79  200 1    
   157   80   81 1    
   158   80   82 1    
   159   80  201 1    
   160   81  202 1    
   161   81  203 1    
   162   81  204 1    
   163   82   83 2    
   164   82   84 am   BACKBONE|DICT|INTERRES
   165   84   85 1    
   166   84  205 1    
   167   85   86 1    
   168   85   87 1    
   169   85  206 1    
   170   86  207 1    
   171   86  208 1    
   172   86  209 1    
   173   87   88 2    
   174   87   89 am   BACKBONE|DICT|INTERRES
   175   89   90 1    
   176   89  210 1    
   177   90   91 1    
   178   90   92 1    
   179   90  211 1    
   180   91  212 1    
   181   91  213 1    
   182   91  214 1    
   183   92   93 2    
   184   92   94 am   BACKBONE|DICT|INTERRES
   185   94   95 1    
   186   94  215 1    
   187   95   96 1    
   188   95   97 1    
   189   95  216 1    
   190   96  217 1    
   191   96  218 1    
   192   96  219 1    
   193   97   98 2    
   194   97   99 am   BACKBONE|DICT|INTERRES
   195   99  100 1    
   196   99  220 1    
   197  100  101 1    
   198  100  102 1    
   199  100  221 1    
   200  101  222 1    
   201  101  223 1    
   202  101  224 1    
   203  102  103 2    
   204  102  104 am   BACKBONE|DICT|INTERRES
   205  104  105 1    
   206  104  225 1    
   207  105  106 1    
   208  105  107 1    
   209  105  226 1    
   210  106  227 1    
   211  106  228 1    
   212  106  229 1    
   213  107  108 2    
   214  107  109 am   BACKBONE|DICT|INTERRES
   215  109  110 1    
   216  109  230 1    
   217  110  111 1    
   218  110  112 1    
   219  110  231 1    
   220  111  232 1    
   221  111  233 1    
   222  111  234 1    
   223  112  113 2    
   224  112  114 am   BACKBONE|DICT|INTERRES
   225  114  115 1    
   226  114  235 1    
   227  115  116 1    
   228  115  117 1    
   229  115  236 1    
   230  116  237 1    
   231  116  238 1    
   232  116  239 1    
   233  117  118 2    
   234  117  119 am   BACKBONE|DICT|INTERRES
   235  119  120 1    
   236  119  240 1    
   237  120  121 1    
   238  120  124 1    
   239  120  241 1    
   240  121  122 am   BACKBONE|DICT|INTERRES
   241  121  123 2    
   242  122  242 1    
   243  122  243 1    
   244  124  125 1    
   245  124  244 1    
   246  124  245 1    
   247  125  126 1    
   248  126  246 1    
   249  126  247 1    
@<TRIPOS>SUBSTRUCTURE
     1 UNK         1 GROUP             0       ****    0 ROOT    
