@<TRIPOS>MOLECULE
3R540
247   249    1
SMALL
USER_CHARGES


@<TRIPOS>ATOM
      1 CA          5.1077  -15.8341  -48.3658 C.3       0 UNK        -0.1800 
      2 C           3.8708  -15.2893  -47.6675 C.2       0 UNK         0.5000 
      3 O           3.6452  -15.5888  -46.4966 O.2       0 UNK        -0.5000 
      4 N           3.0753  -14.4751  -48.3724 N.am      1 UNK        -0.5000 
      5 CA          1.8162  -13.8744  -47.9085 C.3       1 UNK         0.1400 
      6 C6          0.8905  -13.4888  -49.0928 C.3       23 UNK        -0.0398 
      7 S7          0.3264  -14.9509  -50.0269 S.3       23 UNK        -0.2404 
      8 C8          1.5101  -14.9851  -51.4114 C.3       23 UNK        -0.0205 
      9 C9          1.7894  -16.4132  -51.8509 C.ar      23 UNK        -0.0193 
     10 C10         1.3870  -16.8686  -53.1086 C.ar      23 UNK        -0.1150 
     11 C11         1.6516  -18.1834  -53.5042 C.ar      23 UNK        -0.0193 
     12 C12         2.3026  -19.0499  -52.6195 C.ar      23 UNK        -0.1150 
     13 C13         2.6940  -18.6146  -51.3486 C.ar      23 UNK        -0.0193 
     14 C14         2.4583  -17.2836  -50.9875 C.ar      23 UNK        -0.1150 
     15 C15         3.3679  -19.6007  -50.3927 C.3       23 UNK        -0.0205 
     16 S16         3.0909  -19.2764  -48.6121 S.3       23 UNK        -0.2404 
     17 C17         1.2721  -19.3620  -48.4822 C.3       23 UNK        -0.0398 
     18 CA          0.7843  -20.7379  -47.9770 C.3       11 UNK         0.1400 
     19 N           1.1057  -20.9829  -46.5674 N.am      11 UNK        -0.5000 
     20 C           0.9414  -22.1642  -45.9544 C.2       10 UNK         0.5000 
     21 O           0.5562  -23.1831  -46.5284 O.2       10 UNK        -0.5000 
     22 CA          1.1945  -22.2085  -44.4374 C.3       10 UNK         0.1400 
     23 CB          2.6970  -22.2940  -44.1311 C.3       10 UNK        -0.1800 
     24 N           0.6014  -21.0693  -43.7355 N.am      10 UNK        -0.5000 
     25 C          -0.7153  -20.8214  -43.6719 C.2       9 UNK         0.5000 
     26 O          -1.5713  -21.5575  -44.1612 O.2       9 UNK        -0.5000 
     27 CA         -1.1512  -19.5100  -42.9923 C.3       9 UNK         0.1400 
     28 CB         -1.1510  -19.6539  -41.4637 C.3       9 UNK        -0.1800 
     29 N          -0.3174  -18.3730  -43.3778 N.am      9 UNK        -0.5000 
     30 C          -0.2023  -17.8968  -44.6256 C.2       8 UNK         0.5000 
     31 O          -0.8315  -18.3308  -45.5894 O.2       8 UNK        -0.5000 
     32 CA          0.8370  -16.7864  -44.8406 C.3       8 UNK         0.1400 
     33 CB          0.2660  -15.4149  -44.4505 C.3       8 UNK        -0.1800 
     34 N           2.0648  -17.0452  -44.0907 N.am      8 UNK        -0.5000 
     35 C           2.9084  -18.0535  -44.3539 C.2       7 UNK         0.5000 
     36 O           2.7308  -18.8799  -45.2484 O.2       7 UNK        -0.5000 
     37 CA          4.1235  -18.1931  -43.4191 C.3       7 UNK         0.1400 
     38 CB          5.2083  -17.1664  -43.7798 C.3       7 UNK        -0.1800 
     39 N           3.7602  -18.0454  -42.0084 N.am      7 UNK        -0.5000 
     40 C           2.9633  -18.8912  -41.3389 C.2       6 UNK         0.5000 
     41 O           2.5015  -19.9228  -41.8243 O.2       6 UNK        -0.5000 
     42 CA          2.5736  -18.4938  -39.9010 C.3       6 UNK         0.1400 
     43 CB          3.6056  -19.0283  -38.8971 C.3       6 UNK        -0.1800 
     44 N           2.4081  -17.0494  -39.7041 N.am      6 UNK        -0.5000 
     45 C           1.5615  -16.2711  -40.3922 C.2       5 UNK         0.5000 
     46 O           0.8393  -16.6941  -41.2984 O.2       5 UNK        -0.5000 
     47 CA          1.5716  -14.7706  -40.0335 C.3       5 UNK         0.1400 
     48 CB          2.9288  -14.1423  -40.3922 C.3       5 UNK        -0.1800 
     49 N           0.5114  -14.0250  -40.7171 N.am      5 UNK        -0.5000 
     50 C          -0.7981  -14.1438  -40.4479 C.2       4 UNK         0.5000 
     51 O          -1.2351  -14.8218  -39.5158 O.2       4 UNK        -0.5000 
     52 CA         -1.7826  -13.3796  -41.3564 C.3       4 UNK         0.1400 
     53 CB         -3.0236  -12.8821  -40.5925 C.3       4 UNK        -0.1800 
     54 N          -1.1374  -12.2398  -42.0061 N.am      4 UNK        -0.5000 
     55 C          -1.1717  -11.9639  -43.3147 C.2       3 UNK         0.5000 
     56 O          -1.7770  -12.6410  -44.1466 O.2       3 UNK        -0.5000 
     57 CA         -0.3856  -10.7233  -43.7871 C.3       3 UNK         0.1400 
     58 CB         -0.1641   -9.6650  -42.6827 C.3       3 UNK        -0.1800 
     59 N           0.8891  -11.0906  -44.4092 N.am      3 UNK        -0.5000 
     60 C           1.8903  -11.7923  -43.8613 C.2       2 UNK         0.5000 
     61 O           1.8585  -12.2505  -42.7181 O.2       2 UNK        -0.5000 
     62 CA          3.1141  -12.0462  -44.7649 C.3       2 UNK         0.1400 
     63 CB          4.3118  -12.6233  -43.9892 C.3       2 UNK        -0.1800 
     64 N           2.7902  -12.9634  -45.8540 N.am      2 UNK        -0.5000 
     65 C           2.0741  -12.6888  -46.9494 C.2       1 UNK         0.5000 
     66 O           1.6372  -11.5646  -47.2057 O.2       1 UNK        -0.5000 
     67 C          -0.7185  -20.9236  -48.2652 C.2       11 UNK         0.5000 
     68 O          -1.0566  -21.5632  -49.2587 O.2       11 UNK        -0.5000 
     69 N          -1.5930  -20.4093  -47.3877 N.am      12 UNK        -0.5000 
     70 CA         -3.0448  -20.5783  -47.4807 C.3       12 UNK         0.1400 
     71 CB         -3.7469  -19.7136  -46.4244 C.3       12 UNK        -0.1800 
     72 C          -3.4836  -22.0486  -47.3626 C.2       12 UNK         0.5000 
     73 O          -4.3553  -22.4772  -48.1193 O.2       12 UNK        -0.5000 
     74 N          -2.8539  -22.7996  -46.4483 N.am      13 UNK        -0.5000 
     75 CA         -3.0563  -24.2372  -46.2689 C.3       13 UNK         0.1400 
     76 CB         -2.3473  -24.7090  -44.9908 C.3       13 UNK        -0.1800 
     77 C          -2.5961  -25.0526  -47.4905 C.2       13 UNK         0.5000 
     78 O          -3.3395  -25.9213  -47.9484 O.2       13 UNK        -0.5000 
     79 N          -1.4112  -24.7268  -48.0301 N.am      14 UNK        -0.5000 
     80 CA         -0.8691  -25.3036  -49.2659 C.3       14 UNK         0.1400 
     81 CB          0.5620  -24.7927  -49.4909 C.3       14 UNK        -0.1800 
     82 C          -1.7540  -25.0133  -50.4939 C.2       14 UNK         0.5000 
     83 O          -1.9444  -25.8930  -51.3336 O.2       14 UNK        -0.5000 
     84 N          -2.3398  -23.8101  -50.5244 N.am      15 UNK        -0.5000 
     85 CA         -3.3304  -23.3523  -51.4955 C.3       15 UNK         0.1400 
     86 CB         -3.3359  -21.8135  -51.4986 C.3       15 UNK        -0.1800 
     87 C          -4.7504  -23.9088  -51.2539 C.2       15 UNK         0.5000 
     88 O          -5.6897  -23.3943  -51.8555 O.2       15 UNK        -0.5000 
     89 N          -4.9070  -24.9188  -50.3837 N.am      16 UNK        -0.5000 
     90 CA         -6.1512  -25.6299  -50.0694 C.3       16 UNK         0.1400 
     91 CB         -6.6334  -26.4414  -51.2906 C.3       16 UNK        -0.1800 
     92 C          -7.2384  -24.7017  -49.4906 C.2       16 UNK         0.5000 
     93 O          -8.3752  -24.7006  -49.9662 O.2       16 UNK        -0.5000 
     94 N          -6.8435  -23.9209  -48.4757 N.am      17 UNK        -0.5000 
     95 CA         -7.6121  -22.8655  -47.8097 C.3       17 UNK         0.1400 
     96 CB         -8.9062  -23.4082  -47.1660 C.3       17 UNK        -0.1800 
     97 C          -7.8343  -21.6566  -48.7398 C.2       17 UNK         0.5000 
     98 O          -8.9513  -21.1468  -48.8449 O.2       17 UNK        -0.5000 
     99 N          -6.7381  -21.2218  -49.3790 N.am      18 UNK        -0.5000 
    100 CA        -6.6249  -20.0623  -50.2692 C.3       18 UNK         0.1400 
    101 CB        -6.7827  -18.7540  -49.4664 C.3       18 UNK        -0.1800 
    102 C         -7.5534  -20.1394  -51.5004 C.2       18 UNK         0.5000 
    103 O         -8.3268  -19.2137  -51.7583 O.2       18 UNK        -0.5000 
    104 N         -7.4532  -21.2479  -52.2443 N.am      19 UNK        -0.5000 
    105 CA        -8.1090  -21.4583  -53.5344 C.3       19 UNK         0.1400 
    106 CB        -8.1693  -22.9715  -53.8172 C.3       19 UNK        -0.1800 
    107 C         -7.4024  -20.6913  -54.6761 C.2       19 UNK         0.5000 
    108 O         -6.4755  -19.9121  -54.4399 O.2       19 UNK        -0.5000 
    109 N         -7.8638  -20.9259  -55.9114 N.am      20 UNK        -0.5000 
    110 CA        -7.4103  -20.2554  -57.1347 C.3       20 UNK         0.1400 
    111 CB        -8.3964  -20.5907  -58.2657 C.3       20 UNK        -0.1800 
    112 C         -5.9633  -20.5762  -57.5708 C.2       20 UNK         0.5000 
    113 O         -5.4365  -19.8744  -58.4359 O.2       20 UNK        -0.5000 
    114 N         -5.3492  -21.6143  -56.9918 N.am      21 UNK        -0.5000 
    115 CA        -3.9672  -22.0182  -57.2341 C.3       21 UNK         0.1400 
    116 CB        -3.9557  -23.2810  -58.1106 C.3       21 UNK        -0.1800 
    117 C         -3.2752  -22.2793  -55.8895 C.2       21 UNK         0.5000 
    118 O         -3.9315  -22.7074  -54.9377 O.2       21 UNK        -0.5000 
    119 N         -1.9604  -22.0367  -55.8475 N.am      22 UNK        -0.5000 
    120 CA        -1.1127  -22.1792  -54.6495 C.3       22 UNK         0.1400 
    121 C         -0.6540  -23.6366  -54.3416 C.2       22 UNK         0.5000 
    122 N         -1.0294  -24.6377  -55.1278 N.am      22 UNK        -0.7600 
    123 O          0.0581  -23.8644  -53.3685 O.2       22 UNK        -0.5000 
    124 C124        0.0984  -21.2100  -54.6735 C.3       23 UNK        -0.0398 
    125 S125       -0.3802  -19.4632  -54.9011 S.3       23 UNK        -0.2404 
    126 C126        1.2496  -18.6522  -54.8956 C.3       23 UNK        -0.0205 
    127 H127        6.0081  -15.4519  -47.8852 H         1 UNK         0.0600 
    128 H128        5.1352  -15.5548  -49.4193 H         1 UNK         0.0600 
    129 H129        5.1228  -16.9221  -48.3033 H         1 UNK         0.0600 
    130 H130        3.3488  -14.2261  -49.3108 H         1 UNK         0.3000 
    131 H131        1.2850  -14.6246  -47.3187 H         1 UNK         0.0600 
    132 H132        1.3793  -12.7787  -49.7620 H         1 UNK         0.0800 
    133 H133       -0.0073  -12.9884  -48.7255 H         1 UNK         0.0800 
    134 H134        2.4530  -14.5199  -51.1248 H         1 UNK         0.0800 
    135 H135        1.1117  -14.3906  -52.2350 H         1 UNK         0.0800 
    136 H136        0.8743  -16.1982  -53.7843 H         1 UNK         0.1150 
    137 H137        2.5040  -20.0679  -52.9207 H         1 UNK         0.1150 
    138 H138        2.7656  -16.9226  -50.0175 H         1 UNK         0.1150 
    139 H139        3.0294  -20.6155  -50.6075 H         1 UNK         0.0800 
    140 H140        4.4415  -19.5856  -50.5837 H         1 UNK         0.0800 
    141 H141        0.8367  -19.1305  -49.4554 H         1 UNK         0.0800 
    142 H142        0.9380  -18.5687  -47.8117 H         1 UNK         0.0800 
    143 H143        1.3028  -21.5034  -48.5586 H         1 UNK         0.0600 
    144 H144        1.4852  -20.2000  -46.0423 H         1 UNK         0.3000 
    145 H145        0.7228  -23.1148  -44.0520 H         1 UNK         0.0600 
    146 H146        2.8738  -22.4209  -43.0630 H         1 UNK         0.0600 
    147 H147        3.1510  -23.1456  -44.6392 H         1 UNK         0.0600 
    148 H148        3.2280  -21.3983  -44.4532 H         1 UNK         0.0600 
    149 H149        1.2454  -20.4423  -43.2632 H         1 UNK         0.3000 
    150 H150       -2.1722  -19.2925  -43.3120 H         1 UNK         0.0600 
    151 H151       -1.8217  -20.4541  -41.1484 H         1 UNK         0.0600 
    152 H152       -1.4866  -18.7361  -40.9802 H         1 UNK         0.0600 
    153 H153       -0.1582  -19.8893  -41.0815 H         1 UNK         0.0600 
    154 H154        0.2140  -17.9186  -42.6396 H         1 UNK         0.3000 
    155 H155        1.0917  -16.7620  -45.9023 H         1 UNK         0.0600 
    156 H156       -0.0743  -15.3923  -43.4156 H         1 UNK         0.0600 
    157 H157       -0.5872  -15.1567  -45.0787 H         1 UNK         0.0600 
    158 H158        1.0082  -14.6286  -44.5705 H         1 UNK         0.0600 
    159 H159        2.2378  -16.4604  -43.2875 H         1 UNK         0.3000 
    160 H160        4.5394  -19.1932  -43.5594 H         1 UNK         0.0600 
    161 H161        6.1054  -17.3102  -43.1777 H         1 UNK         0.0600 
    162 H162        5.4996  -17.2617  -44.8269 H         1 UNK         0.0600 
    163 H163        4.8622  -16.1428  -43.6312 H         1 UNK         0.0600 
    164 H164        4.0959  -17.2221  -41.5317 H         1 UNK         0.3000 
    165 H165        1.6131  -18.9637  -39.6819 H         1 UNK         0.0600 
    166 H166        3.2907  -18.8427  -37.8701 H         1 UNK         0.0600 
    167 H167        3.7341  -20.1062  -39.0059 H         1 UNK         0.0600 
    168 H168        4.5830  -18.5652  -39.0387 H         1 UNK         0.0600 
    169 H169        2.9751  -16.6309  -38.9808 H         1 UNK         0.3000 
    170 H170        1.4166  -14.6778  -38.9567 H         1 UNK         0.0600 
    171 H171        3.1673  -14.2819  -41.4468 H         1 UNK         0.0600 
    172 H172        2.9347  -13.0714  -40.1880 H         1 UNK         0.0600 
    173 H173        3.7397  -14.5830  -39.8116 H         1 UNK         0.0600 
    174 H174        0.8066  -13.4527  -41.5024 H         1 UNK         0.3000 
    175 H175       -2.1125  -14.1009  -42.1067 H         1 UNK         0.0600 
    176 H176       -2.7512  -12.1937  -39.7917 H         1 UNK         0.0600 
    177 H177       -3.7138  -12.3645  -41.2589 H         1 UNK         0.0600 
    178 H178       -3.5714  -13.7117  -40.1440 H         1 UNK         0.0600 
    179 H179       -0.5766  -11.6487  -41.4083 H         1 UNK         0.3000 
    180 H180       -0.9892  -10.2585  -44.5681 H         1 UNK         0.0600 
    181 H181        0.5004  -10.0165  -41.8929 H         1 UNK         0.0600 
    182 H182       -1.1090   -9.3779  -42.2196 H         1 UNK         0.0600 
    183 H183        0.2760   -8.7589  -43.0993 H         1 UNK         0.0600 
    184 H184        0.9849  -10.8494  -45.3902 H         1 UNK         0.3000 
    185 H185        3.4182  -11.0865  -45.1878 H         1 UNK         0.0600 
    186 H186        4.5805  -11.9837  -43.1475 H         1 UNK         0.0600 
    187 H187        4.0942  -13.6161  -43.5944 H         1 UNK         0.0600 
    188 H188        5.1908  -12.7058  -44.6286 H         1 UNK         0.0600 
    189 H189        3.1265  -13.9184  -45.7576 H         1 UNK         0.3000 
    190 H190       -1.2487  -19.8435  -46.6154 H         1 UNK         0.3000 
    191 H191       -3.3558  -20.2198  -48.4637 H         1 UNK         0.0600 
    192 H192       -3.4572  -19.9977  -45.4128 H         1 UNK         0.0600 
    193 H193       -4.8308  -19.8123  -46.4967 H         1 UNK         0.0600 
    194 H194       -3.5068  -18.6586  -46.5569 H         1 UNK         0.0600 
    195 H195       -2.1926  -22.3519  -45.8198 H         1 UNK         0.3000 
    196 H196       -4.1273  -24.4079  -46.1414 H         1 UNK         0.0600 
    197 H197       -2.5023  -25.7765  -44.8293 H         1 UNK         0.0600 
    198 H198       -2.7311  -24.1879  -44.1136 H         1 UNK         0.0600 
    199 H199       -1.2721  -24.5361  -45.0367 H         1 UNK         0.0600 
    200 H200       -0.8383  -24.0260  -47.5670 H         1 UNK         0.3000 
    201 H201       -0.8274  -26.3868  -49.1355 H         1 UNK         0.0600 
    202 H202        1.2110  -25.0543  -48.6550 H         1 UNK         0.0600 
    203 H203        0.5888  -23.7095  -49.6093 H         1 UNK         0.0600 
    204 H204        0.9948  -25.2303  -50.3914 H         1 UNK         0.0600 
    205 H205       -2.0679  -23.1304  -49.8201 H         1 UNK         0.3000 
    206 H206       -3.0235  -23.6946  -52.4847 H         1 UNK         0.0600 
    207 H207       -2.3359  -21.4103  -51.6544 H         1 UNK         0.0600 
    208 H208       -3.9716  -21.4202  -52.2933 H         1 UNK         0.0600 
    209 H209       -3.7007  -21.4183  -50.5523 H         1 UNK         0.0600 
    210 H210       -4.0901  -25.2414  -49.8799 H         1 UNK         0.3000 
    211 H211       -5.9052  -26.3417  -49.2802 H         1 UNK         0.0600 
    212 H212       -6.9353  -25.7948  -52.1153 H         1 UNK         0.0600 
    213 H213       -7.4917  -27.0625  -51.0319 H         1 UNK         0.0600 
    214 H214       -5.8504  -27.1061  -51.6555 H         1 UNK         0.0600 
    215 H215       -5.8586  -23.9346  -48.2358 H         1 UNK         0.3000 
    216 H216       -6.9801  -22.5050  -46.9967 H         1 UNK         0.0600 
    217 H217       -9.3763  -22.6460  -46.5438 H         1 UNK         0.0600 
    218 H218       -8.6991  -24.2663  -46.5268 H         1 UNK         0.0600 
    219 H219       -9.6408  -23.7129  -47.9115 H         1 UNK         0.0600 
    220 H220       -5.8777  -21.7311  -49.2051 H         1 UNK         0.3000 
    221 H221       -5.6090  -20.0727  -50.6630 H         1 UNK         0.0600 
    222 H222       -7.7848  -18.6515  -49.0491 H         1 UNK         0.0600 
    223 H223       -6.0701  -18.7092  -48.6429 H         1 UNK         0.0600 
    224 H224       -6.6013  -17.8841  -50.0988 H         1 UNK         0.0600 
    225 H225       -6.7854  -21.9699  -51.9769 H         1 UNK         0.3000 
    226 H226       -9.1321  -21.0833  -53.4653 H         1 UNK         0.0600 
    227 H227       -8.5527  -23.5196  -52.9558 H         1 UNK         0.0600 
    228 H228       -8.8279  -23.1957  -54.6565 H         1 UNK         0.0600 
    229 H229       -7.1844  -23.3755  -54.0554 H         1 UNK         0.0600 
    230 H230       -8.6161  -21.5894  -56.0268 H         1 UNK         0.3000 
    231 H231       -7.4545  -19.1790  -56.9566 H         1 UNK         0.0600 
    232 H232       -9.4104  -20.2815  -58.0115 H         1 UNK         0.0600 
    233 H233       -8.4133  -21.6603  -58.4791 H         1 UNK         0.0600 
    234 H234       -8.1258  -20.0767  -59.1890 H         1 UNK         0.0600 
    235 H235       -5.8090  -22.0945  -56.2302 H         1 UNK         0.3000 
    236 H236       -3.4216  -21.2234  -57.7472 H         1 UNK         0.0600 
    237 H237       -2.9355  -23.6065  -58.3168 H         1 UNK         0.0600 
    238 H238       -4.4761  -24.1096  -57.6286 H         1 UNK         0.0600 
    239 H239       -4.4379  -23.0967  -59.0707 H         1 UNK         0.0600 
    240 H240       -1.4939  -21.6992  -56.6769 H         1 UNK         0.3000 
    241 H241       -1.7211  -21.8887  -53.7948 H         1 UNK         0.0600 
    242 H242       -0.7289  -25.5747  -54.9099 H         1 UNK         0.3800 
    243 H243       -1.6185  -24.4715  -55.9269 H         1 UNK         0.3800 
    244 H244        0.6549  -21.2832  -53.7382 H         1 UNK         0.0800 
    245 H245        0.7903  -21.4903  -55.4695 H         1 UNK         0.0800 
    246 H246        1.2122  -17.7988  -55.5744 H         1 UNK         0.0800 
    247 H247        2.0085  -19.3222  -55.3024 H         1 UNK         0.0800 
@<TRIPOS>BOND
     1    1    2 1    
     2    1  127 1    
     3    1  128 1    
     4    1  129 1    
     5    2    3 2    
     6    2    4 am   BACKBONE|DICT|INTERRES
     7    4    5 1    
     8    4  130 1    
     9    5    6 1    
    10    5   65 1    
    11    5  131 1    
    12    6    7 1    
    13    6  132 1    
    14    6  133 1    
    15    7    8 1    
    16    8    9 1    
    17    8  134 1    
    18    8  135 1    
    19    9   10 ar   
    20    9   14 ar   
    21   10   11 ar   
    22   10  136 1    
    23   11   12 ar   
    24   11  126 1    
    25   12   13 ar   
    26   12  137 1    
    27   13   14 ar   
    28   13   15 1    
    29   14  138 1    
    30   15   16 1    
    31   15  139 1    
    32   15  140 1    
    33   16   17 1    
    34   17   18 1    
    35   17  141 1    
    36   17  142 1    
    37   18   19 1    
    38   18   67 1    
    39   18  143 1    
    40   19   20 am   BACKBONE|DICT|INTERRES
    41   19  144 1    
    42   20   21 2    
    43   20   22 1    
    44   22   23 1    
    45   22   24 1    
    46   22  145 1    
    47   23  146 1    
    48   23  147 1    
    49   23  148 1    
    50   24   25 am   BACKBONE|DICT|INTERRES
    51   24  149 1    
    52   25   26 2    
    53   25   27 1    
    54   27   28 1    
    55   27   29 1    
    56   27  150 1    
    57   28  151 1    
    58   28  152 1    
    59   28  153 1    
    60   29   30 am   BACKBONE|DICT|INTERRES
    61   29  154 1    
    62   30   31 2    
    63   30   32 1    
    64   32   33 1    
    65   32   34 1    
    66   32  155 1    
    67   33  156 1    
    68   33  157 1    
    69   33  158 1    
    70   34   35 am   BACKBONE|DICT|INTERRES
    71   34  159 1    
    72   35   36 2    
    73   35   37 1    
    74   37   38 1    
    75   37   39 1    
    76   37  160 1    
    77   38  161 1    
    78   38  162 1    
    79   38  163 1    
    80   39   40 am   BACKBONE|DICT|INTERRES
    81   39  164 1    
    82   40   41 2    
    83   40   42 1    
    84   42   43 1    
    85   42   44 1    
    86   42  165 1    
    87   43  166 1    
    88   43  167 1    
    89   43  168 1    
    90   44   45 am   BACKBONE|DICT|INTERRES
    91   44  169 1    
    92   45   46 2    
    93   45   47 1    
    94   47   48 1    
    95   47   49 1    
    96   47  170 1    
    97   48  171 1    
    98   48  172 1    
    99   48  173 1    
   100   49   50 am   BACKBONE|DICT|INTERRES
   101   49  174 1    
   102   50   51 2    
   103   50   52 1    
   104   52   53 1    
   105   52   54 1    
   106   52  175 1    
   107   53  176 1    
   108   53  177 1    
   109   53  178 1    
   110   54   55 am   BACKBONE|DICT|INTERRES
   111   54  179 1    
   112   55   56 2    
   113   55   57 1    
   114   57   58 1    
   115   57   59 1    
   116   57  180 1    
   117   58  181 1    
   118   58  182 1    
   119   58  183 1    
   120   59   60 am   BACKBONE|DICT|INTERRES
   121   59  184 1    
   122   60   61 2    
   123   60   62 1    
   124   62   63 1    
   125   62   64 1    
   126   62  185 1    
   127   63  186 1    
   128   63  187 1    
   129   63  188 1    
   130   64   65 am   BACKBONE|DICT|INTERRES
   131   64  189 1    
   132   65   66 2    
   133   67   68 2    
   134   67   69 am   BACKBONE|DICT|INTERRES
   135   69   70 1    
   136   69  190 1    
   137   70   71 1    
   138   70   72 1    
   139   70  191 1    
   140   71  192 1    
   141   71  193 1    
   142   71  194 1    
   143   72   73 2    
   144   72   74 am   BACKBONE|DICT|INTERRES
   145   74   75 1    
   146   74  195 1    
   147   75   76 1    
   148   75   77 1    
   149   75  196 1    
   150   76  197 1    
   151   76  198 1    
   152   76  199 1    
   153   77   78 2    
   154   77   79 am   BACKBONE|DICT|INTERRES
   155   79   80 1    
   156   79  200 1    
   157   80   81 1    
   158   80   82 1    
   159   80  201 1    
   160   81  202 1    
   161   81  203 1    
   162   81  204 1    
   163   82   83 2    
   164   82   84 am   BACKBONE|DICT|INTERRES
   165   84   85 1    
   166   84  205 1    
   167   85   86 1    
   168   85   87 1    
   169   85  206 1    
   170   86  207 1    
   171   86  208 1    
   172   86  209 1    
   173   87   88 2    
   174   87   89 am   BACKBONE|DICT|INTERRES
   175   89   90 1    
   176   89  210 1    
   177   90   91 1    
   178   90   92 1    
   179   90  211 1    
   180   91  212 1    
   181   91  213 1    
   182   91  214 1    
   183   92   93 2    
   184   92   94 am   BACKBONE|DICT|INTERRES
   185   94   95 1    
   186   94  215 1    
   187   95   96 1    
   188   95   97 1    
   189   95  216 1    
   190   96  217 1    
   191   96  218 1    
   192   96  219 1    
   193   97   98 2    
   194   97   99 am   BACKBONE|DICT|INTERRES
   195   99  100 1    
   196   99  220 1    
   197  100  101 1    
   198  100  102 1    
   199  100  221 1    
   200  101  222 1    
   201  101  223 1    
   202  101  224 1    
   203  102  103 2    
   204  102  104 am   BACKBONE|DICT|INTERRES
   205  104  105 1    
   206  104  225 1    
   207  105  106 1    
   208  105  107 1    
   209  105  226 1    
   210  106  227 1    
   211  106  228 1    
   212  106  229 1    
   213  107  108 2    
   214  107  109 am   BACKBONE|DICT|INTERRES
   215  109  110 1    
   216  109  230 1    
   217  110  111 1    
   218  110  112 1    
   219  110  231 1    
   220  111  232 1    
   221  111  233 1    
   222  111  234 1    
   223  112  113 2    
   224  112  114 am   BACKBONE|DICT|INTERRES
   225  114  115 1    
   226  114  235 1    
   227  115  116 1    
   228  115  117 1    
   229  115  236 1    
   230  116  237 1    
   231  116  238 1    
   232  116  239 1    
   233  117  118 2    
   234  117  119 am   BACKBONE|DICT|INTERRES
   235  119  120 1    
   236  119  240 1    
   237  120  121 1    
   238  120  124 1    
   239  120  241 1    
   240  121  122 am   BACKBONE|DICT|INTERRES
   241  121  123 2    
   242  122  242 1    
   243  122  243 1    
   244  124  125 1    
   245  124  244 1    
   246  124  245 1    
   247  125  126 1    
   248  126  246 1    
   249  126  247 1    
@<TRIPOS>SUBSTRUCTURE
     1 UNK         1 GROUP             0       ****    0 ROOT    
