@<TRIPOS>MOLECULE
3R540
247   249    1
SMALL
USER_CHARGES


@<TRIPOS>ATOM
      1 CA          2.2860  -15.6347  -47.2046 C.3       0 UNK        -0.1800 
      2 C           1.6626  -14.6413  -46.2357 C.2       0 UNK         0.5000 
      3 O           2.3033  -14.2493  -45.2615 O.2       0 UNK        -0.5000 
      4 N           0.4203  -14.2190  -46.5056 N.am      1 UNK        -0.5000 
      5 CA         -0.3970  -13.3616  -45.6324 C.3       1 UNK         0.1400 
      6 C6         -1.8582  -13.2325  -46.1305 C.3       23 UNK        -0.0398 
      7 S7         -2.6677  -14.8572  -46.3252 S.3       23 UNK        -0.2404 
      8 C8         -3.0334  -14.8861  -48.1070 C.3       23 UNK        -0.0205 
      9 C9         -3.1999  -16.3163  -48.5917 C.ar      23 UNK        -0.0193 
     10 C10        -4.4141  -16.9880  -48.4242 C.ar      23 UNK        -0.1150 
     11 C11        -4.5576  -18.3190  -48.8315 C.ar      23 UNK        -0.0193 
     12 C12        -3.4615  -18.9747  -49.4059 C.ar      23 UNK        -0.1150 
     13 C13        -2.2425  -18.3106  -49.5872 C.ar      23 UNK        -0.0193 
     14 C14        -2.1254  -16.9764  -49.1896 C.ar      23 UNK        -0.1150 
     15 C15        -1.0661  -19.0410  -50.2265 C.3       23 UNK        -0.0205 
     16 S16         0.5439  -18.7820  -49.4057 S.3       23 UNK        -0.2404 
     17 C17         0.1964  -19.1444  -47.6528 C.3       23 UNK        -0.0398 
     18 CA          0.1635  -20.6578  -47.3159 C.3       11 UNK         0.1400 
     19 N           0.6911  -20.9307  -45.9775 N.am      11 UNK        -0.5000 
     20 C           0.9496  -22.1497  -45.4840 C.2       10 UNK         0.5000 
     21 O           0.8384  -23.1902  -46.1323 O.2       10 UNK        -0.5000 
     22 CA          1.3644  -22.2212  -44.0022 C.3       10 UNK         0.1400 
     23 CB          2.8614  -21.9201  -43.8371 C.3       10 UNK        -0.1800 
     24 N           0.5838  -21.3228  -43.1484 N.am      10 UNK        -0.5000 
     25 C          -0.7399  -21.4232  -42.9572 C.2       9 UNK         0.5000 
     26 O          -1.4382  -22.3039  -43.4582 O.2       9 UNK        -0.5000 
     27 CA         -1.4061  -20.3340  -42.0985 C.3       9 UNK         0.1400 
     28 CB         -1.1840  -20.6004  -40.6023 C.3       9 UNK        -0.1800 
     29 N          -0.9443  -18.9872  -42.4297 N.am      9 UNK        -0.5000 
     30 C          -1.0984  -18.3949  -43.6232 C.2       8 UNK         0.5000 
     31 O          -1.6583  -18.9152  -44.5866 O.2       8 UNK        -0.5000 
     32 CA         -0.4679  -17.0017  -43.7758 C.3       8 UNK         0.1400 
     33 CB         -1.2900  -15.9653  -42.9874 C.3       8 UNK        -0.1800 
     34 N           0.9278  -16.9821  -43.3316 N.am      8 UNK        -0.5000 
     35 C           1.9062  -17.7704  -43.8036 C.2       7 UNK         0.5000 
     36 O           1.7569  -18.5723  -44.7232 O.2       7 UNK        -0.5000 
     37 CA          3.2641  -17.7099  -43.0840 C.3       7 UNK         0.1400 
     38 CB          4.1235  -16.5451  -43.5926 C.3       7 UNK        -0.1800 
     39 N           3.1062  -17.6139  -41.6348 N.am      7 UNK        -0.5000 
     40 C           2.6282  -18.5975  -40.8596 C.2       6 UNK         0.5000 
     41 O           2.3232  -19.7148  -41.2779 O.2       6 UNK        -0.5000 
     42 CA          2.4114  -18.2491  -39.3760 C.3       6 UNK         0.1400 
     43 CB          3.7253  -18.3721  -38.5901 C.3       6 UNK        -0.1800 
     44 N           1.8647  -16.9013  -39.2042 N.am      6 UNK        -0.5000 
     45 C           0.6309  -16.5379  -39.5828 C.2       5 UNK         0.5000 
     46 O          -0.1936  -17.3230  -40.0509 O.2       5 UNK        -0.5000 
     47 CA          0.2771  -15.0422  -39.4576 C.3       5 UNK         0.1400 
     48 CB         -0.3006  -14.7398  -38.0672 C.3       5 UNK        -0.1800 
     49 N           1.4179  -14.1553  -39.7144 N.am      5 UNK        -0.5000 
     50 C           2.0330  -14.0398  -40.8988 C.2       4 UNK         0.5000 
     51 O           1.6880  -14.6567  -41.9068 O.2       4 UNK        -0.5000 
     52 CA          3.2778  -13.1462  -40.9466 C.3       4 UNK         0.1400 
     53 CB          4.4657  -13.8760  -40.2836 C.3       4 UNK        -0.1800 
     54 N           3.5955  -12.8223  -42.3377 N.am      4 UNK        -0.5000 
     55 C           4.4964  -11.9127  -42.7291 C.2       3 UNK         0.5000 
     56 O           5.1117  -11.1814  -41.9516 O.2       3 UNK        -0.5000 
     57 CA          4.7635  -11.7968  -44.2375 C.3       3 UNK         0.1400 
     58 CB          5.4773  -13.0466  -44.7784 C.3       3 UNK        -0.1800 
     59 N           3.5370  -11.5578  -44.9961 N.am      3 UNK        -0.5000 
     60 C           3.0262  -10.3383  -45.2238 C.2       2 UNK         0.5000 
     61 O           3.5101   -9.3036  -44.7625 O.2       2 UNK        -0.5000 
     62 CA          1.7942  -10.2312  -46.1459 C.3       2 UNK         0.1400 
     63 CB          2.2161   -9.7601  -47.5468 C.3       2 UNK        -0.1800 
     64 N           1.0581  -11.4865  -46.2792 N.am      2 UNK        -0.5000 
     65 C           0.2105  -11.9686  -45.3620 C.2       1 UNK         0.5000 
     66 O          -0.0877  -11.3682  -44.3288 O.2       1 UNK        -0.5000 
     67 C          -1.2557  -21.2367  -47.4784 C.2       11 UNK         0.5000 
     68 O          -1.5163  -21.9615  -48.4388 O.2       11 UNK        -0.5000 
     69 N          -2.1387  -20.9348  -46.5160 N.am      12 UNK        -0.5000 
     70 CA         -3.5358  -21.3617  -46.5075 C.3       12 UNK         0.1400 
     71 CB         -4.2873  -20.6613  -45.3672 C.3       12 UNK        -0.1800 
     72 C          -3.7215  -22.8847  -46.4361 C.2       12 UNK         0.5000 
     73 O          -4.6593  -23.3986  -47.0450 O.2       12 UNK        -0.5000 
     74 N          -2.8159  -23.5748  -45.7319 N.am      13 UNK        -0.5000 
     75 CA         -2.7598  -25.0338  -45.6425 C.3       13 UNK         0.1400 
     76 CB         -1.8467  -25.4231  -44.4694 C.3       13 UNK        -0.1800 
     77 C          -2.2864  -25.7202  -46.9408 C.2       13 UNK         0.5000 
     78 O          -2.5386  -26.9147  -47.1058 O.2       13 UNK        -0.5000 
     79 N          -1.6034  -24.9773  -47.8221 N.am      14 UNK        -0.5000 
     80 CA         -1.1183  -25.4449  -49.1164 C.3       14 UNK         0.1400 
     81 CB          0.2518  -24.7975  -49.4048 C.3       14 UNK        -0.1800 
     82 C          -2.1831  -25.1684  -50.1947 C.2       14 UNK         0.5000 
     83 O          -3.1494  -25.9256  -50.2961 O.2       14 UNK        -0.5000 
     84 N          -1.9905  -24.1031  -50.9778 N.am      15 UNK        -0.5000 
     85 CA         -2.8637  -23.6317  -52.0463 C.3       15 UNK         0.1400 
     86 CB         -2.7456  -24.5416  -53.2826 C.3       15 UNK        -0.1800 
     87 C          -2.4453  -22.1970  -52.3892 C.2       15 UNK         0.5000 
     88 O          -1.2910  -21.8294  -52.1527 O.2       15 UNK        -0.5000 
     89 N          -3.3725  -21.4185  -52.9562 N.am      16 UNK        -0.5000 
     90 CA         -3.2014  -20.0193  -53.3507 C.3       16 UNK         0.1400 
     91 CB         -4.5879  -19.4165  -53.6301 C.3       16 UNK        -0.1800 
     92 C          -2.2539  -19.8650  -54.5573 C.2       16 UNK         0.5000 
     93 O          -2.7148  -19.6514  -55.6778 O.2       16 UNK        -0.5000 
     94 N          -0.9454  -20.0285  -54.3178 N.am      17 UNK        -0.5000 
     95 CA          0.1408  -20.0027  -55.3072 C.3       17 UNK         0.1400 
     96 CB          0.3286  -18.5807  -55.8758 C.3       17 UNK        -0.1800 
     97 C          -0.0375  -21.0774  -56.4032 C.2       17 UNK         0.5000 
     98 O           0.2160  -20.8190  -57.5807 O.2       17 UNK        -0.5000 
     99 N          -0.5034  -22.2599  -55.9739 N.am      18 UNK        -0.5000 
    100 CA        -0.8388  -23.4451  -56.7717 C.3       18 UNK         0.1400 
    101 CB         0.3880  -23.9660  -57.5501 C.3       18 UNK        -0.1800 
    102 C         -2.0886  -23.2923  -57.6683 C.2       18 UNK         0.5000 
    103 O         -2.3415  -24.1735  -58.4924 O.2       18 UNK        -0.5000 
    104 N         -2.8761  -22.2217  -57.4839 N.am      19 UNK        -0.5000 
    105 CA        -4.2005  -22.0682  -58.0903 C.3       19 UNK         0.1400 
    106 CB        -4.6084  -20.5864  -58.0610 C.3       19 UNK        -0.1800 
    107 C         -5.2481  -22.9285  -57.3573 C.2       19 UNK         0.5000 
    108 O         -4.9987  -23.4070  -56.2475 O.2       19 UNK        -0.5000 
    109 N         -6.4241  -23.0838  -57.9765 N.am      20 UNK        -0.5000 
    110 CA        -7.5666  -23.8402  -57.4563 C.3       20 UNK         0.1400 
    111 CB        -8.4564  -24.2596  -58.6411 C.3       20 UNK        -0.1800 
    112 C         -8.3475  -23.0685  -56.3671 C.2       20 UNK         0.5000 
    113 O         -9.5573  -22.8676  -56.4934 O.2       20 UNK        -0.5000 
    114 N         -7.6416  -22.6459  -55.3155 N.am      21 UNK        -0.5000 
    115 CA        -8.1686  -21.9723  -54.1353 C.3       21 UNK         0.1400 
    116 CB        -8.3414  -20.4687  -54.4129 C.3       21 UNK        -0.1800 
    117 C         -7.2085  -22.2212  -52.9650 C.2       21 UNK         0.5000 
    118 O         -6.0090  -22.4076  -53.1902 O.2       21 UNK        -0.5000 
    119 N         -7.7539  -22.2120  -51.7423 N.am      22 UNK        -0.5000 
    120 CA        -7.0543  -22.5216  -50.4799 C.3       22 UNK         0.1400 
    121 C         -6.5547  -24.0027  -50.4150 C.2       22 UNK         0.5000 
    122 N         -5.7456  -24.3820  -49.4377 N.am      22 UNK        -0.7600 
    123 O         -6.9248  -24.8460  -51.2297 O.2       22 UNK        -0.5000 
    124 C124       -5.9540  -21.4732  -50.1272 C.3       23 UNK        -0.0398 
    125 S125       -6.5857  -19.7533  -50.1379 S.3       23 UNK        -0.2404 
    126 C126       -5.8902  -19.0351  -48.6129 C.3       23 UNK        -0.0205 
    127 H127        1.6073  -15.8883  -48.0194 H         1 UNK         0.0600 
    128 H128        2.5445  -16.5548  -46.6812 H         1 UNK         0.0600 
    129 H129        3.1970  -15.2183  -47.6340 H         1 UNK         0.0600 
    130 H130       -0.0533  -14.5761  -47.3221 H         1 UNK         0.3000 
    131 H131       -0.4224  -13.8557  -44.6640 H         1 UNK         0.0600 
    132 H132       -2.4519  -12.6576  -45.4172 H         1 UNK         0.0800 
    133 H133       -1.8973  -12.6792  -47.0702 H         1 UNK         0.0800 
    134 H134       -2.2319  -14.3982  -48.6635 H         1 UNK         0.0800 
    135 H135       -3.9408  -14.3126  -48.3023 H         1 UNK         0.0800 
    136 H136       -5.2429  -16.4731  -47.9588 H         1 UNK         0.1150 
    137 H137       -3.5549  -20.0058  -49.7135 H         1 UNK         0.1150 
    138 H138       -1.1872  -16.4576  -49.3262 H         1 UNK         0.1150 
    139 H139       -1.2610  -20.1111  -50.2632 H         1 UNK         0.0800 
    140 H140       -0.9710  -18.7096  -51.2603 H         1 UNK         0.0800 
    141 H141       -0.6989  -18.6203  -47.3137 H         1 UNK         0.0800 
    142 H142        1.0156  -18.6687  -47.1165 H         1 UNK         0.0800 
    143 H143        0.8156  -21.1842  -48.0164 H         1 UNK         0.0600 
    144 H144        0.8613  -20.1216  -45.3855 H         1 UNK         0.3000 
    145 H145        1.1848  -23.2420  -43.6584 H         1 UNK         0.0600 
    146 H146        3.1746  -22.0353  -42.7993 H         1 UNK         0.0600 
    147 H147        3.4649  -22.6019  -44.4375 H         1 UNK         0.0600 
    148 H148        3.1053  -20.9046  -44.1489 H         1 UNK         0.0600 
    149 H149        1.0945  -20.5877  -42.6704 H         1 UNK         0.3000 
    150 H150       -2.4797  -20.3705  -42.2931 H         1 UNK         0.0600 
    151 H151       -1.5413  -21.5928  -40.3249 H         1 UNK         0.0600 
    152 H152       -1.7227  -19.8770  -39.9899 H         1 UNK         0.0600 
    153 H153       -0.1288  -20.5432  -40.3339 H         1 UNK         0.0600 
    154 H154       -0.4922  -18.4658  -41.6849 H         1 UNK         0.3000 
    155 H155       -0.4776  -16.7271  -44.8325 H         1 UNK         0.0600 
    156 H156       -1.5465  -16.3136  -41.9882 H         1 UNK         0.0600 
    157 H157       -2.2302  -15.7539  -43.4962 H         1 UNK         0.0600 
    158 H158       -0.7596  -15.0235  -42.8672 H         1 UNK         0.0600 
    159 H159        1.1694  -16.2833  -42.6339 H         1 UNK         0.3000 
    160 H160        3.7962  -18.6374  -43.3052 H         1 UNK         0.0600 
    161 H161        3.6741  -15.5820  -43.3575 H         1 UNK         0.0600 
    162 H162        4.2462  -16.5928  -44.6752 H         1 UNK         0.0600 
    163 H163        5.1194  -16.5655  -43.1501 H         1 UNK         0.0600 
    164 H164        3.2873  -16.7144  -41.2178 H         1 UNK         0.3000 
    165 H165        1.6972  -18.9658  -38.9646 H         1 UNK         0.0600 
    166 H166        3.5658  -18.1949  -37.5263 H         1 UNK         0.0600 
    167 H167        4.1478  -19.3726  -38.6921 H         1 UNK         0.0600 
    168 H168        4.4751  -17.6615  -38.9403 H         1 UNK         0.0600 
    169 H169        2.4777  -16.2017  -38.8135 H         1 UNK         0.3000 
    170 H170       -0.4928  -14.8226  -40.1999 H         1 UNK         0.0600 
    171 H171       -1.1652  -15.3714  -37.8584 H         1 UNK         0.0600 
    172 H172        0.4321  -14.9149  -37.2785 H         1 UNK         0.0600 
    173 H173       -0.6320  -13.7038  -37.9947 H         1 UNK         0.0600 
    174 H174        1.7596  -13.6217  -38.9279 H         1 UNK         0.3000 
    175 H175        3.0595  -12.2223  -40.4074 H         1 UNK         0.0600 
    176 H176        4.7390  -14.7774  -40.8336 H         1 UNK         0.0600 
    177 H177        5.3494  -13.2406  -40.2299 H         1 UNK         0.0600 
    178 H178        4.2309  -14.1729  -39.2608 H         1 UNK         0.0600 
    179 H179        3.0849  -13.3654  -43.0265 H         1 UNK         0.3000 
    180 H180        5.4440  -10.9552  -44.3861 H         1 UNK         0.0600 
    181 H181        4.8586  -13.9389  -44.6992 H         1 UNK         0.0600 
    182 H182        6.3989  -13.2383  -44.2274 H         1 UNK         0.0600 
    183 H183        5.7458  -12.9214  -45.8274 H         1 UNK         0.0600 
    184 H184        3.0479  -12.3791  -45.3360 H         1 UNK         0.3000 
    185 H185        1.1298   -9.4758  -45.7209 H         1 UNK         0.0600 
    186 H186        2.7419   -8.8056  -47.4969 H         1 UNK         0.0600 
    187 H187        2.8821  -10.4768  -48.0290 H         1 UNK         0.0600 
    188 H188        1.3497   -9.6180  -48.1930 H         1 UNK         0.0600 
    189 H189        1.2547  -12.0484  -47.0947 H         1 UNK         0.3000 
    190 H190       -1.8572  -20.3094  -45.7630 H         1 UNK         0.3000 
    191 H191       -3.9671  -21.0387  -47.4530 H         1 UNK         0.0600 
    192 H192       -3.8596  -20.9090  -44.3952 H         1 UNK         0.0600 
    193 H193       -5.3378  -20.9542  -45.3507 H         1 UNK         0.0600 
    194 H194       -4.2536  -19.5776  -45.4827 H         1 UNK         0.0600 
    195 H195       -2.1202  -23.0613  -45.1995 H         1 UNK         0.3000 
    196 H196       -3.7656  -25.4006  -45.4277 H         1 UNK         0.0600 
    197 H197       -1.7886  -26.5066  -44.3581 H         1 UNK         0.0600 
    198 H198       -2.2212  -25.0204  -43.5281 H         1 UNK         0.0600 
    199 H199       -0.8313  -25.0510  -44.6124 H         1 UNK         0.0600 
    200 H200       -1.4806  -23.9894  -47.6347 H         1 UNK         0.3000 
    201 H201       -0.9651  -26.5257  -49.0878 H         1 UNK         0.0600 
    202 H202        0.9875  -25.1054  -48.6614 H         1 UNK         0.0600 
    203 H203        0.2121  -23.7085  -49.3874 H         1 UNK         0.0600 
    204 H204        0.6328  -25.1024  -50.3803 H         1 UNK         0.0600 
    205 H205       -1.2035  -23.4896  -50.8006 H         1 UNK         0.3000 
    206 H206       -3.8945  -23.6231  -51.6896 H         1 UNK         0.0600 
    207 H207       -1.7152  -24.6104  -53.6322 H         1 UNK         0.0600 
    208 H208       -3.0947  -25.5513  -53.0674 H         1 UNK         0.0600 
    209 H209       -3.3517  -24.1623  -54.1065 H         1 UNK         0.0600 
    210 H210       -4.2946  -21.8154  -53.1366 H         1 UNK         0.3000 
    211 H211       -2.7708  -19.4732  -52.5120 H         1 UNK         0.0600 
    212 H212       -5.0905  -19.9386  -54.4444 H         1 UNK         0.0600 
    213 H213       -4.5106  -18.3650  -53.9087 H         1 UNK         0.0600 
    214 H214       -5.2286  -19.4734  -52.7513 H         1 UNK         0.0600 
    215 H215       -0.6846  -20.3231  -53.3822 H         1 UNK         0.3000 
    216 H216        1.0530  -20.2654  -54.7697 H         1 UNK         0.0600 
    217 H217        1.2127  -18.5282  -56.5121 H         1 UNK         0.0600 
    218 H218        0.4613  -17.8516  -55.0766 H         1 UNK         0.0600 
    219 H219       -0.5254  -18.2675  -56.4772 H         1 UNK         0.0600 
    220 H220       -0.6856  -22.3437  -54.9838 H         1 UNK         0.3000 
    221 H221       -1.1028  -24.2146  -56.0454 H         1 UNK         0.0600 
    222 H222        0.6646  -23.3004  -58.3678 H         1 UNK         0.0600 
    223 H223        1.2536  -24.0753  -56.8968 H         1 UNK         0.0600 
    224 H224        0.1876  -24.9457  -57.9852 H         1 UNK         0.0600 
    225 H225       -2.6222  -21.5315  -56.7881 H         1 UNK         0.3000 
    226 H226       -4.1500  -22.3918  -59.1320 H         1 UNK         0.0600 
    227 H227       -3.8177  -19.9474  -58.4550 H         1 UNK         0.0600 
    228 H228       -5.4974  -20.4131  -58.6679 H         1 UNK         0.0600 
    229 H229       -4.8395  -20.2516  -57.0493 H         1 UNK         0.0600 
    230 H230       -6.5674  -22.6273  -58.8657 H         1 UNK         0.3000 
    231 H231       -7.1938  -24.7541  -56.9889 H         1 UNK         0.0600 
    232 H232       -7.8960  -24.8522  -59.3646 H         1 UNK         0.0600 
    233 H233       -8.8678  -23.3943  -59.1623 H         1 UNK         0.0600 
    234 H234       -9.2945  -24.8714  -58.3050 H         1 UNK         0.0600 
    235 H235       -6.6486  -22.8669  -55.2705 H         1 UNK         0.3000 
    236 H236       -9.1373  -22.4073  -53.8800 H         1 UNK         0.0600 
    237 H237       -7.4099  -20.0112  -54.7445 H         1 UNK         0.0600 
    238 H238       -9.0904  -20.2938  -55.1853 H         1 UNK         0.0600 
    239 H239       -8.6685  -19.9386  -53.5175 H         1 UNK         0.0600 
    240 H240       -8.7474  -22.0556  -51.6564 H         1 UNK         0.3000 
    241 H241       -7.8221  -22.4575  -49.7083 H         1 UNK         0.0600 
    242 H242       -5.4547  -23.7867  -48.6670 H         1 UNK         0.3800 
    243 H243       -5.4036  -25.3307  -49.4574 H         1 UNK         0.3800 
    244 H244       -5.5356  -21.6875  -49.1450 H         1 UNK         0.0800 
    245 H245       -5.1233  -21.5369  -50.8276 H         1 UNK         0.0800 
    246 H246       -5.7939  -19.7939  -47.8389 H         1 UNK         0.0800 
    247 H247       -6.6273  -18.3275  -48.2305 H         1 UNK         0.0800 
@<TRIPOS>BOND
     1    1    2 1    
     2    1  127 1    
     3    1  128 1    
     4    1  129 1    
     5    2    3 2    
     6    2    4 am   BACKBONE|DICT|INTERRES
     7    4    5 1    
     8    4  130 1    
     9    5    6 1    
    10    5   65 1    
    11    5  131 1    
    12    6    7 1    
    13    6  132 1    
    14    6  133 1    
    15    7    8 1    
    16    8    9 1    
    17    8  134 1    
    18    8  135 1    
    19    9   10 ar   
    20    9   14 ar   
    21   10   11 ar   
    22   10  136 1    
    23   11   12 ar   
    24   11  126 1    
    25   12   13 ar   
    26   12  137 1    
    27   13   14 ar   
    28   13   15 1    
    29   14  138 1    
    30   15   16 1    
    31   15  139 1    
    32   15  140 1    
    33   16   17 1    
    34   17   18 1    
    35   17  141 1    
    36   17  142 1    
    37   18   19 1    
    38   18   67 1    
    39   18  143 1    
    40   19   20 am   BACKBONE|DICT|INTERRES
    41   19  144 1    
    42   20   21 2    
    43   20   22 1    
    44   22   23 1    
    45   22   24 1    
    46   22  145 1    
    47   23  146 1    
    48   23  147 1    
    49   23  148 1    
    50   24   25 am   BACKBONE|DICT|INTERRES
    51   24  149 1    
    52   25   26 2    
    53   25   27 1    
    54   27   28 1    
    55   27   29 1    
    56   27  150 1    
    57   28  151 1    
    58   28  152 1    
    59   28  153 1    
    60   29   30 am   BACKBONE|DICT|INTERRES
    61   29  154 1    
    62   30   31 2    
    63   30   32 1    
    64   32   33 1    
    65   32   34 1    
    66   32  155 1    
    67   33  156 1    
    68   33  157 1    
    69   33  158 1    
    70   34   35 am   BACKBONE|DICT|INTERRES
    71   34  159 1    
    72   35   36 2    
    73   35   37 1    
    74   37   38 1    
    75   37   39 1    
    76   37  160 1    
    77   38  161 1    
    78   38  162 1    
    79   38  163 1    
    80   39   40 am   BACKBONE|DICT|INTERRES
    81   39  164 1    
    82   40   41 2    
    83   40   42 1    
    84   42   43 1    
    85   42   44 1    
    86   42  165 1    
    87   43  166 1    
    88   43  167 1    
    89   43  168 1    
    90   44   45 am   BACKBONE|DICT|INTERRES
    91   44  169 1    
    92   45   46 2    
    93   45   47 1    
    94   47   48 1    
    95   47   49 1    
    96   47  170 1    
    97   48  171 1    
    98   48  172 1    
    99   48  173 1    
   100   49   50 am   BACKBONE|DICT|INTERRES
   101   49  174 1    
   102   50   51 2    
   103   50   52 1    
   104   52   53 1    
   105   52   54 1    
   106   52  175 1    
   107   53  176 1    
   108   53  177 1    
   109   53  178 1    
   110   54   55 am   BACKBONE|DICT|INTERRES
   111   54  179 1    
   112   55   56 2    
   113   55   57 1    
   114   57   58 1    
   115   57   59 1    
   116   57  180 1    
   117   58  181 1    
   118   58  182 1    
   119   58  183 1    
   120   59   60 am   BACKBONE|DICT|INTERRES
   121   59  184 1    
   122   60   61 2    
   123   60   62 1    
   124   62   63 1    
   125   62   64 1    
   126   62  185 1    
   127   63  186 1    
   128   63  187 1    
   129   63  188 1    
   130   64   65 am   BACKBONE|DICT|INTERRES
   131   64  189 1    
   132   65   66 2    
   133   67   68 2    
   134   67   69 am   BACKBONE|DICT|INTERRES
   135   69   70 1    
   136   69  190 1    
   137   70   71 1    
   138   70   72 1    
   139   70  191 1    
   140   71  192 1    
   141   71  193 1    
   142   71  194 1    
   143   72   73 2    
   144   72   74 am   BACKBONE|DICT|INTERRES
   145   74   75 1    
   146   74  195 1    
   147   75   76 1    
   148   75   77 1    
   149   75  196 1    
   150   76  197 1    
   151   76  198 1    
   152   76  199 1    
   153   77   78 2    
   154   77   79 am   BACKBONE|DICT|INTERRES
   155   79   80 1    
   156   79  200 1    
   157   80   81 1    
   158   80   82 1    
   159   80  201 1    
   160   81  202 1    
   161   81  203 1    
   162   81  204 1    
   163   82   83 2    
   164   82   84 am   BACKBONE|DICT|INTERRES
   165   84   85 1    
   166   84  205 1    
   167   85   86 1    
   168   85   87 1    
   169   85  206 1    
   170   86  207 1    
   171   86  208 1    
   172   86  209 1    
   173   87   88 2    
   174   87   89 am   BACKBONE|DICT|INTERRES
   175   89   90 1    
   176   89  210 1    
   177   90   91 1    
   178   90   92 1    
   179   90  211 1    
   180   91  212 1    
   181   91  213 1    
   182   91  214 1    
   183   92   93 2    
   184   92   94 am   BACKBONE|DICT|INTERRES
   185   94   95 1    
   186   94  215 1    
   187   95   96 1    
   188   95   97 1    
   189   95  216 1    
   190   96  217 1    
   191   96  218 1    
   192   96  219 1    
   193   97   98 2    
   194   97   99 am   BACKBONE|DICT|INTERRES
   195   99  100 1    
   196   99  220 1    
   197  100  101 1    
   198  100  102 1    
   199  100  221 1    
   200  101  222 1    
   201  101  223 1    
   202  101  224 1    
   203  102  103 2    
   204  102  104 am   BACKBONE|DICT|INTERRES
   205  104  105 1    
   206  104  225 1    
   207  105  106 1    
   208  105  107 1    
   209  105  226 1    
   210  106  227 1    
   211  106  228 1    
   212  106  229 1    
   213  107  108 2    
   214  107  109 am   BACKBONE|DICT|INTERRES
   215  109  110 1    
   216  109  230 1    
   217  110  111 1    
   218  110  112 1    
   219  110  231 1    
   220  111  232 1    
   221  111  233 1    
   222  111  234 1    
   223  112  113 2    
   224  112  114 am   BACKBONE|DICT|INTERRES
   225  114  115 1    
   226  114  235 1    
   227  115  116 1    
   228  115  117 1    
   229  115  236 1    
   230  116  237 1    
   231  116  238 1    
   232  116  239 1    
   233  117  118 2    
   234  117  119 am   BACKBONE|DICT|INTERRES
   235  119  120 1    
   236  119  240 1    
   237  120  121 1    
   238  120  124 1    
   239  120  241 1    
   240  121  122 am   BACKBONE|DICT|INTERRES
   241  121  123 2    
   242  122  242 1    
   243  122  243 1    
   244  124  125 1    
   245  124  244 1    
   246  124  245 1    
   247  125  126 1    
   248  126  246 1    
   249  126  247 1    
@<TRIPOS>SUBSTRUCTURE
     1 UNK         1 GROUP             0       ****    0 ROOT    
