@<TRIPOS>MOLECULE
3R540
247   249    1
SMALL
USER_CHARGES


@<TRIPOS>ATOM
      1 CA         -2.5024   -9.5854  -45.9102 C.3       0 UNK        -0.1800 
      2 C          -1.2240   -9.8485  -46.6938 C.2       0 UNK         0.5000 
      3 O          -0.7791   -8.9843  -47.4502 O.2       0 UNK        -0.5000 
      4 N          -0.6411  -11.0408  -46.5228 N.am      1 UNK        -0.5000 
      5 CA          0.6149  -11.4678  -47.1502 C.3       1 UNK         0.1400 
      6 C6          0.8580  -12.9918  -46.9978 C.3       23 UNK        -0.0398 
      7 S7         -0.5732  -14.0199  -47.4686 S.3       23 UNK        -0.2404 
      8 C8         -0.1408  -14.5902  -49.1409 C.3       23 UNK        -0.0205 
      9 C9         -0.6786  -15.9929  -49.3726 C.ar      23 UNK        -0.0193 
     10 C10        -2.0263  -16.1947  -49.6883 C.ar      23 UNK        -0.1150 
     11 C11        -2.5270  -17.4890  -49.8619 C.ar      23 UNK        -0.0193 
     12 C12        -1.6702  -18.5830  -49.7150 C.ar      23 UNK        -0.1150 
     13 C13        -0.3204  -18.3932  -49.4094 C.ar      23 UNK        -0.0193 
     14 C14         0.1711  -17.0952  -49.2475 C.ar      23 UNK        -0.1150 
     15 C15         0.6023  -19.5894  -49.2448 C.3       23 UNK        -0.0205 
     16 S16         1.1653  -19.7388  -47.5226 S.3       23 UNK        -0.2404 
     17 C17         1.5642  -21.5120  -47.4128 C.3       23 UNK        -0.0398 
     18 CA          0.5060  -22.3542  -46.6594 C.3       11 UNK         0.1400 
     19 N           0.2298  -21.8691  -45.3056 N.am      11 UNK        -0.5000 
     20 C          -0.1916  -22.6587  -44.3092 C.2       10 UNK         0.5000 
     21 O          -0.3740  -23.8715  -44.4281 O.2       10 UNK        -0.5000 
     22 CA         -0.4851  -21.9736  -42.9633 C.3       10 UNK         0.1400 
     23 CB          0.8165  -21.5589  -42.2606 C.3       10 UNK        -0.1800 
     24 N          -1.3594  -20.8090  -43.0981 N.am      10 UNK        -0.5000 
     25 C          -2.6316  -20.8605  -43.5183 C.2       9 UNK         0.5000 
     26 O          -3.1961  -21.8962  -43.8688 O.2       9 UNK        -0.5000 
     27 CA         -3.4062  -19.5303  -43.5798 C.3       9 UNK         0.1400 
     28 CB         -4.1120  -19.2618  -42.2423 C.3       9 UNK        -0.1800 
     29 N          -2.5945  -18.3643  -43.9336 N.am      9 UNK        -0.5000 
     30 C          -1.8337  -18.2427  -45.0298 C.2       8 UNK         0.5000 
     31 O          -1.6729  -19.1470  -45.8494 O.2       8 UNK        -0.5000 
     32 CA         -1.1246  -16.8926  -45.2543 C.3       8 UNK         0.1400 
     33 CB         -1.4602  -15.8069  -44.2066 C.3       8 UNK        -0.1800 
     34 N           0.3253  -17.0501  -45.3755 N.am      8 UNK        -0.5000 
     35 C           1.1611  -17.6162  -44.4922 C.2       7 UNK         0.5000 
     36 O           0.7952  -18.0941  -43.4158 O.2       7 UNK        -0.5000 
     37 CA          2.6524  -17.6714  -44.8910 C.3       7 UNK         0.1400 
     38 CB          3.0248  -16.7009  -46.0329 C.3       7 UNK        -0.1800 
     39 N           3.5045  -17.3728  -43.7449 N.am      7 UNK        -0.5000 
     40 C           3.9969  -18.2648  -42.8768 C.2       6 UNK         0.5000 
     41 O           3.8185  -19.4803  -42.9627 O.2       6 UNK        -0.5000 
     42 CA          4.8475  -17.7070  -41.7225 C.3       6 UNK         0.1400 
     43 CB          6.3033  -17.5171  -42.1782 C.3       6 UNK        -0.1800 
     44 N           4.3310  -16.4228  -41.2463 N.am      6 UNK        -0.5000 
     45 C           3.7417  -16.2199  -40.0598 C.2       5 UNK         0.5000 
     46 O           3.5977  -17.0965  -39.2066 O.2       5 UNK        -0.5000 
     47 CA          3.2277  -14.7942  -39.7644 C.3       5 UNK         0.1400 
     48 CB          4.2839  -13.9942  -38.9866 C.3       5 UNK        -0.1800 
     49 N           2.8630  -14.0498  -40.9711 N.am      5 UNK        -0.5000 
     50 C           1.8146  -14.3388  -41.7534 C.2       4 UNK         0.5000 
     51 O           0.9726  -15.1890  -41.4680 O.2       4 UNK        -0.5000 
     52 CA          1.6827  -13.5688  -43.0852 C.3       4 UNK         0.1400 
     53 CB          0.5584  -12.5260  -42.9814 C.3       4 UNK        -0.1800 
     54 N           2.9038  -12.9086  -43.5756 N.am      4 UNK        -0.5000 
     55 C           4.0794  -13.5054  -43.8262 C.2       3 UNK         0.5000 
     56 O           4.2902  -14.6970  -43.6003 O.2       3 UNK        -0.5000 
     57 CA          5.1868  -12.6302  -44.4363 C.3       3 UNK         0.1400 
     58 CB          6.3952  -13.4480  -44.9299 C.3       3 UNK        -0.1800 
     59 N           4.6404  -11.8512  -45.5442 N.am      3 UNK        -0.5000 
     60 C           4.8909  -10.5589  -45.7862 C.2       2 UNK         0.5000 
     61 O           5.6605   -9.8728  -45.1124 O.2       2 UNK        -0.5000 
     62 CA          4.1489   -9.9147  -46.9777 C.3       2 UNK         0.1400 
     63 CB          5.0689   -9.8480  -48.2066 C.3       2 UNK        -0.1800 
     64 N           2.9014  -10.5922  -47.3548 N.am      2 UNK        -0.5000 
     65 C           1.8179  -10.6896  -46.5720 C.2       1 UNK         0.5000 
     66 O           1.7717  -10.2466  -45.4212 O.2       1 UNK        -0.5000 
     67 C          -0.7915  -22.5436  -47.4674 C.2       11 UNK         0.5000 
     68 O          -0.8593  -23.4800  -48.2620 O.2       11 UNK        -0.5000 
     69 N          -1.8106  -21.7005  -47.2330 N.am      12 UNK        -0.5000 
     70 CA         -3.1257  -21.8076  -47.8684 C.3       12 UNK         0.1400 
     71 CB         -4.0071  -20.6132  -47.4812 C.3       12 UNK        -0.1800 
     72 C          -3.8421  -23.1267  -47.5370 C.2       12 UNK         0.5000 
     73 O          -4.4331  -23.7237  -48.4350 O.2       12 UNK        -0.5000 
     74 N          -3.7438  -23.5797  -46.2782 N.am      13 UNK        -0.5000 
     75 CA         -4.2740  -24.8655  -45.8224 C.3       13 UNK         0.1400 
     76 CB         -4.1728  -24.9566  -44.2927 C.3       13 UNK        -0.1800 
     77 C          -3.5722  -26.0649  -46.4837 C.2       13 UNK         0.5000 
     78 O          -4.2471  -27.0118  -46.8877 O.2       13 UNK        -0.5000 
     79 N          -2.2401  -25.9878  -46.6172 N.am      14 UNK        -0.5000 
     80 CA         -1.4140  -26.9972  -47.2853 C.3       14 UNK         0.1400 
     81 CB          0.0684  -26.7141  -46.9978 C.3       14 UNK        -0.1800 
     82 C          -1.6770  -27.0657  -48.8022 C.2       14 UNK         0.5000 
     83 O          -1.7230  -28.1578  -49.3686 O.2       14 UNK        -0.5000 
     84 N          -1.8776  -25.8955  -49.4204 N.am      15 UNK        -0.5000 
     85 CA         -2.2292  -25.7225  -50.8299 C.3       15 UNK         0.1400 
     86 CB         -1.9253  -24.2664  -51.2160 C.3       15 UNK        -0.1800 
     87 C          -3.7016  -26.0500  -51.1525 C.2       15 UNK         0.5000 
     88 O          -4.0588  -26.1004  -52.3317 O.2       15 UNK        -0.5000 
     89 N          -4.5346  -26.1989  -50.1098 N.am      16 UNK        -0.5000 
     90 CA         -5.9959  -26.3353  -50.1399 C.3       16 UNK         0.1400 
     91 CB         -6.3968  -27.7072  -50.7189 C.3       16 UNK        -0.1800 
     92 C          -6.6791  -25.1535  -50.8635 C.2       16 UNK         0.5000 
     93 O          -7.6629  -25.3490  -51.5797 O.2       16 UNK        -0.5000 
     94 N          -6.0900  -23.9569  -50.7120 N.am      17 UNK        -0.5000 
     95 CA         -6.3286  -22.6864  -51.4090 C.3       17 UNK         0.1400 
     96 CB         -7.7367  -22.1423  -51.1116 C.3       17 UNK        -0.1800 
     97 C          -6.0585  -22.7219  -52.9287 C.2       17 UNK         0.5000 
     98 O          -5.4701  -21.7787  -53.4587 O.2       17 UNK        -0.5000 
     99 N          -6.4860  -23.7969  -53.5995 N.am      18 UNK        -0.5000 
    100 CA        -6.4434  -24.0116  -55.0431 C.3       18 UNK         0.1400 
    101 CB        -7.1008  -25.3609  -55.3693 C.3       18 UNK        -0.1800 
    102 C         -5.0346  -23.9340  -55.6515 C.2       18 UNK         0.5000 
    103 O         -4.8555  -23.2425  -56.6544 O.2       18 UNK        -0.5000 
    104 N         -4.0512  -24.6029  -55.0303 N.am      19 UNK        -0.5000 
    105 CA        -2.6675  -24.6300  -55.5223 C.3       19 UNK         0.1400 
    106 CB        -1.9114  -25.8109  -54.8950 C.3       19 UNK        -0.1800 
    107 C         -1.9140  -23.3012  -55.3062 C.2       19 UNK         0.5000 
    108 O         -0.9117  -23.0596  -55.9793 O.2       19 UNK        -0.5000 
    109 N         -2.4214  -22.4559  -54.3989 N.am      20 UNK        -0.5000 
    110 CA        -1.9411  -21.0947  -54.1578 C.3       20 UNK         0.1400 
    111 CB        -2.1134  -20.7707  -52.6640 C.3       20 UNK        -0.1800 
    112 C         -2.6715  -20.0552  -55.0347 C.2       20 UNK         0.5000 
    113 O         -2.2804  -18.8879  -55.0280 O.2       20 UNK        -0.5000 
    114 N         -3.7143  -20.4912  -55.7615 N.am      21 UNK        -0.5000 
    115 CA        -4.6465  -19.6957  -56.5674 C.3       21 UNK         0.1400 
    116 CB        -3.9242  -19.0110  -57.7467 C.3       21 UNK        -0.1800 
    117 C         -5.4953  -18.7207  -55.7217 C.2       21 UNK         0.5000 
    118 O         -5.8925  -17.6625  -56.2136 O.2       21 UNK        -0.5000 
    119 N         -5.7690  -19.1033  -54.4685 N.am      22 UNK        -0.5000 
    120 CA        -6.5586  -18.3320  -53.4947 C.3       22 UNK         0.1400 
    121 C         -8.0679  -18.7124  -53.4807 C.2       22 UNK         0.5000 
    122 N         -8.5146  -19.7062  -54.2397 N.am      22 UNK        -0.7600 
    123 O         -8.8538  -18.0856  -52.7756 O.2       22 UNK        -0.5000 
    124 C124       -5.9509  -18.4234  -52.0709 C.3       23 UNK        -0.0398 
    125 S125       -4.2404  -17.7959  -51.9978 S.3       23 UNK        -0.2404 
    126 C126       -3.9918  -17.7141  -50.2006 C.3       23 UNK        -0.0205 
    127 H127       -3.3260   -9.3787  -46.5936 H         1 UNK         0.0600 
    128 H128       -2.7807  -10.4380  -45.2902 H         1 UNK         0.0600 
    129 H129       -2.3719   -8.7206  -45.2596 H         1 UNK         0.0600 
    130 H130       -1.0616  -11.7110  -45.8965 H         1 UNK         0.3000 
    131 H131        0.5437  -11.2395  -48.2158 H         1 UNK         0.0600 
    132 H132        1.0879  -13.2372  -45.9613 H         1 UNK         0.0800 
    133 H133        1.7325  -13.3009  -47.5719 H         1 UNK         0.0800 
    134 H134        0.9402  -14.5801  -49.2847 H         1 UNK         0.0800 
    135 H135       -0.5568  -13.9011  -49.8773 H         1 UNK         0.0800 
    136 H136       -2.6862  -15.3444  -49.7886 H         1 UNK         0.1150 
    137 H137       -2.0567  -19.5838  -49.8421 H         1 UNK         0.1150 
    138 H138        1.2140  -16.9480  -49.0061 H         1 UNK         0.1150 
    139 H139        0.0903  -20.5036  -49.5485 H         1 UNK         0.0800 
    140 H140        1.4662  -19.4825  -49.9020 H         1 UNK         0.0800 
    141 H141        1.7437  -21.9176  -48.4101 H         1 UNK         0.0800 
    142 H142        2.5188  -21.5953  -46.8919 H         1 UNK         0.0800 
    143 H143        0.9416  -23.3516  -46.5650 H         1 UNK         0.0600 
    144 H144        0.2966  -20.8716  -45.1585 H         1 UNK         0.3000 
    145 H145       -0.9950  -22.7004  -42.3273 H         1 UNK         0.0600 
    146 H146        0.6178  -21.1545  -41.2681 H         1 UNK         0.0600 
    147 H147        1.4837  -22.4128  -42.1364 H         1 UNK         0.0600 
    148 H148        1.3572  -20.8000  -42.8272 H         1 UNK         0.0600 
    149 H149       -0.9575  -19.9067  -42.8808 H         1 UNK         0.3000 
    150 H150       -4.1743  -19.6334  -44.3470 H         1 UNK         0.0600 
    151 H151       -4.7459  -20.1033  -41.9589 H         1 UNK         0.0600 
    152 H152       -4.7522  -18.3815  -42.3023 H         1 UNK         0.0600 
    153 H153       -3.3962  -19.1034  -41.4346 H         1 UNK         0.0600 
    154 H154       -2.6402  -17.5794  -43.3008 H         1 UNK         0.3000 
    155 H155       -1.4779  -16.5398  -46.2237 H         1 UNK         0.0600 
    156 H156       -0.9853  -14.8611  -44.4655 H         1 UNK         0.0600 
    157 H157       -1.1212  -16.0801  -43.2066 H         1 UNK         0.0600 
    158 H158       -2.5332  -15.6175  -44.1605 H         1 UNK         0.0600 
    159 H159        0.7088  -16.7490  -46.2591 H         1 UNK         0.3000 
    160 H160        2.8568  -18.6872  -45.2342 H         1 UNK         0.0600 
    161 H161        2.7517  -15.6714  -45.7976 H         1 UNK         0.0600 
    162 H162        2.5335  -16.9749  -46.9663 H         1 UNK         0.0600 
    163 H163        4.0976  -16.7196  -46.2262 H         1 UNK         0.0600 
    164 H164        3.7338  -16.3910  -43.6143 H         1 UNK         0.3000 
    165 H165        4.8385  -18.4472  -40.9199 H         1 UNK         0.0600 
    166 H166        6.3819  -16.7835  -42.9819 H         1 UNK         0.0600 
    167 H167        6.9315  -17.1789  -41.3541 H         1 UNK         0.0600 
    168 H168        6.7237  -18.4544  -42.5449 H         1 UNK         0.0600 
    169 H169        4.3771  -15.6522  -41.9044 H         1 UNK         0.3000 
    170 H170        2.3384  -14.8864  -39.1373 H         1 UNK         0.0600 
    171 H171        4.5608  -14.5068  -38.0644 H         1 UNK         0.0600 
    172 H172        5.1945  -13.8551  -39.5708 H         1 UNK         0.0600 
    173 H173        3.9079  -13.0093  -38.7089 H         1 UNK         0.0600 
    174 H174        3.4978  -13.3247  -41.2694 H         1 UNK         0.3000 
    175 H175        1.3950  -14.3077  -43.8352 H         1 UNK         0.0600 
    176 H176        0.8124  -11.7334  -42.2767 H         1 UNK         0.0600 
    177 H177        0.3525  -12.0622  -43.9444 H         1 UNK         0.0600 
    178 H178       -0.3722  -12.9823  -42.6410 H         1 UNK         0.0600 
    179 H179        2.8181  -11.9227  -43.7857 H         1 UNK         0.3000 
    180 H180        5.5246  -11.9658  -43.6386 H         1 UNK         0.0600 
    181 H181        6.1091  -14.1560  -45.7087 H         1 UNK         0.0600 
    182 H182        6.8440  -14.0174  -44.1149 H         1 UNK         0.0600 
    183 H183        7.1706  -12.7983  -45.3359 H         1 UNK         0.0600 
    184 H184        3.9935  -12.3343  -46.1497 H         1 UNK         0.3000 
    185 H185        3.8963   -8.8932  -46.6855 H         1 UNK         0.0600 
    186 H186        5.9960   -9.3225  -47.9735 H         1 UNK         0.0600 
    187 H187        5.3370  -10.8435  -48.5628 H         1 UNK         0.0600 
    188 H188        4.5929   -9.3127  -49.0284 H         1 UNK         0.0600 
    189 H189        2.8730  -10.9801  -48.2871 H         1 UNK         0.3000 
    190 H190       -1.6712  -20.9099  -46.6081 H         1 UNK         0.3000 
    191 H191       -2.9703  -21.7748  -48.9484 H         1 UNK         0.0600 
    192 H192       -4.9528  -20.6345  -48.0241 H         1 UNK         0.0600 
    193 H193       -3.5198  -19.6667  -47.7105 H         1 UNK         0.0600 
    194 H194       -4.2400  -20.6193  -46.4175 H         1 UNK         0.0600 
    195 H195       -3.2848  -23.0053  -45.5784 H         1 UNK         0.3000 
    196 H196       -5.3305  -24.9083  -46.0955 H         1 UNK         0.0600 
    197 H197       -4.5446  -25.9160  -43.9307 H         1 UNK         0.0600 
    198 H198       -4.7660  -24.1779  -43.8131 H         1 UNK         0.0600 
    199 H199       -3.1425  -24.8506  -43.9502 H         1 UNK         0.0600 
    200 H200       -1.7637  -25.1707  -46.2608 H         1 UNK         0.3000 
    201 H201       -1.6622  -27.9717  -46.8596 H         1 UNK         0.0600 
    202 H202        0.2679  -26.7051  -45.9260 H         1 UNK         0.0600 
    203 H203        0.3834  -25.7528  -47.4041 H         1 UNK         0.0600 
    204 H204        0.7043  -27.4812  -47.4414 H         1 UNK         0.0600 
    205 H205       -1.7397  -25.0398  -48.8883 H         1 UNK         0.3000 
    206 H206       -1.6032  -26.3837  -51.4320 H         1 UNK         0.0600 
    207 H207       -0.8672  -24.0358  -51.0909 H         1 UNK         0.0600 
    208 H208       -2.1794  -24.0702  -52.2547 H         1 UNK         0.0600 
    209 H209       -2.4956  -23.5638  -50.6081 H         1 UNK         0.0600 
    210 H210       -4.1344  -26.0948  -49.1870 H         1 UNK         0.3000 
    211 H211       -6.3307  -26.2968  -49.1024 H         1 UNK         0.0600 
    212 H212       -6.1383  -27.7921  -51.7749 H         1 UNK         0.0600 
    213 H213       -7.4714  -27.8707  -50.6305 H         1 UNK         0.0600 
    214 H214       -5.9009  -28.5185  -50.1859 H         1 UNK         0.0600 
    215 H215       -5.3269  -23.9268  -50.0383 H         1 UNK         0.3000 
    216 H216       -5.6092  -21.9837  -50.9853 H         1 UNK         0.0600 
    217 H217       -8.5174  -22.7919  -51.5080 H         1 UNK         0.0600 
    218 H218       -7.8774  -21.1577  -51.5582 H         1 UNK         0.0600 
    219 H219       -7.8991  -22.0385  -50.0389 H         1 UNK         0.0600 
    220 H220       -6.9593  -24.5108  -53.0510 H         1 UNK         0.3000 
    221 H221       -7.0419  -23.2230  -55.5033 H         1 UNK         0.0600 
    222 H222       -6.5806  -26.1886  -54.8851 H         1 UNK         0.0600 
    223 H223       -8.1399  -25.3820  -55.0401 H         1 UNK         0.0600 
    224 H224       -7.0963  -25.5508  -56.4435 H         1 UNK         0.0600 
    225 H225       -4.2539  -25.1340  -54.1885 H         1 UNK         0.3000 
    226 H226       -2.6993  -24.8032  -56.6002 H         1 UNK         0.0600 
    227 H227       -2.4294  -26.7526  -55.0772 H         1 UNK         0.0600 
    228 H228       -0.9118  -25.9025  -55.3216 H         1 UNK         0.0600 
    229 H229       -1.7945  -25.6973  -53.8198 H         1 UNK         0.0600 
    230 H230       -3.2692  -22.7212  -53.9172 H         1 UNK         0.3000 
    231 H231       -0.8772  -21.0309  -54.3950 H         1 UNK         0.0600 
    232 H232       -3.1576  -20.8222  -52.3547 H         1 UNK         0.0600 
    233 H233       -1.5420  -21.4579  -52.0407 H         1 UNK         0.0600 
    234 H234       -1.7567  -19.7642  -52.4421 H         1 UNK         0.0600 
    235 H235       -3.9402  -21.4763  -55.7102 H         1 UNK         0.3000 
    236 H236       -5.3530  -20.4101  -56.9921 H         1 UNK         0.0600 
    237 H237       -3.3336  -19.7282  -58.3167 H         1 UNK         0.0600 
    238 H238       -4.6408  -18.5626  -58.4356 H         1 UNK         0.0600 
    239 H239       -3.2570  -18.2173  -57.4102 H         1 UNK         0.0600 
    240 H240       -5.4408  -20.0106  -54.1487 H         1 UNK         0.3000 
    241 H241       -6.5318  -17.2795  -53.7825 H         1 UNK         0.0600 
    242 H242       -7.8817  -20.2209  -54.8295 H         1 UNK         0.3800 
    243 H243       -9.4957  -19.9363  -54.2303 H         1 UNK         0.3800 
    244 H244       -6.5502  -17.8494  -51.3618 H         1 UNK         0.0800 
    245 H245       -5.9562  -19.4558  -51.7187 H         1 UNK         0.0800 
    246 H246       -4.3395  -18.6424  -49.7464 H         1 UNK         0.0800 
    247 H247       -4.6057  -16.9147  -49.7829 H         1 UNK         0.0800 
@<TRIPOS>BOND
     1    1    2 1    
     2    1  127 1    
     3    1  128 1    
     4    1  129 1    
     5    2    3 2    
     6    2    4 am   BACKBONE|DICT|INTERRES
     7    4    5 1    
     8    4  130 1    
     9    5    6 1    
    10    5   65 1    
    11    5  131 1    
    12    6    7 1    
    13    6  132 1    
    14    6  133 1    
    15    7    8 1    
    16    8    9 1    
    17    8  134 1    
    18    8  135 1    
    19    9   10 ar   
    20    9   14 ar   
    21   10   11 ar   
    22   10  136 1    
    23   11   12 ar   
    24   11  126 1    
    25   12   13 ar   
    26   12  137 1    
    27   13   14 ar   
    28   13   15 1    
    29   14  138 1    
    30   15   16 1    
    31   15  139 1    
    32   15  140 1    
    33   16   17 1    
    34   17   18 1    
    35   17  141 1    
    36   17  142 1    
    37   18   19 1    
    38   18   67 1    
    39   18  143 1    
    40   19   20 am   BACKBONE|DICT|INTERRES
    41   19  144 1    
    42   20   21 2    
    43   20   22 1    
    44   22   23 1    
    45   22   24 1    
    46   22  145 1    
    47   23  146 1    
    48   23  147 1    
    49   23  148 1    
    50   24   25 am   BACKBONE|DICT|INTERRES
    51   24  149 1    
    52   25   26 2    
    53   25   27 1    
    54   27   28 1    
    55   27   29 1    
    56   27  150 1    
    57   28  151 1    
    58   28  152 1    
    59   28  153 1    
    60   29   30 am   BACKBONE|DICT|INTERRES
    61   29  154 1    
    62   30   31 2    
    63   30   32 1    
    64   32   33 1    
    65   32   34 1    
    66   32  155 1    
    67   33  156 1    
    68   33  157 1    
    69   33  158 1    
    70   34   35 am   BACKBONE|DICT|INTERRES
    71   34  159 1    
    72   35   36 2    
    73   35   37 1    
    74   37   38 1    
    75   37   39 1    
    76   37  160 1    
    77   38  161 1    
    78   38  162 1    
    79   38  163 1    
    80   39   40 am   BACKBONE|DICT|INTERRES
    81   39  164 1    
    82   40   41 2    
    83   40   42 1    
    84   42   43 1    
    85   42   44 1    
    86   42  165 1    
    87   43  166 1    
    88   43  167 1    
    89   43  168 1    
    90   44   45 am   BACKBONE|DICT|INTERRES
    91   44  169 1    
    92   45   46 2    
    93   45   47 1    
    94   47   48 1    
    95   47   49 1    
    96   47  170 1    
    97   48  171 1    
    98   48  172 1    
    99   48  173 1    
   100   49   50 am   BACKBONE|DICT|INTERRES
   101   49  174 1    
   102   50   51 2    
   103   50   52 1    
   104   52   53 1    
   105   52   54 1    
   106   52  175 1    
   107   53  176 1    
   108   53  177 1    
   109   53  178 1    
   110   54   55 am   BACKBONE|DICT|INTERRES
   111   54  179 1    
   112   55   56 2    
   113   55   57 1    
   114   57   58 1    
   115   57   59 1    
   116   57  180 1    
   117   58  181 1    
   118   58  182 1    
   119   58  183 1    
   120   59   60 am   BACKBONE|DICT|INTERRES
   121   59  184 1    
   122   60   61 2    
   123   60   62 1    
   124   62   63 1    
   125   62   64 1    
   126   62  185 1    
   127   63  186 1    
   128   63  187 1    
   129   63  188 1    
   130   64   65 am   BACKBONE|DICT|INTERRES
   131   64  189 1    
   132   65   66 2    
   133   67   68 2    
   134   67   69 am   BACKBONE|DICT|INTERRES
   135   69   70 1    
   136   69  190 1    
   137   70   71 1    
   138   70   72 1    
   139   70  191 1    
   140   71  192 1    
   141   71  193 1    
   142   71  194 1    
   143   72   73 2    
   144   72   74 am   BACKBONE|DICT|INTERRES
   145   74   75 1    
   146   74  195 1    
   147   75   76 1    
   148   75   77 1    
   149   75  196 1    
   150   76  197 1    
   151   76  198 1    
   152   76  199 1    
   153   77   78 2    
   154   77   79 am   BACKBONE|DICT|INTERRES
   155   79   80 1    
   156   79  200 1    
   157   80   81 1    
   158   80   82 1    
   159   80  201 1    
   160   81  202 1    
   161   81  203 1    
   162   81  204 1    
   163   82   83 2    
   164   82   84 am   BACKBONE|DICT|INTERRES
   165   84   85 1    
   166   84  205 1    
   167   85   86 1    
   168   85   87 1    
   169   85  206 1    
   170   86  207 1    
   171   86  208 1    
   172   86  209 1    
   173   87   88 2    
   174   87   89 am   BACKBONE|DICT|INTERRES
   175   89   90 1    
   176   89  210 1    
   177   90   91 1    
   178   90   92 1    
   179   90  211 1    
   180   91  212 1    
   181   91  213 1    
   182   91  214 1    
   183   92   93 2    
   184   92   94 am   BACKBONE|DICT|INTERRES
   185   94   95 1    
   186   94  215 1    
   187   95   96 1    
   188   95   97 1    
   189   95  216 1    
   190   96  217 1    
   191   96  218 1    
   192   96  219 1    
   193   97   98 2    
   194   97   99 am   BACKBONE|DICT|INTERRES
   195   99  100 1    
   196   99  220 1    
   197  100  101 1    
   198  100  102 1    
   199  100  221 1    
   200  101  222 1    
   201  101  223 1    
   202  101  224 1    
   203  102  103 2    
   204  102  104 am   BACKBONE|DICT|INTERRES
   205  104  105 1    
   206  104  225 1    
   207  105  106 1    
   208  105  107 1    
   209  105  226 1    
   210  106  227 1    
   211  106  228 1    
   212  106  229 1    
   213  107  108 2    
   214  107  109 am   BACKBONE|DICT|INTERRES
   215  109  110 1    
   216  109  230 1    
   217  110  111 1    
   218  110  112 1    
   219  110  231 1    
   220  111  232 1    
   221  111  233 1    
   222  111  234 1    
   223  112  113 2    
   224  112  114 am   BACKBONE|DICT|INTERRES
   225  114  115 1    
   226  114  235 1    
   227  115  116 1    
   228  115  117 1    
   229  115  236 1    
   230  116  237 1    
   231  116  238 1    
   232  116  239 1    
   233  117  118 2    
   234  117  119 am   BACKBONE|DICT|INTERRES
   235  119  120 1    
   236  119  240 1    
   237  120  121 1    
   238  120  124 1    
   239  120  241 1    
   240  121  122 am   BACKBONE|DICT|INTERRES
   241  121  123 2    
   242  122  242 1    
   243  122  243 1    
   244  124  125 1    
   245  124  244 1    
   246  124  245 1    
   247  125  126 1    
   248  126  246 1    
   249  126  247 1    
@<TRIPOS>SUBSTRUCTURE
     1 UNK         1 GROUP             0       ****    0 ROOT    
