@<TRIPOS>MOLECULE
3R540
247   249    1
SMALL
USER_CHARGES


@<TRIPOS>ATOM
      1 CA         -1.1205  -17.0921  -48.5814 C.3       0 UNK        -0.1800 
      2 C          -1.0469  -15.5752  -48.6478 C.2       0 UNK         0.5000 
      3 O          -1.8639  -14.8984  -48.0253 O.2       0 UNK        -0.5000 
      4 N          -0.0853  -15.0393  -49.4120 N.am      1 UNK        -0.5000 
      5 CA          0.0623  -13.5993  -49.6597 C.3       1 UNK         0.1400 
      6 C6          0.7872  -13.3219  -51.0033 C.3       23 UNK        -0.0398 
      7 S7          2.5866  -13.6617  -51.0017 S.3       23 UNK        -0.2404 
      8 C8          2.7763  -14.8477  -52.3667 C.3       23 UNK        -0.0205 
      9 C9          2.4559  -16.2732  -51.9453 C.ar      23 UNK        -0.0193 
     10 C10         1.3731  -16.9532  -52.5107 C.ar      23 UNK        -0.1150 
     11 C11         1.1216  -18.2863  -52.1731 C.ar      23 UNK        -0.0193 
     12 C12         1.9581  -18.9349  -51.2622 C.ar      23 UNK        -0.1150 
     13 C13         3.0297  -18.2592  -50.6719 C.ar      23 UNK        -0.0193 
     14 C14         3.2775  -16.9302  -51.0231 C.ar      23 UNK        -0.1150 
     15 C15         3.9226  -18.9728  -49.6653 C.3       23 UNK        -0.0205 
     16 S16         3.5063  -18.5667  -47.9353 S.3       23 UNK        -0.2404 
     17 C17         1.7674  -19.1016  -47.8327 C.3       23 UNK        -0.0398 
     18 CA          1.6055  -20.6124  -47.5395 C.3       11 UNK         0.1400 
     19 N           1.7322  -20.8948  -46.1091 N.am      11 UNK        -0.5000 
     20 C           1.8314  -22.1115  -45.5593 C.2       10 UNK         0.5000 
     21 O           1.8642  -23.1581  -46.2071 O.2       10 UNK        -0.5000 
     22 CA          1.8921  -22.1655  -44.0210 C.3       10 UNK         0.1400 
     23 CB          3.3104  -21.8634  -43.5131 C.3       10 UNK        -0.1800 
     24 N           0.9408  -21.2435  -43.3991 N.am      10 UNK        -0.5000 
     25 C          -0.3879  -21.4226  -43.4016 C.2       9 UNK         0.5000 
     26 O          -0.9406  -22.4226  -43.8597 O.2       9 UNK        -0.5000 
     27 CA         -1.2499  -20.2926  -42.8070 C.3       9 UNK         0.1400 
     28 CB         -1.4097  -20.4788  -41.2907 C.3       9 UNK        -0.1800 
     29 N          -0.7273  -18.9526  -43.0808 N.am      9 UNK        -0.5000 
     30 C          -0.6009  -18.4202  -44.3044 C.2       8 UNK         0.5000 
     31 O          -0.9216  -19.0002  -45.3384 O.2       8 UNK        -0.5000 
     32 CA          0.0556  -17.0336  -44.4011 C.3       8 UNK         0.1400 
     33 CB         -0.9391  -15.9274  -44.0259 C.3       8 UNK        -0.1800 
     34 N           1.2578  -16.9267  -43.5768 N.am      8 UNK        -0.5000 
     35 C           2.3483  -17.6945  -43.7159 C.2       7 UNK         0.5000 
     36 O           2.4648  -18.5708  -44.5704 O.2       7 UNK        -0.5000 
     37 CA          3.4725  -17.4878  -42.6903 C.3       7 UNK         0.1400 
     38 CB          4.3160  -16.2532  -43.0383 C.3       7 UNK        -0.1800 
     39 N           2.9406  -17.3606  -41.3349 N.am      7 UNK        -0.5000 
     40 C           2.3870  -18.3692  -40.6467 C.2       6 UNK         0.5000 
     41 O           2.3146  -19.5260  -41.0627 O.2       6 UNK        -0.5000 
     42 CA          1.7783  -18.0106  -39.2791 C.3       6 UNK         0.1400 
     43 CB          2.8638  -17.9755  -38.1930 C.3       6 UNK        -0.1800 
     44 N           1.0678  -16.7301  -39.2990 N.am      6 UNK        -0.5000 
     45 C          -0.0610  -16.5067  -39.9862 C.2       5 UNK         0.5000 
     46 O          -0.6279  -17.3612  -40.6657 O.2       5 UNK        -0.5000 
     47 CA         -0.6342  -15.0793  -39.9364 C.3       5 UNK         0.1400 
     48 CB         -1.5178  -14.8962  -38.6936 C.3       5 UNK        -0.1800 
     49 N           0.3860  -14.0274  -39.9673 N.am      5 UNK        -0.5000 
     50 C           1.2493  -13.8307  -40.9718 C.2       4 UNK         0.5000 
     51 O           1.3531  -14.5773  -41.9470 O.2       4 UNK        -0.5000 
     52 CA          2.1690  -12.6056  -40.8633 C.3       4 UNK         0.1400 
     53 CB          3.6193  -13.0333  -40.5906 C.3       4 UNK        -0.1800 
     54 N           2.1163  -11.8297  -42.1002 N.am      4 UNK        -0.5000 
     55 C           1.1179  -10.9986  -42.4298 C.2       3 UNK         0.5000 
     56 O           0.1701  -10.7410  -41.6862 O.2       3 UNK        -0.5000 
     57 CA          1.1910  -10.3370  -43.8188 C.3       3 UNK         0.1400 
     58 CB          1.9427   -8.9992  -43.7376 C.3       3 UNK        -0.1800 
     59 N           1.8353  -11.1892  -44.8205 N.am      3 UNK        -0.5000 
     60 C           1.2360  -12.2227  -45.4257 C.2       2 UNK         0.5000 
     61 O           0.0717  -12.5642  -45.2089 O.2       2 UNK        -0.5000 
     62 CA          2.1041  -13.0175  -46.4204 C.3       2 UNK         0.1400 
     63 CB          2.8093  -14.1780  -45.7031 C.3       2 UNK        -0.1800 
     64 N           1.3493  -13.5550  -47.5527 N.am      2 UNK        -0.5000 
     65 C           0.7054  -12.8299  -48.4795 C.2       1 UNK         0.5000 
     66 O           0.6385  -11.5994  -48.4584 O.2       1 UNK        -0.5000 
     67 C           0.2768  -21.1306  -48.1298 C.2       11 UNK         0.5000 
     68 O           0.2857  -21.7439  -49.1987 O.2       11 UNK        -0.5000 
     69 N          -0.8396  -20.8602  -47.4424 N.am      12 UNK        -0.5000 
     70 CA         -2.1967  -21.1977  -47.8633 C.3       12 UNK         0.1400 
     71 CB         -3.1883  -20.2880  -47.1156 C.3       12 UNK        -0.1800 
     72 C          -2.5085  -22.6932  -47.6614 C.2       12 UNK         0.5000 
     73 O          -3.2882  -23.0501  -46.7760 O.2       12 UNK        -0.5000 
     74 N          -1.9126  -23.5407  -48.5094 N.am      13 UNK        -0.5000 
     75 CA         -2.1116  -24.9904  -48.5718 C.3       13 UNK         0.1400 
     76 CB         -1.2490  -25.5592  -49.7087 C.3       13 UNK        -0.1800 
     77 C          -3.5948  -25.3631  -48.7656 C.2       13 UNK         0.5000 
     78 O          -4.1667  -25.0520  -49.8130 O.2       13 UNK        -0.5000 
     79 N          -4.1958  -25.9643  -47.7283 N.am      14 UNK        -0.5000 
     80 CA         -5.6213  -26.2988  -47.6065 C.3       14 UNK         0.1400 
     81 CB         -6.0127  -27.3975  -48.6178 C.3       14 UNK        -0.1800 
     82 C          -6.5277  -25.0516  -47.7000 C.2       14 UNK         0.5000 
     83 O          -7.5258  -25.0671  -48.4186 O.2       14 UNK        -0.5000 
     84 N          -6.1253  -23.9656  -47.0209 N.am      15 UNK        -0.5000 
     85 CA         -6.7157  -22.6190  -47.0924 C.3       15 UNK         0.1400 
     86 CB         -8.1603  -22.6047  -46.5502 C.3       15 UNK        -0.1800 
     87 C          -6.5873  -22.0005  -48.5032 C.2       15 UNK         0.5000 
     88 O          -7.4584  -21.2511  -48.9446 O.2       15 UNK        -0.5000 
     89 N          -5.4877  -22.3635  -49.1771 N.am      16 UNK        -0.5000 
     90 CA         -5.0780  -22.0448  -50.5460 C.3       16 UNK         0.1400 
     91 CB         -4.9983  -20.5246  -50.7808 C.3       16 UNK        -0.1800 
     92 C          -5.8908  -22.7742  -51.6362 C.2       16 UNK         0.5000 
     93 O          -5.6618  -22.5233  -52.8218 O.2       16 UNK        -0.5000 
     94 N          -6.7911  -23.6869  -51.2403 N.am      17 UNK        -0.5000 
     95 CA         -7.6483  -24.4562  -52.1421 C.3       17 UNK         0.1400 
     96 CB         -8.8256  -25.0496  -51.3550 C.3       17 UNK        -0.1800 
     97 C          -6.9043  -25.5652  -52.9073 C.2       17 UNK         0.5000 
     98 O          -7.4269  -26.0375  -53.9178 O.2       17 UNK        -0.5000 
     99 N          -5.6976  -25.9496  -52.4615 N.am      18 UNK        -0.5000 
    100 CA        -4.8334  -26.9473  -53.1064 C.3       18 UNK         0.1400 
    101 CB        -3.8389  -27.4943  -52.0670 C.3       18 UNK        -0.1800 
    102 C         -4.1257  -26.3994  -54.3694 C.2       18 UNK         0.5000 
    103 O         -2.9149  -26.5663  -54.5228 O.2       18 UNK        -0.5000 
    104 N         -4.8969  -25.7259  -55.2359 N.am      19 UNK        -0.5000 
    105 CA        -4.5088  -25.0509  -56.4811 C.3       19 UNK         0.1400 
    106 CB        -4.0265  -26.0790  -57.5254 C.3       19 UNK        -0.1800 
    107 C         -3.5057  -23.8898  -56.2927 C.2       19 UNK         0.5000 
    108 O         -2.8815  -23.4629  -57.2657 O.2       19 UNK        -0.5000 
    109 N         -3.3627  -23.3967  -55.0556 N.am      20 UNK        -0.5000 
    110 CA        -2.4155  -22.3478  -54.6892 C.3       20 UNK         0.1400 
    111 CB        -2.0384  -22.5108  -53.2092 C.3       20 UNK        -0.1800 
    112 C         -2.9842  -20.9489  -54.9786 C.2       20 UNK         0.5000 
    113 O         -2.2799  -20.1202  -55.5575 O.2       20 UNK        -0.5000 
    114 N         -4.2502  -20.7274  -54.5886 N.am      21 UNK        -0.5000 
    115 CA        -5.0637  -19.5091  -54.7121 C.3       21 UNK         0.1400 
    116 CB        -5.3039  -19.1411  -56.1888 C.3       21 UNK        -0.1800 
    117 C         -4.5328  -18.3055  -53.9059 C.2       21 UNK         0.5000 
    118 O         -5.2547  -17.7758  -53.0613 O.2       21 UNK        -0.5000 
    119 N         -3.2816  -17.9166  -54.1709 N.am      22 UNK        -0.5000 
    120 CA        -2.4845  -16.9041  -53.4569 C.3       22 UNK         0.1400 
    121 C         -2.9993  -15.4358  -53.5561 C.2       22 UNK         0.5000 
    122 N         -3.9083  -15.1128  -54.4673 N.am      22 UNK        -0.7600 
    123 O         -2.5398  -14.5639  -52.8233 O.2       22 UNK        -0.5000 
    124 C124       -2.1467  -17.3143  -51.9938 C.3       23 UNK        -0.0398 
    125 S125       -1.5314  -19.0256  -51.7860 S.3       23 UNK        -0.2404 
    126 C126       -0.0264  -19.0487  -52.8130 C.3       23 UNK        -0.0205 
    127 H127       -0.4741  -17.5537  -49.3257 H         1 UNK         0.0600 
    128 H128       -2.1395  -17.4258  -48.7765 H         1 UNK         0.0600 
    129 H129       -0.8312  -17.4447  -47.5930 H         1 UNK         0.0600 
    130 H130        0.5745  -15.6349  -49.8933 H         1 UNK         0.3000 
    131 H131       -0.9443  -13.1886  -49.7676 H         1 UNK         0.0600 
    132 H132        0.3041  -13.8877  -51.8015 H         1 UNK         0.0800 
    133 H133        0.6556  -12.2737  -51.2764 H         1 UNK         0.0800 
    134 H134        2.1659  -14.5363  -53.2158 H         1 UNK         0.0800 
    135 H135        3.8106  -14.8137  -52.7119 H         1 UNK         0.0800 
    136 H136        0.7411  -16.4528  -53.2302 H         1 UNK         0.1150 
    137 H137        1.7643  -19.9668  -51.0029 H         1 UNK         0.1150 
    138 H138        4.1142  -16.4066  -50.5818 H         1 UNK         0.1150 
    139 H139        3.8651  -20.0533  -49.8047 H         1 UNK         0.0800 
    140 H140        4.9632  -18.7011  -49.8482 H         1 UNK         0.0800 
    141 H141        1.2681  -18.8162  -48.7536 H         1 UNK         0.0800 
    142 H142        1.2794  -18.5108  -47.0576 H         1 UNK         0.0800 
    143 H143        2.4019  -21.1554  -48.0525 H         1 UNK         0.0600 
    144 H144        1.7882  -20.0833  -45.4987 H         1 UNK         0.3000 
    145 H145        1.6352  -23.1811  -43.7123 H         1 UNK         0.0600 
    146 H146        3.3674  -21.9543  -42.4282 H         1 UNK         0.0600 
    147 H147        4.0329  -22.5615  -43.9374 H         1 UNK         0.0600 
    148 H148        3.6319  -20.8566  -43.7799 H         1 UNK         0.0600 
    149 H149        1.3221  -20.4066  -42.9763 H         1 UNK         0.3000 
    150 H150       -2.2392  -20.3606  -43.2643 H         1 UNK         0.0600 
    151 H151       -1.8012  -21.4694  -41.0559 H         1 UNK         0.0600 
    152 H152       -2.1043  -19.7484  -40.8755 H         1 UNK         0.0600 
    153 H153       -0.4574  -20.3682  -40.7706 H         1 UNK         0.0600 
    154 H154       -0.4775  -18.3902  -42.2715 H         1 UNK         0.3000 
    155 H155        0.3573  -16.8757  -45.4380 H         1 UNK         0.0600 
    156 H156       -1.8035  -15.9402  -44.6909 H         1 UNK         0.0600 
    157 H157       -0.4810  -14.9423  -44.1073 H         1 UNK         0.0600 
    158 H158       -1.3054  -16.0414  -43.0061 H         1 UNK         0.0600 
    159 H159        1.2593  -16.1959  -42.8689 H         1 UNK         0.3000 
    160 H160        4.1236  -18.3641  -42.7238 H         1 UNK         0.0600 
    161 H161        3.7201  -15.3417  -43.0203 H         1 UNK         0.0600 
    162 H162        4.7440  -16.3441  -44.0375 H         1 UNK         0.0600 
    163 H163        5.1428  -16.1289  -42.3390 H         1 UNK         0.0600 
    164 H164        2.9086  -16.4314  -40.9432 H         1 UNK         0.3000 
    165 H165        1.0614  -18.7928  -39.0199 H         1 UNK         0.0600 
    166 H166        2.4303  -17.8002  -37.2082 H         1 UNK         0.0600 
    167 H167        3.3995  -18.9247  -38.1467 H         1 UNK         0.0600 
    168 H168        3.5992  -17.1922  -38.3809 H         1 UNK         0.0600 
    169 H169        1.4691  -15.9714  -38.7679 H         1 UNK         0.3000 
    170 H170       -1.2635  -14.9495  -40.8189 H         1 UNK         0.0600 
    171 H171       -2.2999  -15.6559  -38.6552 H         1 UNK         0.0600 
    172 H172       -0.9395  -14.9735  -37.7720 H         1 UNK         0.0600 
    173 H173       -2.0118  -13.9244  -38.7002 H         1 UNK         0.0600 
    174 H174        0.3719  -13.3698  -39.2010 H         1 UNK         0.3000 
    175 H175        1.8377  -11.9768  -40.0340 H         1 UNK         0.0600 
    176 H176        4.0276  -13.6303  -41.4058 H         1 UNK         0.0600 
    177 H177        4.2654  -12.1654  -40.4582 H         1 UNK         0.0600 
    178 H178        3.6869  -13.6298  -39.6799 H         1 UNK         0.0600 
    179 H179        2.8309  -12.0212  -42.7854 H         1 UNK         0.3000 
    180 H180        0.1682  -10.1295  -44.1414 H         1 UNK         0.0600 
    181 H181        2.9802   -9.1363  -43.4302 H         1 UNK         0.0600 
    182 H182        1.4722   -8.3307  -43.0153 H         1 UNK         0.0600 
    183 H183        1.9417   -8.4873  -44.7002 H         1 UNK         0.0600 
    184 H184        2.7916  -10.9653  -45.0557 H         1 UNK         0.3000 
    185 H185        2.8656  -12.3489  -46.8273 H         1 UNK         0.0600 
    186 H186        3.4348  -13.8101  -44.8894 H         1 UNK         0.0600 
    187 H187        2.0901  -14.8754  -45.2745 H         1 UNK         0.0600 
    188 H188        3.4549  -14.7353  -46.3823 H         1 UNK         0.0600 
    189 H189        1.3301  -14.5585  -47.6475 H         1 UNK         0.3000 
    190 H190       -0.7683  -20.3257  -46.5783 H         1 UNK         0.3000 
    191 H191       -2.2929  -20.9802  -48.9294 H         1 UNK         0.0600 
    192 H192       -2.9747  -19.2357  -47.3004 H         1 UNK         0.0600 
    193 H193       -4.2124  -20.4687  -47.4387 H         1 UNK         0.0600 
    194 H194       -3.1498  -20.4505  -46.0376 H         1 UNK         0.0600 
    195 H195       -1.2375  -23.1487  -49.1568 H         1 UNK         0.3000 
    196 H196       -1.7580  -25.4148  -47.6302 H         1 UNK         0.0600 
    197 H197       -1.3734  -26.6396  -49.7918 H         1 UNK         0.0600 
    198 H198       -0.1903  -25.3661  -49.5341 H         1 UNK         0.0600 
    199 H199       -1.5134  -25.1216  -50.6724 H         1 UNK         0.0600 
    200 H200       -3.6421  -26.1458  -46.9025 H         1 UNK         0.3000 
    201 H201       -5.7612  -26.7062  -46.6044 H         1 UNK         0.0600 
    202 H202       -5.3413  -28.2536  -48.5533 H         1 UNK         0.0600 
    203 H203       -5.9925  -27.0302  -49.6440 H         1 UNK         0.0600 
    204 H204       -7.0227  -27.7610  -48.4251 H         1 UNK         0.0600 
    205 H205       -5.2495  -24.0198  -46.5126 H         1 UNK         0.3000 
    206 H206       -6.1138  -21.9915  -46.4335 H         1 UNK         0.0600 
    207 H207       -8.2149  -23.0605  -45.5617 H         1 UNK         0.0600 
    208 H208       -8.5298  -21.5829  -46.4564 H         1 UNK         0.0600 
    209 H209       -8.8487  -23.1387  -47.2055 H         1 UNK         0.0600 
    210 H210       -4.8975  -23.0446  -48.7191 H         1 UNK         0.3000 
    211 H211       -4.0636  -22.4345  -50.6253 H         1 UNK         0.0600 
    212 H212       -5.9866  -20.0690  -50.8461 H         1 UNK         0.0600 
    213 H213       -4.4777  -20.3068  -51.7124 H         1 UNK         0.0600 
    214 H214       -4.4476  -20.0238  -49.9852 H         1 UNK         0.0600 
    215 H215       -6.8988  -23.8733  -50.2513 H         1 UNK         0.3000 
    216 H216       -8.0560  -23.7660  -52.8836 H         1 UNK         0.0600 
    217 H217       -9.5666  -25.4780  -52.0309 H         1 UNK         0.0600 
    218 H218       -9.3303  -24.2902  -50.7572 H         1 UNK         0.0600 
    219 H219       -8.5009  -25.8469  -50.6861 H         1 UNK         0.0600 
    220 H220       -5.3242  -25.5058  -51.6296 H         1 UNK         0.3000 
    221 H221       -5.4566  -27.7825  -53.4322 H         1 UNK         0.0600 
    222 H222       -3.1541  -26.7186  -51.7252 H         1 UNK         0.0600 
    223 H223       -4.3542  -27.8965  -51.1954 H         1 UNK         0.0600 
    224 H224       -3.2373  -28.3019  -52.4857 H         1 UNK         0.0600 
    225 H225       -5.8843  -25.6720  -55.0012 H         1 UNK         0.3000 
    226 H226       -5.4205  -24.5937  -56.8681 H         1 UNK         0.0600 
    227 H227       -4.7539  -26.8802  -57.6552 H         1 UNK         0.0600 
    228 H228       -3.8848  -25.6122  -58.5008 H         1 UNK         0.0600 
    229 H229       -3.0764  -26.5310  -57.2392 H         1 UNK         0.0600 
    230 H230       -3.9386  -23.7745  -54.3175 H         1 UNK         0.3000 
    231 H231       -1.5040  -22.4719  -55.2782 H         1 UNK         0.0600 
    232 H232       -2.8806  -22.3021  -52.5537 H         1 UNK         0.0600 
    233 H233       -1.2350  -21.8303  -52.9338 H         1 UNK         0.0600 
    234 H234       -1.6901  -23.5220  -52.9970 H         1 UNK         0.0600 
    235 H235       -4.7159  -21.4794  -54.0859 H         1 UNK         0.3000 
    236 H236       -6.0330  -19.7665  -54.2818 H         1 UNK         0.0600 
    237 H237       -5.7616  -19.9697  -56.7292 H         1 UNK         0.0600 
    238 H238       -5.9777  -18.2876  -56.2715 H         1 UNK         0.0600 
    239 H239       -4.3797  -18.8774  -56.7035 H         1 UNK         0.0600 
    240 H240       -2.7747  -18.4743  -54.8536 H         1 UNK         0.3000 
    241 H241       -1.5442  -16.8656  -54.0038 H         1 UNK         0.0600 
    242 H242       -4.2272  -14.1591  -54.5348 H         1 UNK         0.3800 
    243 H243       -4.2904  -15.8159  -55.0789 H         1 UNK         0.3800 
    244 H244       -1.4011  -16.6370  -51.5770 H         1 UNK         0.0800 
    245 H245       -3.0327  -17.2082  -51.3660 H         1 UNK         0.0800 
    246 H246        0.2781  -20.0858  -52.9538 H         1 UNK         0.0800 
    247 H247       -0.2345  -18.6740  -53.8146 H         1 UNK         0.0800 
@<TRIPOS>BOND
     1    1    2 1    
     2    1  127 1    
     3    1  128 1    
     4    1  129 1    
     5    2    3 2    
     6    2    4 am   BACKBONE|DICT|INTERRES
     7    4    5 1    
     8    4  130 1    
     9    5    6 1    
    10    5   65 1    
    11    5  131 1    
    12    6    7 1    
    13    6  132 1    
    14    6  133 1    
    15    7    8 1    
    16    8    9 1    
    17    8  134 1    
    18    8  135 1    
    19    9   10 ar   
    20    9   14 ar   
    21   10   11 ar   
    22   10  136 1    
    23   11   12 ar   
    24   11  126 1    
    25   12   13 ar   
    26   12  137 1    
    27   13   14 ar   
    28   13   15 1    
    29   14  138 1    
    30   15   16 1    
    31   15  139 1    
    32   15  140 1    
    33   16   17 1    
    34   17   18 1    
    35   17  141 1    
    36   17  142 1    
    37   18   19 1    
    38   18   67 1    
    39   18  143 1    
    40   19   20 am   BACKBONE|DICT|INTERRES
    41   19  144 1    
    42   20   21 2    
    43   20   22 1    
    44   22   23 1    
    45   22   24 1    
    46   22  145 1    
    47   23  146 1    
    48   23  147 1    
    49   23  148 1    
    50   24   25 am   BACKBONE|DICT|INTERRES
    51   24  149 1    
    52   25   26 2    
    53   25   27 1    
    54   27   28 1    
    55   27   29 1    
    56   27  150 1    
    57   28  151 1    
    58   28  152 1    
    59   28  153 1    
    60   29   30 am   BACKBONE|DICT|INTERRES
    61   29  154 1    
    62   30   31 2    
    63   30   32 1    
    64   32   33 1    
    65   32   34 1    
    66   32  155 1    
    67   33  156 1    
    68   33  157 1    
    69   33  158 1    
    70   34   35 am   BACKBONE|DICT|INTERRES
    71   34  159 1    
    72   35   36 2    
    73   35   37 1    
    74   37   38 1    
    75   37   39 1    
    76   37  160 1    
    77   38  161 1    
    78   38  162 1    
    79   38  163 1    
    80   39   40 am   BACKBONE|DICT|INTERRES
    81   39  164 1    
    82   40   41 2    
    83   40   42 1    
    84   42   43 1    
    85   42   44 1    
    86   42  165 1    
    87   43  166 1    
    88   43  167 1    
    89   43  168 1    
    90   44   45 am   BACKBONE|DICT|INTERRES
    91   44  169 1    
    92   45   46 2    
    93   45   47 1    
    94   47   48 1    
    95   47   49 1    
    96   47  170 1    
    97   48  171 1    
    98   48  172 1    
    99   48  173 1    
   100   49   50 am   BACKBONE|DICT|INTERRES
   101   49  174 1    
   102   50   51 2    
   103   50   52 1    
   104   52   53 1    
   105   52   54 1    
   106   52  175 1    
   107   53  176 1    
   108   53  177 1    
   109   53  178 1    
   110   54   55 am   BACKBONE|DICT|INTERRES
   111   54  179 1    
   112   55   56 2    
   113   55   57 1    
   114   57   58 1    
   115   57   59 1    
   116   57  180 1    
   117   58  181 1    
   118   58  182 1    
   119   58  183 1    
   120   59   60 am   BACKBONE|DICT|INTERRES
   121   59  184 1    
   122   60   61 2    
   123   60   62 1    
   124   62   63 1    
   125   62   64 1    
   126   62  185 1    
   127   63  186 1    
   128   63  187 1    
   129   63  188 1    
   130   64   65 am   BACKBONE|DICT|INTERRES
   131   64  189 1    
   132   65   66 2    
   133   67   68 2    
   134   67   69 am   BACKBONE|DICT|INTERRES
   135   69   70 1    
   136   69  190 1    
   137   70   71 1    
   138   70   72 1    
   139   70  191 1    
   140   71  192 1    
   141   71  193 1    
   142   71  194 1    
   143   72   73 2    
   144   72   74 am   BACKBONE|DICT|INTERRES
   145   74   75 1    
   146   74  195 1    
   147   75   76 1    
   148   75   77 1    
   149   75  196 1    
   150   76  197 1    
   151   76  198 1    
   152   76  199 1    
   153   77   78 2    
   154   77   79 am   BACKBONE|DICT|INTERRES
   155   79   80 1    
   156   79  200 1    
   157   80   81 1    
   158   80   82 1    
   159   80  201 1    
   160   81  202 1    
   161   81  203 1    
   162   81  204 1    
   163   82   83 2    
   164   82   84 am   BACKBONE|DICT|INTERRES
   165   84   85 1    
   166   84  205 1    
   167   85   86 1    
   168   85   87 1    
   169   85  206 1    
   170   86  207 1    
   171   86  208 1    
   172   86  209 1    
   173   87   88 2    
   174   87   89 am   BACKBONE|DICT|INTERRES
   175   89   90 1    
   176   89  210 1    
   177   90   91 1    
   178   90   92 1    
   179   90  211 1    
   180   91  212 1    
   181   91  213 1    
   182   91  214 1    
   183   92   93 2    
   184   92   94 am   BACKBONE|DICT|INTERRES
   185   94   95 1    
   186   94  215 1    
   187   95   96 1    
   188   95   97 1    
   189   95  216 1    
   190   96  217 1    
   191   96  218 1    
   192   96  219 1    
   193   97   98 2    
   194   97   99 am   BACKBONE|DICT|INTERRES
   195   99  100 1    
   196   99  220 1    
   197  100  101 1    
   198  100  102 1    
   199  100  221 1    
   200  101  222 1    
   201  101  223 1    
   202  101  224 1    
   203  102  103 2    
   204  102  104 am   BACKBONE|DICT|INTERRES
   205  104  105 1    
   206  104  225 1    
   207  105  106 1    
   208  105  107 1    
   209  105  226 1    
   210  106  227 1    
   211  106  228 1    
   212  106  229 1    
   213  107  108 2    
   214  107  109 am   BACKBONE|DICT|INTERRES
   215  109  110 1    
   216  109  230 1    
   217  110  111 1    
   218  110  112 1    
   219  110  231 1    
   220  111  232 1    
   221  111  233 1    
   222  111  234 1    
   223  112  113 2    
   224  112  114 am   BACKBONE|DICT|INTERRES
   225  114  115 1    
   226  114  235 1    
   227  115  116 1    
   228  115  117 1    
   229  115  236 1    
   230  116  237 1    
   231  116  238 1    
   232  116  239 1    
   233  117  118 2    
   234  117  119 am   BACKBONE|DICT|INTERRES
   235  119  120 1    
   236  119  240 1    
   237  120  121 1    
   238  120  124 1    
   239  120  241 1    
   240  121  122 am   BACKBONE|DICT|INTERRES
   241  121  123 2    
   242  122  242 1    
   243  122  243 1    
   244  124  125 1    
   245  124  244 1    
   246  124  245 1    
   247  125  126 1    
   248  126  246 1    
   249  126  247 1    
@<TRIPOS>SUBSTRUCTURE
     1 UNK         1 GROUP             0       ****    0 ROOT    
