@<TRIPOS>MOLECULE
3R540
247   249    1
SMALL
USER_CHARGES


@<TRIPOS>ATOM
      1 CA          3.0938  -14.6562  -45.2931 C.3       0 UNK        -0.1800 
      2 C           1.7302  -14.1201  -45.7017 C.2       0 UNK         0.5000 
      3 O           1.0995  -13.4080  -44.9218 O.2       0 UNK        -0.5000 
      4 N           1.2928  -14.4198  -46.9333 N.am      1 UNK        -0.5000 
      5 CA         -0.0016  -14.0129  -47.5068 C.3       1 UNK         0.1400 
      6 C6         -0.2523  -14.6503  -48.8977 C.3       23 UNK        -0.0398 
      7 S7         -0.1679  -16.4752  -48.9227 S.3       23 UNK        -0.2404 
      8 C8          1.4051  -16.7707  -49.7987 C.3       23 UNK        -0.0205 
      9 C9          1.3841  -18.0725  -50.5884 C.ar      23 UNK        -0.0193 
     10 C10         1.5080  -18.0535  -51.9815 C.ar      23 UNK        -0.1150 
     11 C11         1.5125  -19.2451  -52.7196 C.ar      23 UNK        -0.0193 
     12 C12         1.3852  -20.4596  -52.0358 C.ar      23 UNK        -0.1150 
     13 C13         1.2621  -20.4967  -50.6429 C.ar      23 UNK        -0.0193 
     14 C14         1.2724  -19.2977  -49.9269 C.ar      23 UNK        -0.1150 
     15 C15         1.1608  -21.8319  -49.9151 C.3       23 UNK        -0.0205 
     16 S16        -0.5490  -22.2402  -49.4294 S.3       23 UNK        -0.2404 
     17 C17        -0.6021  -21.6303  -47.7125 C.3       23 UNK        -0.0398 
     18 CA         -0.2716  -22.7501  -46.6957 C.3       11 UNK         0.1400 
     19 N           0.5507  -22.2553  -45.5877 N.am      11 UNK        -0.5000 
     20 C           1.3464  -23.0229  -44.8277 C.2       10 UNK         0.5000 
     21 O           1.3929  -24.2496  -44.9336 O.2       10 UNK        -0.5000 
     22 CA          2.1941  -22.3148  -43.7498 C.3       10 UNK         0.1400 
     23 CB          3.5490  -23.0107  -43.5057 C.3       10 UNK        -0.1800 
     24 N           2.3678  -20.8777  -43.9903 N.am      10 UNK        -0.5000 
     25 C           3.0286  -20.2780  -44.9952 C.2       9 UNK         0.5000 
     26 O           3.6507  -20.8895  -45.8638 O.2       9 UNK        -0.5000 
     27 CA          2.9585  -18.7366  -45.0671 C.3       9 UNK         0.1400 
     28 CB          2.4270  -18.2771  -46.4350 C.3       9 UNK        -0.1800 
     29 N           2.1003  -18.1726  -44.0243 N.am      9 UNK        -0.5000 
     30 C           2.5009  -17.8260  -42.7933 C.2       8 UNK         0.5000 
     31 O           3.6752  -17.8445  -42.4253 O.2       8 UNK        -0.5000 
     32 CA          1.3965  -17.4293  -41.7940 C.3       8 UNK         0.1400 
     33 CB          1.2650  -15.9003  -41.7164 C.3       8 UNK        -0.1800 
     34 N           0.0944  -18.0208  -42.1246 N.am      8 UNK        -0.5000 
     35 C          -0.1952  -19.3271  -42.0036 C.2       7 UNK         0.5000 
     36 O           0.6008  -20.1552  -41.5627 O.2       7 UNK        -0.5000 
     37 CA         -1.5676  -19.8136  -42.5150 C.3       7 UNK         0.1400 
     38 CB         -2.5955  -19.8252  -41.3747 C.3       7 UNK        -0.1800 
     39 N          -2.0901  -19.0135  -43.6216 N.am      7 UNK        -0.5000 
     40 C          -1.5040  -18.8740  -44.8183 C.2       6 UNK         0.5000 
     41 O          -0.5222  -19.5314  -45.1669 O.2       6 UNK        -0.5000 
     42 CA         -2.0666  -17.7816  -45.7547 C.3       6 UNK         0.1400 
     43 CB         -2.8657  -18.4091  -46.9024 C.3       6 UNK        -0.1800 
     44 N          -2.9058  -16.7747  -45.0913 N.am      6 UNK        -0.5000 
     45 C          -2.4963  -15.9521  -44.1171 C.2       5 UNK         0.5000 
     46 O          -1.3692  -15.9996  -43.6211 O.2       5 UNK        -0.5000 
     47 CA         -3.5455  -14.9756  -43.5538 C.3       5 UNK         0.1400 
     48 CB         -4.4637  -15.7006  -42.5568 C.3       5 UNK        -0.1800 
     49 N          -2.9125  -13.8490  -42.8697 N.am      5 UNK        -0.5000 
     50 C          -2.2268  -12.8779  -43.4843 C.2       4 UNK         0.5000 
     51 O          -2.1871  -12.7523  -44.7093 O.2       4 UNK        -0.5000 
     52 CA         -1.4718  -11.8789  -42.5895 C.3       4 UNK         0.1400 
     53 CB         -1.0833  -12.4503  -41.2076 C.3       4 UNK        -0.1800 
     54 N          -0.2757  -11.4267  -43.2913 N.am      4 UNK        -0.5000 
     55 C           0.3577  -10.2682  -43.0828 C.2       3 UNK         0.5000 
     56 O          -0.0142   -9.4188  -42.2717 O.2       3 UNK        -0.5000 
     57 CA          1.6207  -10.0130  -43.9195 C.3       3 UNK         0.1400 
     58 CB          2.8291  -10.7373  -43.3037 C.3       3 UNK        -0.1800 
     59 N           1.4517  -10.4539  -45.3036 N.am      3 UNK        -0.5000 
     60 C           1.0416   -9.6668  -46.3077 C.2       2 UNK         0.5000 
     61 O           0.7357   -8.4825  -46.1624 O.2       2 UNK        -0.5000 
     62 CA          0.9876  -10.2844  -47.7192 C.3       2 UNK         0.1400 
     63 CB          2.2090   -9.8411  -48.5403 C.3       2 UNK        -0.1800 
     64 N           0.9496  -11.7466  -47.6936 N.am      2 UNK        -0.5000 
     65 C          -0.1707  -12.4782  -47.6185 C.2       1 UNK         0.5000 
     66 O          -1.3011  -11.9922  -47.6577 O.2       1 UNK        -0.5000 
     67 C          -1.5404  -23.4867  -46.2178 C.2       11 UNK         0.5000 
     68 O          -2.1897  -24.1567  -47.0205 O.2       11 UNK        -0.5000 
     69 N          -1.8572  -23.3987  -44.9172 N.am      12 UNK        -0.5000 
     70 CA         -2.9403  -24.1307  -44.2546 C.3       12 UNK         0.1400 
     71 CB         -3.0189  -23.6911  -42.7855 C.3       12 UNK        -0.1800 
     72 C          -2.8018  -25.6642  -44.3605 C.2       12 UNK         0.5000 
     73 O          -3.8160  -26.3610  -44.3789 O.2       12 UNK        -0.5000 
     74 N          -1.5625  -26.1579  -44.5074 N.am      13 UNK        -0.5000 
     75 CA         -1.2416  -27.5573  -44.8049 C.3       13 UNK         0.1400 
     76 CB          0.2770  -27.7524  -44.6804 C.3       13 UNK        -0.1800 
     77 C          -1.7321  -28.0208  -46.1948 C.2       13 UNK         0.5000 
     78 O          -1.9562  -29.2157  -46.3886 O.2       13 UNK        -0.5000 
     79 N          -1.9132  -27.0698  -47.1207 N.am      14 UNK        -0.5000 
     80 CA         -2.4874  -27.2577  -48.4531 C.3       14 UNK         0.1400 
     81 CB         -1.5574  -26.5876  -49.4820 C.3       14 UNK        -0.1800 
     82 C          -3.9149  -26.6751  -48.5288 C.2       14 UNK         0.5000 
     83 O          -4.4071  -26.4197  -49.6287 O.2       14 UNK        -0.5000 
     84 N          -4.5405  -26.4212  -47.3662 N.am      15 UNK        -0.5000 
     85 CA         -5.8642  -25.8127  -47.1734 C.3       15 UNK         0.1400 
     86 CB         -6.9692  -26.7729  -47.6601 C.3       15 UNK        -0.1800 
     87 C          -5.9992  -24.3996  -47.7859 C.2       15 UNK         0.5000 
     88 O          -7.1109  -23.9748  -48.1035 O.2       15 UNK        -0.5000 
     89 N          -4.8601  -23.7119  -47.9650 N.am      16 UNK        -0.5000 
     90 CA         -4.6794  -22.4317  -48.6545 C.3       16 UNK         0.1400 
     91 CB         -5.3722  -21.2876  -47.8874 C.3       16 UNK        -0.1800 
     92 C          -5.0541  -22.4632  -50.1536 C.2       16 UNK         0.5000 
     93 O          -5.2281  -21.4021  -50.7538 O.2       16 UNK        -0.5000 
     94 N          -5.1388  -23.6595  -50.7575 N.am      17 UNK        -0.5000 
     95 CA         -5.4828  -23.8413  -52.1698 C.3       17 UNK         0.1400 
     96 CB         -5.7534  -25.3262  -52.4509 C.3       17 UNK        -0.1800 
     97 C          -4.3941  -23.2969  -53.1090 C.2       17 UNK         0.5000 
     98 O          -4.7140  -22.6621  -54.1145 O.2       17 UNK        -0.5000 
     99 N          -3.1244  -23.5080  -52.7351 N.am      18 UNK        -0.5000 
    100 CA        -1.9705  -22.9603  -53.4450 C.3       18 UNK         0.1400 
    101 CB        -0.6907  -23.6806  -52.9985 C.3       18 UNK        -0.1800 
    102 C         -1.8559  -21.4331  -53.2834 C.2       18 UNK         0.5000 
    103 O         -1.4662  -20.7632  -54.2363 O.2       18 UNK        -0.5000 
    104 N         -2.2449  -20.9022  -52.1141 N.am      19 UNK        -0.5000 
    105 CA        -2.3064  -19.4638  -51.8408 C.3       19 UNK         0.1400 
    106 CB        -2.4982  -19.2087  -50.3405 C.3       19 UNK        -0.1800 
    107 C         -3.4017  -18.7606  -52.6598 C.2       19 UNK         0.5000 
    108 O         -3.1743  -17.6545  -53.1488 O.2       19 UNK        -0.5000 
    109 N         -4.5504  -19.4300  -52.8339 N.am      20 UNK        -0.5000 
    110 CA        -5.6344  -18.9958  -53.7148 C.3       20 UNK         0.1400 
    111 CB        -6.8760  -19.8696  -53.4811 C.3       20 UNK        -0.1800 
    112 C         -5.2116  -19.0066  -55.1960 C.2       20 UNK         0.5000 
    113 O         -5.4485  -18.0249  -55.9020 O.2       20 UNK        -0.5000 
    114 N         -4.5382  -20.0857  -55.6253 N.am      21 UNK        -0.5000 
    115 CA        -3.9580  -20.2318  -56.9658 C.3       21 UNK         0.1400 
    116 CB        -3.4312  -21.6635  -57.1418 C.3       21 UNK        -0.1800 
    117 C         -2.8509  -19.2015  -57.2758 C.2       21 UNK         0.5000 
    118 O         -2.6610  -18.8480  -58.4401 O.2       21 UNK        -0.5000 
    119 N         -2.1705  -18.7175  -56.2293 N.am      22 UNK        -0.5000 
    120 CA        -1.2105  -17.6032  -56.2571 C.3       22 UNK         0.1400 
    121 C         -1.8257  -16.2200  -56.6352 C.2       22 UNK         0.5000 
    122 N         -3.1423  -16.0391  -56.6183 N.am      22 UNK        -0.7600 
    123 O         -1.0902  -15.2907  -56.9566 O.2       22 UNK        -0.5000 
    124 C124       -0.4126  -17.5145  -54.9207 C.3       23 UNK        -0.0398 
    125 S125        1.3871  -17.7102  -55.1331 S.3       23 UNK        -0.2404 
    126 C126        1.6934  -19.2796  -54.2421 C.3       23 UNK        -0.0205 
    127 H127        3.6089  -15.1376  -46.1243 H         1 UNK         0.0600 
    128 H128        2.9850  -15.3819  -44.4886 H         1 UNK         0.0600 
    129 H129        3.7226  -13.8421  -44.9327 H         1 UNK         0.0600 
    130 H130        1.8606  -15.0038  -47.5284 H         1 UNK         0.3000 
    131 H131       -0.7774  -14.3684  -46.8247 H         1 UNK         0.0600 
    132 H132       -1.2499  -14.3824  -49.2514 H         1 UNK         0.0800 
    133 H133        0.4378  -14.2377  -49.6350 H         1 UNK         0.0800 
    134 H134        2.2212  -16.8008  -49.0766 H         1 UNK         0.0800 
    135 H135        1.6220  -15.9398  -50.4707 H         1 UNK         0.0800 
    136 H136        1.6167  -17.1036  -52.4833 H         1 UNK         0.1150 
    137 H137        1.3943  -21.3850  -52.5933 H         1 UNK         0.1150 
    138 H138        1.1912  -19.3114  -48.8522 H         1 UNK         0.1150 
    139 H139        1.8115  -21.8295  -49.0391 H         1 UNK         0.0800 
    140 H140        1.5325  -22.6316  -50.5573 H         1 UNK         0.0800 
    141 H141       -1.5858  -21.2012  -47.5242 H         1 UNK         0.0800 
    142 H142        0.0976  -20.8014  -47.6161 H         1 UNK         0.0800 
    143 H143        0.3323  -23.5037  -47.2067 H         1 UNK         0.0600 
    144 H144        0.5054  -21.2570  -45.4088 H         1 UNK         0.3000 
    145 H145        1.6200  -22.3943  -42.8260 H         1 UNK         0.0600 
    146 H146        4.1280  -22.4899  -42.7431 H         1 UNK         0.0600 
    147 H147        3.4055  -24.0346  -43.1585 H         1 UNK         0.0600 
    148 H148        4.1520  -23.0581  -44.4127 H         1 UNK         0.0600 
    149 H149        1.8945  -20.2825  -43.3226 H         1 UNK         0.3000 
    150 H150        3.9751  -18.3554  -44.9516 H         1 UNK         0.0600 
    151 H151        3.0793  -18.6106  -47.2429 H         1 UNK         0.0600 
    152 H152        2.3684  -17.1924  -46.4946 H         1 UNK         0.0600 
    153 H153        1.4310  -18.6701  -46.6341 H         1 UNK         0.0600 
    154 H154        1.1107  -18.1556  -44.2298 H         1 UNK         0.3000 
    155 H155        1.6947  -17.7938  -40.8087 H         1 UNK         0.0600 
    156 H156        1.0213  -15.4633  -42.6854 H         1 UNK         0.0600 
    157 H157        2.1979  -15.4454  -41.3817 H         1 UNK         0.0600 
    158 H158        0.4881  -15.6075  -41.0103 H         1 UNK         0.0600 
    159 H159       -0.5850  -17.3911  -42.5440 H         1 UNK         0.3000 
    160 H160       -1.4397  -20.8364  -42.8741 H         1 UNK         0.0600 
    161 H161       -2.7746  -18.8224  -40.9844 H         1 UNK         0.0600 
    162 H162       -2.2516  -20.4447  -40.5453 H         1 UNK         0.0600 
    163 H163       -3.5508  -20.2314  -41.7076 H         1 UNK         0.0600 
    164 H164       -2.8929  -18.4366  -43.4212 H         1 UNK         0.3000 
    165 H165       -1.2078  -17.2591  -46.1803 H         1 UNK         0.0600 
    166 H166       -3.2482  -17.6477  -47.5825 H         1 UNK         0.0600 
    167 H167       -3.7105  -18.9936  -46.5368 H         1 UNK         0.0600 
    168 H168       -2.2317  -19.0676  -47.4914 H         1 UNK         0.0600 
    169 H169       -3.8544  -16.6955  -45.4288 H         1 UNK         0.3000 
    170 H170       -4.1478  -14.5916  -44.3798 H         1 UNK         0.0600 
    171 H171       -4.9929  -16.5256  -43.0352 H         1 UNK         0.0600 
    172 H172       -3.9017  -16.1136  -41.7177 H         1 UNK         0.0600 
    173 H173       -5.2188  -15.0253  -42.1540 H         1 UNK         0.0600 
    174 H174       -2.8704  -13.9032  -41.8632 H         1 UNK         0.3000 
    175 H175       -2.1388  -11.0270  -42.4433 H         1 UNK         0.0600 
    176 H176       -0.4727  -13.3483  -41.3065 H         1 UNK         0.0600 
    177 H177       -0.5131  -11.7267  -40.6251 H         1 UNK         0.0600 
    178 H178       -1.9629  -12.7035  -40.6153 H         1 UNK         0.0600 
    179 H179        0.0822  -12.0749  -43.9900 H         1 UNK         0.3000 
    180 H180        1.8290   -8.9411  -43.8956 H         1 UNK         0.0600 
    181 H181        2.6882  -11.8187  -43.2842 H         1 UNK         0.0600 
    182 H182        2.9967  -10.4107  -42.2767 H         1 UNK         0.0600 
    183 H183        3.7405  -10.5286  -43.8641 H         1 UNK         0.0600 
    184 H184        1.5927  -11.4403  -45.4796 H         1 UNK         0.3000 
    185 H185        0.0922   -9.9018  -48.2137 H         1 UNK         0.0600 
    186 H186        2.1607  -10.2276  -49.5585 H         1 UNK         0.0600 
    187 H187        2.2601   -8.7537  -48.6094 H         1 UNK         0.0600 
    188 H188        3.1424  -10.1858  -48.0935 H         1 UNK         0.0600 
    189 H189        1.8381  -12.2257  -47.6833 H         1 UNK         0.3000 
    190 H190       -1.2684  -22.8296  -44.3290 H         1 UNK         0.3000 
    191 H191       -3.8754  -23.8546  -44.7464 H         1 UNK         0.0600 
    192 H192       -3.8138  -24.2223  -42.2602 H         1 UNK         0.0600 
    193 H193       -3.2366  -22.6263  -42.7050 H         1 UNK         0.0600 
    194 H194       -2.0863  -23.8870  -42.2550 H         1 UNK         0.0600 
    195 H195       -0.7820  -25.5155  -44.4898 H         1 UNK         0.3000 
    196 H196       -1.7322  -28.1833  -44.0568 H         1 UNK         0.0600 
    197 H197        0.8213  -27.1312  -45.3932 H         1 UNK         0.0600 
    198 H198        0.6270  -27.4983  -43.6798 H         1 UNK         0.0600 
    199 H199        0.5556  -28.7902  -44.8681 H         1 UNK         0.0600 
    200 H200       -1.7426  -26.1029  -46.8672 H         1 UNK         0.3000 
    201 H201       -2.5588  -28.3198  -48.6941 H         1 UNK         0.0600 
    202 H202       -1.5004  -25.5086  -49.3323 H         1 UNK         0.0600 
    203 H203       -1.9061  -26.7598  -50.5010 H         1 UNK         0.0600 
    204 H204       -0.5454  -26.9874  -49.4164 H         1 UNK         0.0600 
    205 H205       -4.0514  -26.6481  -46.5091 H         1 UNK         0.3000 
    206 H206       -5.9867  -25.6859  -46.0970 H         1 UNK         0.0600 
    207 H207       -6.8596  -27.7598  -47.2105 H         1 UNK         0.0600 
    208 H208       -7.9588  -26.4037  -47.3886 H         1 UNK         0.0600 
    209 H209       -6.9513  -26.8937  -48.7437 H         1 UNK         0.0600 
    210 H210       -3.9929  -24.1441  -47.6571 H         1 UNK         0.3000 
    211 H211       -3.6077  -22.2339  -48.6296 H         1 UNK         0.0600 
    212 H212       -5.1194  -20.3167  -48.3141 H         1 UNK         0.0600 
    213 H213       -5.0623  -21.2713  -46.8425 H         1 UNK         0.0600 
    214 H214       -6.4580  -21.3801  -47.9153 H         1 UNK         0.0600 
    215 H215       -4.9686  -24.5027  -50.2192 H         1 UNK         0.3000 
    216 H216       -6.4020  -23.2854  -52.3670 H         1 UNK         0.0600 
    217 H217       -4.8639  -25.9365  -52.2898 H         1 UNK         0.0600 
    218 H218       -6.0712  -25.4756  -53.4835 H         1 UNK         0.0600 
    219 H219       -6.5440  -25.7118  -51.8068 H         1 UNK         0.0600 
    220 H220       -2.9449  -24.0367  -51.8943 H         1 UNK         0.3000 
    221 H221       -2.1032  -23.1650  -54.5091 H         1 UNK         0.0600 
    222 H222        0.1823  -23.2813  -53.5156 H         1 UNK         0.0600 
    223 H223       -0.5173  -23.5791  -51.9294 H         1 UNK         0.0600 
    224 H224       -0.7416  -24.7454  -53.2259 H         1 UNK         0.0600 
    225 H225       -2.5529  -21.5193  -51.3792 H         1 UNK         0.3000 
    226 H226       -1.3484  -19.0260  -52.1230 H         1 UNK         0.0600 
    227 H227       -3.3880  -19.6987  -49.9496 H         1 UNK         0.0600 
    228 H228       -1.6385  -19.5593  -49.7731 H         1 UNK         0.0600 
    229 H229       -2.5959  -18.1415  -50.1379 H         1 UNK         0.0600 
    230 H230       -4.6881  -20.3008  -52.3306 H         1 UNK         0.3000 
    231 H231       -5.8908  -17.9683  -53.4486 H         1 UNK         0.0600 
    232 H232       -6.6883  -20.9161  -53.7201 H         1 UNK         0.0600 
    233 H233       -7.7091  -19.5359  -54.1008 H         1 UNK         0.0600 
    234 H234       -7.2018  -19.8195  -52.4418 H         1 UNK         0.0600 
    235 H235       -4.4232  -20.8718  -54.9931 H         1 UNK         0.3000 
    236 H236       -4.7609  -20.0752  -57.6889 H         1 UNK         0.0600 
    237 H237       -4.2141  -22.3997  -56.9584 H         1 UNK         0.0600 
    238 H238       -3.0661  -21.8219  -58.1572 H         1 UNK         0.0600 
    239 H239       -2.6060  -21.8732  -56.4622 H         1 UNK         0.0600 
    240 H240       -2.3399  -19.1357  -55.3232 H         1 UNK         0.3000 
    241 H241       -0.5158  -17.8358  -57.0661 H         1 UNK         0.0600 
    242 H242       -3.5198  -15.1393  -56.8692 H         1 UNK         0.3800 
    243 H243       -3.7708  -16.7874  -56.3524 H         1 UNK         0.3800 
    244 H244       -0.5822  -16.5707  -54.3986 H         1 UNK         0.0800 
    245 H245       -0.7524  -18.2708  -54.2175 H         1 UNK         0.0800 
    246 H246        2.7180  -19.5897  -54.4503 H         1 UNK         0.0800 
    247 H247        1.0503  -20.0486  -54.6720 H         1 UNK         0.0800 
@<TRIPOS>BOND
     1    1    2 1    
     2    1  127 1    
     3    1  128 1    
     4    1  129 1    
     5    2    3 2    
     6    2    4 am   BACKBONE|DICT|INTERRES
     7    4    5 1    
     8    4  130 1    
     9    5    6 1    
    10    5   65 1    
    11    5  131 1    
    12    6    7 1    
    13    6  132 1    
    14    6  133 1    
    15    7    8 1    
    16    8    9 1    
    17    8  134 1    
    18    8  135 1    
    19    9   10 ar   
    20    9   14 ar   
    21   10   11 ar   
    22   10  136 1    
    23   11   12 ar   
    24   11  126 1    
    25   12   13 ar   
    26   12  137 1    
    27   13   14 ar   
    28   13   15 1    
    29   14  138 1    
    30   15   16 1    
    31   15  139 1    
    32   15  140 1    
    33   16   17 1    
    34   17   18 1    
    35   17  141 1    
    36   17  142 1    
    37   18   19 1    
    38   18   67 1    
    39   18  143 1    
    40   19   20 am   BACKBONE|DICT|INTERRES
    41   19  144 1    
    42   20   21 2    
    43   20   22 1    
    44   22   23 1    
    45   22   24 1    
    46   22  145 1    
    47   23  146 1    
    48   23  147 1    
    49   23  148 1    
    50   24   25 am   BACKBONE|DICT|INTERRES
    51   24  149 1    
    52   25   26 2    
    53   25   27 1    
    54   27   28 1    
    55   27   29 1    
    56   27  150 1    
    57   28  151 1    
    58   28  152 1    
    59   28  153 1    
    60   29   30 am   BACKBONE|DICT|INTERRES
    61   29  154 1    
    62   30   31 2    
    63   30   32 1    
    64   32   33 1    
    65   32   34 1    
    66   32  155 1    
    67   33  156 1    
    68   33  157 1    
    69   33  158 1    
    70   34   35 am   BACKBONE|DICT|INTERRES
    71   34  159 1    
    72   35   36 2    
    73   35   37 1    
    74   37   38 1    
    75   37   39 1    
    76   37  160 1    
    77   38  161 1    
    78   38  162 1    
    79   38  163 1    
    80   39   40 am   BACKBONE|DICT|INTERRES
    81   39  164 1    
    82   40   41 2    
    83   40   42 1    
    84   42   43 1    
    85   42   44 1    
    86   42  165 1    
    87   43  166 1    
    88   43  167 1    
    89   43  168 1    
    90   44   45 am   BACKBONE|DICT|INTERRES
    91   44  169 1    
    92   45   46 2    
    93   45   47 1    
    94   47   48 1    
    95   47   49 1    
    96   47  170 1    
    97   48  171 1    
    98   48  172 1    
    99   48  173 1    
   100   49   50 am   BACKBONE|DICT|INTERRES
   101   49  174 1    
   102   50   51 2    
   103   50   52 1    
   104   52   53 1    
   105   52   54 1    
   106   52  175 1    
   107   53  176 1    
   108   53  177 1    
   109   53  178 1    
   110   54   55 am   BACKBONE|DICT|INTERRES
   111   54  179 1    
   112   55   56 2    
   113   55   57 1    
   114   57   58 1    
   115   57   59 1    
   116   57  180 1    
   117   58  181 1    
   118   58  182 1    
   119   58  183 1    
   120   59   60 am   BACKBONE|DICT|INTERRES
   121   59  184 1    
   122   60   61 2    
   123   60   62 1    
   124   62   63 1    
   125   62   64 1    
   126   62  185 1    
   127   63  186 1    
   128   63  187 1    
   129   63  188 1    
   130   64   65 am   BACKBONE|DICT|INTERRES
   131   64  189 1    
   132   65   66 2    
   133   67   68 2    
   134   67   69 am   BACKBONE|DICT|INTERRES
   135   69   70 1    
   136   69  190 1    
   137   70   71 1    
   138   70   72 1    
   139   70  191 1    
   140   71  192 1    
   141   71  193 1    
   142   71  194 1    
   143   72   73 2    
   144   72   74 am   BACKBONE|DICT|INTERRES
   145   74   75 1    
   146   74  195 1    
   147   75   76 1    
   148   75   77 1    
   149   75  196 1    
   150   76  197 1    
   151   76  198 1    
   152   76  199 1    
   153   77   78 2    
   154   77   79 am   BACKBONE|DICT|INTERRES
   155   79   80 1    
   156   79  200 1    
   157   80   81 1    
   158   80   82 1    
   159   80  201 1    
   160   81  202 1    
   161   81  203 1    
   162   81  204 1    
   163   82   83 2    
   164   82   84 am   BACKBONE|DICT|INTERRES
   165   84   85 1    
   166   84  205 1    
   167   85   86 1    
   168   85   87 1    
   169   85  206 1    
   170   86  207 1    
   171   86  208 1    
   172   86  209 1    
   173   87   88 2    
   174   87   89 am   BACKBONE|DICT|INTERRES
   175   89   90 1    
   176   89  210 1    
   177   90   91 1    
   178   90   92 1    
   179   90  211 1    
   180   91  212 1    
   181   91  213 1    
   182   91  214 1    
   183   92   93 2    
   184   92   94 am   BACKBONE|DICT|INTERRES
   185   94   95 1    
   186   94  215 1    
   187   95   96 1    
   188   95   97 1    
   189   95  216 1    
   190   96  217 1    
   191   96  218 1    
   192   96  219 1    
   193   97   98 2    
   194   97   99 am   BACKBONE|DICT|INTERRES
   195   99  100 1    
   196   99  220 1    
   197  100  101 1    
   198  100  102 1    
   199  100  221 1    
   200  101  222 1    
   201  101  223 1    
   202  101  224 1    
   203  102  103 2    
   204  102  104 am   BACKBONE|DICT|INTERRES
   205  104  105 1    
   206  104  225 1    
   207  105  106 1    
   208  105  107 1    
   209  105  226 1    
   210  106  227 1    
   211  106  228 1    
   212  106  229 1    
   213  107  108 2    
   214  107  109 am   BACKBONE|DICT|INTERRES
   215  109  110 1    
   216  109  230 1    
   217  110  111 1    
   218  110  112 1    
   219  110  231 1    
   220  111  232 1    
   221  111  233 1    
   222  111  234 1    
   223  112  113 2    
   224  112  114 am   BACKBONE|DICT|INTERRES
   225  114  115 1    
   226  114  235 1    
   227  115  116 1    
   228  115  117 1    
   229  115  236 1    
   230  116  237 1    
   231  116  238 1    
   232  116  239 1    
   233  117  118 2    
   234  117  119 am   BACKBONE|DICT|INTERRES
   235  119  120 1    
   236  119  240 1    
   237  120  121 1    
   238  120  124 1    
   239  120  241 1    
   240  121  122 am   BACKBONE|DICT|INTERRES
   241  121  123 2    
   242  122  242 1    
   243  122  243 1    
   244  124  125 1    
   245  124  244 1    
   246  124  245 1    
   247  125  126 1    
   248  126  246 1    
   249  126  247 1    
@<TRIPOS>SUBSTRUCTURE
     1 UNK         1 GROUP             0       ****    0 ROOT    
