@<TRIPOS>MOLECULE
3R540
247   249    1
SMALL
USER_CHARGES


@<TRIPOS>ATOM
      1 CA         -2.6406  -11.5828  -47.0095 C.3       0 UNK        -0.1800 
      2 C          -1.5700  -12.6190  -47.3163 C.2       0 UNK         0.5000 
      3 O          -1.0901  -13.2834  -46.3976 O.2       0 UNK        -0.5000 
      4 N          -1.1768  -12.7379  -48.5920 N.am      1 UNK        -0.5000 
      5 CA         -0.1933  -13.6742  -49.1677 C.3       1 UNK         0.1400 
      6 C6         -0.5399  -15.1734  -48.9695 C.3       23 UNK        -0.0398 
      7 S7         -2.2182  -15.6067  -49.5400 S.3       23 UNK        -0.2404 
      8 C8         -2.3329  -17.3369  -48.9867 C.3       23 UNK        -0.0205 
      9 C9         -1.4651  -18.2508  -49.8366 C.ar      23 UNK        -0.0193 
     10 C10        -1.9208  -18.6801  -51.0855 C.ar      23 UNK        -0.1150 
     11 C11        -1.1295  -19.5080  -51.8843 C.ar      23 UNK        -0.0193 
     12 C12         0.1227  -19.9164  -51.4200 C.ar      23 UNK        -0.1150 
     13 C13         0.5918  -19.4930  -50.1738 C.ar      23 UNK        -0.0193 
     14 C14        -0.2069  -18.6590  -49.3847 C.ar      23 UNK        -0.1150 
     15 C15         1.9725  -19.9223  -49.7036 C.3       23 UNK        -0.0205 
     16 S16         1.9432  -21.5639  -48.9209 S.3       23 UNK        -0.2404 
     17 C17         1.3512  -21.1403  -47.2517 C.3       23 UNK        -0.0398 
     18 CA          0.4678  -22.2340  -46.6128 C.3       11 UNK         0.1400 
     19 N           0.3993  -22.0631  -45.1602 N.am      11 UNK        -0.5000 
     20 C          -0.0988  -22.9655  -44.3059 C.2       10 UNK         0.5000 
     21 O          -0.5366  -24.0622  -44.6501 O.2       10 UNK        -0.5000 
     22 CA         -0.1520  -22.5596  -42.8228 C.3       10 UNK         0.1400 
     23 CB          1.2212  -22.7444  -42.1606 C.3       10 UNK        -0.1800 
     24 N          -0.6127  -21.1836  -42.6300 N.am      10 UNK        -0.5000 
     25 C          -1.8336  -20.7396  -42.9618 C.2       9 UNK         0.5000 
     26 O          -2.7139  -21.4559  -43.4362 O.2       9 UNK        -0.5000 
     27 CA         -2.1036  -19.2351  -42.7826 C.3       9 UNK         0.1400 
     28 CB         -2.3697  -18.8923  -41.3095 C.3       9 UNK        -0.1800 
     29 N          -1.0145  -18.4030  -43.2909 N.am      9 UNK        -0.5000 
     30 C          -0.6074  -18.3719  -44.5676 C.2       8 UNK         0.5000 
     31 O          -1.1170  -19.0271  -45.4756 O.2       8 UNK        -0.5000 
     32 CA          0.6135  -17.4915  -44.8683 C.3       8 UNK         0.1400 
     33 CB          0.1965  -16.0147  -44.9507 C.3       8 UNK        -0.1800 
     34 N           1.6709  -17.6707  -43.8709 N.am      8 UNK        -0.5000 
     35 C           2.3487  -18.8145  -43.6865 C.2       7 UNK         0.5000 
     36 O           2.1793  -19.8259  -44.3664 O.2       7 UNK        -0.5000 
     37 CA          3.3512  -18.8510  -42.5186 C.3       7 UNK         0.1400 
     38 CB          4.6657  -18.1600  -42.9113 C.3       7 UNK        -0.1800 
     39 N           2.8216  -18.2326  -41.3036 N.am      7 UNK        -0.5000 
     40 C           1.7747  -18.6944  -40.6037 C.2       6 UNK         0.5000 
     41 O           1.1773  -19.7353  -40.8729 O.2       6 UNK        -0.5000 
     42 CA          1.2744  -17.8107  -39.4431 C.3       6 UNK         0.1400 
     43 CB          2.0010  -18.1702  -38.1388 C.3       6 UNK        -0.1800 
     44 N           1.4234  -16.3749  -39.7045 N.am      6 UNK        -0.5000 
     45 C           0.8616  -15.7311  -40.7367 C.2       5 UNK         0.5000 
     46 O           0.1249  -16.2857  -41.5565 O.2       5 UNK        -0.5000 
     47 CA          1.2560  -14.2512  -40.9105 C.3       5 UNK         0.1400 
     48 CB          2.7395  -14.1329  -41.2995 C.3       5 UNK        -0.1800 
     49 N           0.4632  -13.5786  -41.9376 N.am      5 UNK        -0.5000 
     50 C          -0.8357  -13.2653  -41.8324 C.2       4 UNK         0.5000 
     51 O          -1.5012  -13.4564  -40.8122 O.2       4 UNK        -0.5000 
     52 CA         -1.4932  -12.6329  -43.0798 C.3       4 UNK         0.1400 
     53 CB         -2.7518  -11.8041  -42.7489 C.3       4 UNK        -0.1800 
     54 N          -0.5599  -11.8560  -43.9044 N.am      4 UNK        -0.5000 
     55 C           0.1473  -10.7766  -43.5345 C.2       3 UNK         0.5000 
     56 O           0.0617  -10.2563  -42.4208 O.2       3 UNK        -0.5000 
     57 CA          1.1093  -10.1732  -44.5836 C.3       3 UNK         0.1400 
     58 CB          2.3129   -9.4599  -43.9321 C.3       3 UNK        -0.1800 
     59 N           1.5773  -11.1148  -45.6109 N.am      3 UNK        -0.5000 
     60 C           2.2830  -12.2414  -45.4282 C.2       2 UNK         0.5000 
     61 O           2.5426  -12.7235  -44.3250 O.2       2 UNK        -0.5000 
     62 CA          2.6971  -12.9675  -46.7175 C.3       2 UNK         0.1400 
     63 CB          3.6051  -14.1905  -46.4842 C.3       2 UNK        -0.1800 
     64 N           1.4732  -13.3607  -47.4020 N.am      2 UNK        -0.5000 
     65 C           1.2557  -13.3783  -48.7187 C.2       1 UNK         0.5000 
     66 O           2.1244  -13.1465  -49.5602 O.2       1 UNK        -0.5000 
     67 C          -0.9379  -22.3190  -47.2500 C.2       11 UNK         0.5000 
     68 O          -1.1796  -23.2038  -48.0721 O.2       11 UNK        -0.5000 
     69 N          -1.8600  -21.4511  -46.8086 N.am      12 UNK        -0.5000 
     70 CA         -3.2684  -21.4648  -47.2056 C.3       12 UNK         0.1400 
     71 CB         -3.9660  -20.2071  -46.6680 C.3       12 UNK        -0.1800 
     72 C          -4.0093  -22.7347  -46.7439 C.2       12 UNK         0.5000 
     73 O          -4.8183  -23.2669  -47.5026 O.2       12 UNK        -0.5000 
     74 N          -3.7078  -23.2102  -45.5262 N.am      13 UNK        -0.5000 
     75 CA         -4.2471  -24.4479  -44.9584 C.3       13 UNK         0.1400 
     76 CB         -3.9354  -24.5115  -43.4556 C.3       13 UNK        -0.1800 
     77 C          -3.7328  -25.7084  -45.6779 C.2       13 UNK         0.5000 
     78 O          -4.5152  -26.6307  -45.9113 O.2       13 UNK        -0.5000 
     79 N          -2.4406  -25.7185  -46.0392 N.am      14 UNK        -0.5000 
     80 CA         -1.8173  -26.7487  -46.8763 C.3       14 UNK         0.1400 
     81 CB         -0.2931  -26.5554  -46.8779 C.3       14 UNK        -0.1800 
     82 C          -2.3675  -26.7449  -48.3160 C.2       14 UNK         0.5000 
     83 O          -2.4946  -27.8091  -48.9222 O.2       14 UNK        -0.5000 
     84 N          -2.7128  -25.5459  -48.8041 N.am      15 UNK        -0.5000 
     85 CA         -3.3811  -25.2421  -50.0667 C.3       15 UNK         0.1400 
     86 CB         -4.8177  -25.8049  -50.0774 C.3       15 UNK        -0.1800 
     87 C          -2.5534  -25.6527  -51.2979 C.2       15 UNK         0.5000 
     88 O          -3.0829  -26.2715  -52.2227 O.2       15 UNK        -0.5000 
     89 N          -1.2681  -25.2842  -51.2885 N.am      16 UNK        -0.5000 
     90 CA         -0.3363  -25.4749  -52.3940 C.3       16 UNK         0.1400 
     91 CB          0.8492  -26.3216  -51.9035 C.3       16 UNK        -0.1800 
     92 C           0.1399  -24.0849  -52.8598 C.2       16 UNK         0.5000 
     93 O           0.6550  -23.3393  -52.0290 O.2       16 UNK        -0.5000 
     94 N           0.0078  -23.6994  -54.1388 N.am      17 UNK        -0.5000 
     95 CA         -0.6501  -24.4012  -55.2491 C.3       17 UNK         0.1400 
     96 CB         -0.1894  -23.7560  -56.5655 C.3       17 UNK        -0.1800 
     97 C          -2.1922  -24.3834  -55.1666 C.2       17 UNK         0.5000 
     98 O          -2.8438  -25.1618  -55.8626 O.2       17 UNK        -0.5000 
     99 N          -2.7410  -23.5036  -54.3243 N.am      18 UNK        -0.5000 
    100 CA        -4.1582  -23.3581  -54.0148 C.3       18 UNK         0.1400 
    101 CB        -4.8346  -22.4670  -55.0725 C.3       18 UNK        -0.1800 
    102 C         -4.2664  -22.7432  -52.6117 C.2       18 UNK         0.5000 
    103 O         -3.2495  -22.3328  -52.0486 O.2       18 UNK        -0.5000 
    104 N         -5.4836  -22.6838  -52.0598 N.am      19 UNK        -0.5000 
    105 CA        -5.7494  -22.0370  -50.7693 C.3       19 UNK         0.1400 
    106 CB        -7.1188  -22.4944  -50.2461 C.3       19 UNK        -0.1800 
    107 C         -5.6816  -20.4982  -50.8465 C.2       19 UNK         0.5000 
    108 O         -5.3656  -19.8505  -49.8491 O.2       19 UNK        -0.5000 
    109 N         -5.9747  -19.9486  -52.0298 N.am      20 UNK        -0.5000 
    110 CA        -5.9628  -18.5304  -52.3607 C.3       20 UNK         0.1400 
    111 CB        -7.2013  -17.8356  -51.7642 C.3       20 UNK        -0.1800 
    112 C         -5.9427  -18.3979  -53.8903 C.2       20 UNK         0.5000 
    113 O         -6.2921  -19.3540  -54.5881 O.2       20 UNK        -0.5000 
    114 N         -5.5597  -17.2085  -54.3745 N.am      21 UNK        -0.5000 
    115 CA        -5.5797  -16.7827  -55.7811 C.3       21 UNK         0.1400 
    116 CB        -7.0327  -16.6804  -56.2931 C.3       21 UNK        -0.1800 
    117 C         -4.6727  -17.6140  -56.7170 C.2       21 UNK         0.5000 
    118 O         -4.9903  -17.7766  -57.8968 O.2       21 UNK        -0.5000 
    119 N         -3.5462  -18.1058  -56.1849 N.am      22 UNK        -0.5000 
    120 CA        -2.5083  -18.8276  -56.9430 C.3       22 UNK         0.1400 
    121 C         -1.5940  -17.9278  -57.8294 C.2       22 UNK         0.5000 
    122 N         -1.6426  -16.6057  -57.7167 N.am      22 UNK        -0.7600 
    123 O         -0.8364  -18.4408  -58.6487 O.2       22 UNK        -0.5000 
    124 C124       -1.6797  -19.7782  -56.0398 C.3       23 UNK        -0.0398 
    125 S125       -0.9319  -18.9606  -54.5859 S.3       23 UNK        -0.2404 
    126 C126       -1.6257  -19.9679  -53.2436 C.3       23 UNK        -0.0205 
    127 H127       -2.2455  -10.8244  -46.3337 H         1 UNK         0.0600 
    128 H128       -2.9955  -11.0854  -47.9123 H         1 UNK         0.0600 
    129 H129       -3.4928  -12.0598  -46.5256 H         1 UNK         0.0600 
    130 H130       -1.6081  -12.1303  -49.2744 H         1 UNK         0.3000 
    131 H131       -0.2206  -13.4842  -50.2421 H         1 UNK         0.0600 
    132 H132       -0.4498  -15.4566  -47.9216 H         1 UNK         0.0800 
    133 H133        0.1723  -15.7930  -49.5169 H         1 UNK         0.0800 
    134 H134       -3.3725  -17.6622  -49.0531 H         1 UNK         0.0800 
    135 H135       -2.0572  -17.4090  -47.9330 H         1 UNK         0.0800 
    136 H136       -2.8891  -18.3603  -51.4375 H         1 UNK         0.1150 
    137 H137        0.7360  -20.5627  -52.0323 H         1 UNK         0.1150 
    138 H138        0.1506  -18.3177  -48.4240 H         1 UNK         0.1150 
    139 H139        2.6505  -19.9565  -50.5576 H         1 UNK         0.0800 
    140 H140        2.3928  -19.1881  -49.0144 H         1 UNK         0.0800 
    141 H141        2.2494  -20.9969  -46.6511 H         1 UNK         0.0800 
    142 H142        0.8352  -20.1809  -47.2479 H         1 UNK         0.0800 
    143 H143        0.9554  -23.1960  -46.7856 H         1 UNK         0.0600 
    144 H144        0.7753  -21.1957  -44.7901 H         1 UNK         0.3000 
    145 H145       -0.8613  -23.2220  -42.3227 H         1 UNK         0.0600 
    146 H146        1.9668  -22.0707  -42.5844 H         1 UNK         0.0600 
    147 H147        1.1696  -22.5530  -41.0887 H         1 UNK         0.0600 
    148 H148        1.5852  -23.7642  -42.2916 H         1 UNK         0.0600 
    149 H149        0.0454  -20.5417  -42.1963 H         1 UNK         0.3000 
    150 H150       -2.9998  -18.9884  -43.3556 H         1 UNK         0.0600 
    151 H151       -2.5999  -17.8337  -41.1859 H         1 UNK         0.0600 
    152 H152       -1.5106  -19.1229  -40.6801 H         1 UNK         0.0600 
    153 H153       -3.2190  -19.4587  -40.9256 H         1 UNK         0.0600 
    154 H154       -0.5462  -17.7988  -42.6216 H         1 UNK         0.3000 
    155 H155        1.0102  -17.7888  -45.8413 H         1 UNK         0.0600 
    156 H156       -0.6070  -15.8816  -45.6746 H         1 UNK         0.0600 
    157 H157        1.0226  -15.3792  -45.2591 H         1 UNK         0.0600 
    158 H158       -0.1744  -15.6370  -43.9999 H         1 UNK         0.0600 
    159 H159        1.8156  -16.9097  -43.2246 H         1 UNK         0.3000 
    160 H160        3.5674  -19.8984  -42.2977 H         1 UNK         0.0600 
    161 H161        4.5203  -17.0983  -43.1150 H         1 UNK         0.0600 
    162 H162        5.0902  -18.6115  -43.8090 H         1 UNK         0.0600 
    163 H163        5.4103  -18.2512  -42.1202 H         1 UNK         0.0600 
    164 H164        3.2536  -17.3712  -41.0050 H         1 UNK         0.3000 
    165 H165        0.2104  -18.0143  -39.3086 H         1 UNK         0.0600 
    166 H166        3.0692  -17.9588  -38.2005 H         1 UNK         0.0600 
    167 H167        1.5955  -17.6124  -37.2945 H         1 UNK         0.0600 
    168 H168        1.8887  -19.2308  -37.9096 H         1 UNK         0.0600 
    169 H169        2.0191  -15.8619  -39.0706 H         1 UNK         0.3000 
    170 H170        1.0957  -13.7394  -39.9596 H         1 UNK         0.0600 
    171 H171        3.3908  -14.5507  -40.5312 H         1 UNK         0.0600 
    172 H172        2.9533  -14.6549  -42.2334 H         1 UNK         0.0600 
    173 H173        3.0287  -13.0898  -41.4309 H         1 UNK         0.0600 
    174 H174        0.9411  -13.3690  -42.8049 H         1 UNK         0.3000 
    175 H175       -1.8119  -13.4718  -43.7000 H         1 UNK         0.0600 
    176 H176       -3.1986  -11.3903  -43.6530 H         1 UNK         0.0600 
    177 H177       -3.5112  -12.4209  -42.2671 H         1 UNK         0.0600 
    178 H178       -2.5273  -10.9768  -42.0754 H         1 UNK         0.0600 
    179 H179       -0.4343  -12.2173  -44.8434 H         1 UNK         0.3000 
    180 H180        0.5285   -9.4164  -45.1127 H         1 UNK         0.0600 
    181 H181        2.9674   -9.0218  -44.6856 H         1 UNK         0.0600 
    182 H182        1.9861   -8.6487  -43.2804 H         1 UNK         0.0600 
    183 H183        2.9084  -10.1453  -43.3279 H         1 UNK         0.0600 
    184 H184        1.3802  -10.8407  -46.5633 H         1 UNK         0.3000 
    185 H185        3.2442  -12.2471  -47.3295 H         1 UNK         0.0600 
    186 H186        3.8741  -14.6654  -47.4276 H         1 UNK         0.0600 
    187 H187        4.5328  -13.8938  -45.9939 H         1 UNK         0.0600 
    188 H188        3.1329  -14.9437  -45.8553 H         1 UNK         0.0600 
    189 H189        0.6571  -13.4955  -46.8074 H         1 UNK         0.3000 
    190 H190       -1.5816  -20.7195  -46.1591 H         1 UNK         0.3000 
    191 H191       -3.3062  -21.4332  -48.2968 H         1 UNK         0.0600 
    192 H192       -5.0126  -20.1813  -46.9737 H         1 UNK         0.0600 
    193 H193       -3.4946  -19.3030  -47.0511 H         1 UNK         0.0600 
    194 H194       -3.9376  -20.1633  -45.5790 H         1 UNK         0.0600 
    195 H195       -3.0884  -22.6698  -44.9294 H         1 UNK         0.3000 
    196 H196       -5.3326  -24.4221  -45.0744 H         1 UNK         0.0600 
    197 H197       -4.3446  -25.4188  -43.0098 H         1 UNK         0.0600 
    198 H198       -4.3722  -23.6643  -42.9268 H         1 UNK         0.0600 
    199 H199       -2.8622  -24.5073  -43.2652 H         1 UNK         0.0600 
    200 H200       -1.8412  -24.9570  -45.7325 H         1 UNK         0.3000 
    201 H201       -2.0388  -27.7229  -46.4359 H         1 UNK         0.0600 
    202 H202        0.1131  -26.6196  -45.8683 H         1 UNK         0.0600 
    203 H203       -0.0100  -25.5867  -47.2905 H         1 UNK         0.0600 
    204 H204        0.1975  -27.3237  -47.4766 H         1 UNK         0.0600 
    205 H205       -2.4632  -24.7330  -48.2499 H         1 UNK         0.3000 
    206 H206       -3.4543  -24.1559  -50.0954 H         1 UNK         0.0600 
    207 H207       -5.3806  -25.4592  -49.2103 H         1 UNK         0.0600 
    208 H208       -5.3592  -25.4783  -50.9656 H         1 UNK         0.0600 
    209 H209       -4.8269  -26.8951  -50.0705 H         1 UNK         0.0600 
    210 H210       -0.9259  -24.7222  -50.5193 H         1 UNK         0.3000 
    211 H211       -0.8144  -26.0225  -53.2038 H         1 UNK         0.0600 
    212 H212        1.5715  -26.4810  -52.7050 H         1 UNK         0.0600 
    213 H213        0.5163  -27.3027  -51.5641 H         1 UNK         0.0600 
    214 H214        1.3751  -25.8440  -51.0755 H         1 UNK         0.0600 
    215 H215        0.3785  -22.7927  -54.3800 H         1 UNK         0.3000 
    216 H216       -0.3202  -25.4411  -55.2652 H         1 UNK         0.0600 
    217 H217       -0.6218  -24.2686  -57.4259 H         1 UNK         0.0600 
    218 H218        0.8945  -23.8059  -56.6723 H         1 UNK         0.0600 
    219 H219       -0.4853  -22.7084  -56.6263 H         1 UNK         0.0600 
    220 H220       -2.1406  -22.9512  -53.7249 H         1 UNK         0.3000 
    221 H221       -4.6295  -24.3430  -53.9961 H         1 UNK         0.0600 
    222 H222       -4.4334  -21.4533  -55.0614 H         1 UNK         0.0600 
    223 H223       -4.6998  -22.8688  -56.0767 H         1 UNK         0.0600 
    224 H224       -5.9083  -22.3929  -54.8980 H         1 UNK         0.0600 
    225 H225       -6.2810  -23.0486  -52.5612 H         1 UNK         0.3000 
    226 H226       -4.9915  -22.3591  -50.0536 H         1 UNK         0.0600 
    227 H227       -7.3287  -22.0514  -49.2715 H         1 UNK         0.0600 
    228 H228       -7.9262  -22.2069  -50.9204 H         1 UNK         0.0600 
    229 H229       -7.1509  -23.5767  -50.1208 H         1 UNK         0.0600 
    230 H230       -6.1970  -20.5444  -52.8175 H         1 UNK         0.3000 
    231 H231       -5.0586  -18.0732  -51.9578 H         1 UNK         0.0600 
    232 H232       -7.2213  -16.7761  -52.0217 H         1 UNK         0.0600 
    233 H233       -7.2096  -17.9010  -50.6762 H         1 UNK         0.0600 
    234 H234       -8.1260  -18.2812  -52.1330 H         1 UNK         0.0600 
    235 H235       -5.2798  -16.4943  -53.7163 H         1 UNK         0.3000 
    236 H236       -5.1638  -15.7743  -55.7930 H         1 UNK         0.0600 
    237 H237       -7.5034  -17.6607  -56.3735 H         1 UNK         0.0600 
    238 H238       -7.6430  -16.0689  -55.6286 H         1 UNK         0.0600 
    239 H239       -7.0703  -16.2182  -57.2803 H         1 UNK         0.0600 
    240 H240       -3.3395  -17.9213  -55.2145 H         1 UNK         0.3000 
    241 H241       -3.0290  -19.4715  -57.6548 H         1 UNK         0.0600 
    242 H242       -1.0505  -16.0363  -58.3009 H         1 UNK         0.3800 
    243 H243       -2.2517  -16.1689  -57.0445 H         1 UNK         0.3800 
    244 H244       -0.8836  -20.2593  -56.6103 H         1 UNK         0.0800 
    245 H245       -2.3197  -20.5940  -55.7045 H         1 UNK         0.0800 
    246 H246       -1.3409  -21.0091  -53.3949 H         1 UNK         0.0800 
    247 H247       -2.7156  -19.9298  -53.2831 H         1 UNK         0.0800 
@<TRIPOS>BOND
     1    1    2 1    
     2    1  127 1    
     3    1  128 1    
     4    1  129 1    
     5    2    3 2    
     6    2    4 am   BACKBONE|DICT|INTERRES
     7    4    5 1    
     8    4  130 1    
     9    5    6 1    
    10    5   65 1    
    11    5  131 1    
    12    6    7 1    
    13    6  132 1    
    14    6  133 1    
    15    7    8 1    
    16    8    9 1    
    17    8  134 1    
    18    8  135 1    
    19    9   10 ar   
    20    9   14 ar   
    21   10   11 ar   
    22   10  136 1    
    23   11   12 ar   
    24   11  126 1    
    25   12   13 ar   
    26   12  137 1    
    27   13   14 ar   
    28   13   15 1    
    29   14  138 1    
    30   15   16 1    
    31   15  139 1    
    32   15  140 1    
    33   16   17 1    
    34   17   18 1    
    35   17  141 1    
    36   17  142 1    
    37   18   19 1    
    38   18   67 1    
    39   18  143 1    
    40   19   20 am   BACKBONE|DICT|INTERRES
    41   19  144 1    
    42   20   21 2    
    43   20   22 1    
    44   22   23 1    
    45   22   24 1    
    46   22  145 1    
    47   23  146 1    
    48   23  147 1    
    49   23  148 1    
    50   24   25 am   BACKBONE|DICT|INTERRES
    51   24  149 1    
    52   25   26 2    
    53   25   27 1    
    54   27   28 1    
    55   27   29 1    
    56   27  150 1    
    57   28  151 1    
    58   28  152 1    
    59   28  153 1    
    60   29   30 am   BACKBONE|DICT|INTERRES
    61   29  154 1    
    62   30   31 2    
    63   30   32 1    
    64   32   33 1    
    65   32   34 1    
    66   32  155 1    
    67   33  156 1    
    68   33  157 1    
    69   33  158 1    
    70   34   35 am   BACKBONE|DICT|INTERRES
    71   34  159 1    
    72   35   36 2    
    73   35   37 1    
    74   37   38 1    
    75   37   39 1    
    76   37  160 1    
    77   38  161 1    
    78   38  162 1    
    79   38  163 1    
    80   39   40 am   BACKBONE|DICT|INTERRES
    81   39  164 1    
    82   40   41 2    
    83   40   42 1    
    84   42   43 1    
    85   42   44 1    
    86   42  165 1    
    87   43  166 1    
    88   43  167 1    
    89   43  168 1    
    90   44   45 am   BACKBONE|DICT|INTERRES
    91   44  169 1    
    92   45   46 2    
    93   45   47 1    
    94   47   48 1    
    95   47   49 1    
    96   47  170 1    
    97   48  171 1    
    98   48  172 1    
    99   48  173 1    
   100   49   50 am   BACKBONE|DICT|INTERRES
   101   49  174 1    
   102   50   51 2    
   103   50   52 1    
   104   52   53 1    
   105   52   54 1    
   106   52  175 1    
   107   53  176 1    
   108   53  177 1    
   109   53  178 1    
   110   54   55 am   BACKBONE|DICT|INTERRES
   111   54  179 1    
   112   55   56 2    
   113   55   57 1    
   114   57   58 1    
   115   57   59 1    
   116   57  180 1    
   117   58  181 1    
   118   58  182 1    
   119   58  183 1    
   120   59   60 am   BACKBONE|DICT|INTERRES
   121   59  184 1    
   122   60   61 2    
   123   60   62 1    
   124   62   63 1    
   125   62   64 1    
   126   62  185 1    
   127   63  186 1    
   128   63  187 1    
   129   63  188 1    
   130   64   65 am   BACKBONE|DICT|INTERRES
   131   64  189 1    
   132   65   66 2    
   133   67   68 2    
   134   67   69 am   BACKBONE|DICT|INTERRES
   135   69   70 1    
   136   69  190 1    
   137   70   71 1    
   138   70   72 1    
   139   70  191 1    
   140   71  192 1    
   141   71  193 1    
   142   71  194 1    
   143   72   73 2    
   144   72   74 am   BACKBONE|DICT|INTERRES
   145   74   75 1    
   146   74  195 1    
   147   75   76 1    
   148   75   77 1    
   149   75  196 1    
   150   76  197 1    
   151   76  198 1    
   152   76  199 1    
   153   77   78 2    
   154   77   79 am   BACKBONE|DICT|INTERRES
   155   79   80 1    
   156   79  200 1    
   157   80   81 1    
   158   80   82 1    
   159   80  201 1    
   160   81  202 1    
   161   81  203 1    
   162   81  204 1    
   163   82   83 2    
   164   82   84 am   BACKBONE|DICT|INTERRES
   165   84   85 1    
   166   84  205 1    
   167   85   86 1    
   168   85   87 1    
   169   85  206 1    
   170   86  207 1    
   171   86  208 1    
   172   86  209 1    
   173   87   88 2    
   174   87   89 am   BACKBONE|DICT|INTERRES
   175   89   90 1    
   176   89  210 1    
   177   90   91 1    
   178   90   92 1    
   179   90  211 1    
   180   91  212 1    
   181   91  213 1    
   182   91  214 1    
   183   92   93 2    
   184   92   94 am   BACKBONE|DICT|INTERRES
   185   94   95 1    
   186   94  215 1    
   187   95   96 1    
   188   95   97 1    
   189   95  216 1    
   190   96  217 1    
   191   96  218 1    
   192   96  219 1    
   193   97   98 2    
   194   97   99 am   BACKBONE|DICT|INTERRES
   195   99  100 1    
   196   99  220 1    
   197  100  101 1    
   198  100  102 1    
   199  100  221 1    
   200  101  222 1    
   201  101  223 1    
   202  101  224 1    
   203  102  103 2    
   204  102  104 am   BACKBONE|DICT|INTERRES
   205  104  105 1    
   206  104  225 1    
   207  105  106 1    
   208  105  107 1    
   209  105  226 1    
   210  106  227 1    
   211  106  228 1    
   212  106  229 1    
   213  107  108 2    
   214  107  109 am   BACKBONE|DICT|INTERRES
   215  109  110 1    
   216  109  230 1    
   217  110  111 1    
   218  110  112 1    
   219  110  231 1    
   220  111  232 1    
   221  111  233 1    
   222  111  234 1    
   223  112  113 2    
   224  112  114 am   BACKBONE|DICT|INTERRES
   225  114  115 1    
   226  114  235 1    
   227  115  116 1    
   228  115  117 1    
   229  115  236 1    
   230  116  237 1    
   231  116  238 1    
   232  116  239 1    
   233  117  118 2    
   234  117  119 am   BACKBONE|DICT|INTERRES
   235  119  120 1    
   236  119  240 1    
   237  120  121 1    
   238  120  124 1    
   239  120  241 1    
   240  121  122 am   BACKBONE|DICT|INTERRES
   241  121  123 2    
   242  122  242 1    
   243  122  243 1    
   244  124  125 1    
   245  124  244 1    
   246  124  245 1    
   247  125  126 1    
   248  126  246 1    
   249  126  247 1    
@<TRIPOS>SUBSTRUCTURE
     1 UNK         1 GROUP             0       ****    0 ROOT    
