@<TRIPOS>MOLECULE
3R540
247   249    1
SMALL
USER_CHARGES


@<TRIPOS>ATOM
      1 CA          0.6240  -11.0445  -46.5594 C.3       0 UNK        -0.1800 
      2 C           1.8475  -11.3661  -47.4069 C.2       0 UNK         0.5000 
      3 O           2.2977  -10.5191  -48.1783 O.2       0 UNK        -0.5000 
      4 N           2.3857  -12.5797  -47.2525 N.am      1 UNK        -0.5000 
      5 CA          3.5776  -13.0888  -47.9433 C.3       1 UNK         0.1400 
      6 C6          3.2493  -14.3570  -48.7724 C.3       23 UNK        -0.0398 
      7 S7          2.1799  -13.9815  -50.2059 S.3       23 UNK        -0.2404 
      8 C8          3.0466  -14.8385  -51.5627 C.3       23 UNK        -0.0205 
      9 C9          2.6811  -16.3148  -51.6078 C.ar      23 UNK        -0.0193 
     10 C10         1.6712  -16.7623  -52.4669 C.ar      23 UNK        -0.1150 
     11 C11         1.2959  -18.1089  -52.4768 C.ar      23 UNK        -0.0193 
     12 C12         1.9510  -19.0121  -51.6393 C.ar      23 UNK        -0.1150 
     13 C13         2.9262  -18.5684  -50.7435 C.ar      23 UNK        -0.0193 
     14 C14         3.3141  -17.2268  -50.7571 C.ar      23 UNK        -0.1150 
     15 C15         3.4792  -19.5196  -49.6928 C.3       23 UNK        -0.0205 
     16 S16         2.7619  -19.1890  -48.0433 S.3       23 UNK        -0.2404 
     17 C17         0.9627  -19.3127  -48.3456 C.3       23 UNK        -0.0398 
     18 CA          0.3324  -20.5555  -47.6826 C.3       11 UNK         0.1400 
     19 N           0.1794  -20.3918  -46.2365 N.am      11 UNK        -0.5000 
     20 C          -0.1025  -21.3839  -45.3824 C.2       10 UNK         0.5000 
     21 O          -0.2091  -22.5637  -45.7155 O.2       10 UNK        -0.5000 
     22 CA         -0.3606  -20.9751  -43.9205 C.3       10 UNK         0.1400 
     23 CB          0.9625  -20.8206  -43.1554 C.3       10 UNK        -0.1800 
     24 N          -1.1326  -19.7341  -43.8211 N.am      10 UNK        -0.5000 
     25 C          -2.4110  -19.6080  -44.2064 C.2       9 UNK         0.5000 
     26 O          -3.0908  -20.5443  -44.6238 O.2       9 UNK        -0.5000 
     27 CA         -3.0144  -18.1907  -44.1816 C.3       9 UNK         0.1400 
     28 CB         -3.7391  -17.9187  -42.8554 C.3       9 UNK        -0.1800 
     29 N          -2.0304  -17.1333  -44.4350 N.am      9 UNK        -0.5000 
     30 C          -1.3929  -16.9734  -45.6078 C.2       8 UNK         0.5000 
     31 O          -1.5499  -17.7406  -46.5576 O.2       8 UNK        -0.5000 
     32 CA         -0.4056  -15.8019  -45.7620 C.3       8 UNK         0.1400 
     33 CB         -0.9303  -14.7613  -46.7666 C.3       8 UNK        -0.1800 
     34 N          -0.1029  -15.1643  -44.4834 N.am      8 UNK        -0.5000 
     35 C           1.0006  -14.4814  -44.1829 C.2       7 UNK         0.5000 
     36 O           1.9004  -14.2515  -44.9913 O.2       7 UNK        -0.5000 
     37 CA          1.1393  -13.9824  -42.7327 C.3       7 UNK         0.1400 
     38 CB          0.2528  -12.7485  -42.4878 C.3       7 UNK        -0.1800 
     39 N           0.9246  -15.0065  -41.7004 N.am      7 UNK        -0.5000 
     40 C          -0.1821  -15.7064  -41.3985 C.2       6 UNK         0.5000 
     41 O          -1.2386  -15.6262  -42.0293 O.2       6 UNK        -0.5000 
     42 CA         -0.1035  -16.6794  -40.2038 C.3       6 UNK         0.1400 
     43 CB         -0.0702  -18.1358  -40.6901 C.3       6 UNK        -0.1800 
     44 N           1.0599  -16.4487  -39.3484 N.am      6 UNK        -0.5000 
     45 C           1.1801  -15.4475  -38.4650 C.2       5 UNK         0.5000 
     46 O           0.2819  -14.6409  -38.2229 O.2       5 UNK        -0.5000 
     47 CA          2.5362  -15.3125  -37.7407 C.3       5 UNK         0.1400 
     48 CB          2.4377  -15.8601  -36.3085 C.3       5 UNK        -0.1800 
     49 N           3.6442  -15.9837  -38.4291 N.am      5 UNK        -0.5000 
     50 C           4.1353  -15.6313  -39.6249 C.2       4 UNK         0.5000 
     51 O           3.7145  -14.6660  -40.2683 O.2       4 UNK        -0.5000 
     52 CA          5.2685  -16.5065  -40.2075 C.3       4 UNK         0.1400 
     53 CB          5.3195  -17.9355  -39.6206 C.3       4 UNK        -0.1800 
     54 N           5.2220  -16.5586  -41.6712 N.am      4 UNK        -0.5000 
     55 C           4.2135  -16.9902  -42.4407 C.2       3 UNK         0.5000 
     56 O           3.1701  -17.4726  -41.9970 O.2       3 UNK        -0.5000 
     57 CA          4.4013  -16.8007  -43.9606 C.3       3 UNK         0.1400 
     58 CB          3.2684  -17.4412  -44.7832 C.3       3 UNK        -0.1800 
     59 N           4.4950  -15.3814  -44.3090 N.am      3 UNK        -0.5000 
     60 C           5.5710  -14.6005  -44.1343 C.2       2 UNK         0.5000 
     61 O           6.6362  -15.0133  -43.6701 O.2       2 UNK        -0.5000 
     62 CA          5.4161  -13.1134  -44.5197 C.3       2 UNK         0.1400 
     63 CB          6.7665  -12.3921  -44.7126 C.3       2 UNK        -0.1800 
     64 N           4.5382  -12.9108  -45.6768 N.am      2 UNK        -0.5000 
     65 C           4.7183  -13.3525  -46.9326 C.2       1 UNK         0.5000 
     66 O           5.7297  -13.9492  -47.3043 O.2       1 UNK        -0.5000 
     67 C          -1.0095  -20.9130  -48.3522 C.2       11 UNK         0.5000 
     68 O          -1.0344  -21.7941  -49.2102 O.2       11 UNK        -0.5000 
     69 N          -2.1039  -20.2631  -47.9293 N.am      12 UNK        -0.5000 
     70 CA         -3.4605  -20.5644  -48.3910 C.3       12 UNK         0.1400 
     71 CB         -4.4462  -19.5221  -47.8459 C.3       12 UNK        -0.1800 
     72 C          -3.9028  -21.9905  -48.0149 C.2       12 UNK         0.5000 
     73 O          -4.4795  -22.6842  -48.8526 O.2       12 UNK        -0.5000 
     74 N          -3.5821  -22.4210  -46.7860 N.am      13 UNK        -0.5000 
     75 CA         -3.7981  -23.7825  -46.2950 C.3       13 UNK         0.1400 
     76 CB         -3.4949  -23.8496  -44.7913 C.3       13 UNK        -0.1800 
     77 C          -2.9776  -24.8299  -47.0698 C.2       13 UNK         0.5000 
     78 O          -3.5229  -25.8738  -47.4282 O.2       13 UNK        -0.5000 
     79 N          -1.7072  -24.5168  -47.3680 N.am      14 UNK        -0.5000 
     80 CA         -0.8239  -25.3330  -48.2093 C.3       14 UNK         0.1400 
     81 CB          0.6036  -24.7681  -48.1649 C.3       14 UNK        -0.1800 
     82 C          -1.3215  -25.4572  -49.6643 C.2       14 UNK         0.5000 
     83 O          -1.1402  -26.5065  -50.2817 O.2       14 UNK        -0.5000 
     84 N          -1.9969  -24.4116  -50.1594 N.am      15 UNK        -0.5000 
     85 CA         -2.7155  -24.3733  -51.4349 C.3       15 UNK         0.1400 
     86 CB         -2.7785  -22.9152  -51.9266 C.3       15 UNK        -0.1800 
     87 C          -4.1218  -25.0156  -51.3661 C.2       15 UNK         0.5000 
     88 O          -4.9237  -24.7941  -52.2737 O.2       15 UNK        -0.5000 
     89 N          -4.4071  -25.7855  -50.3036 N.am      16 UNK        -0.5000 
     90 CA         -5.6394  -26.5354  -50.0380 C.3       16 UNK         0.1400 
     91 CB         -5.8308  -27.6617  -51.0748 C.3       16 UNK        -0.1800 
     92 C          -6.8713  -25.6222  -49.8839 C.2       16 UNK         0.5000 
     93 O          -7.9229  -25.8919  -50.4655 O.2       16 UNK        -0.5000 
     94 N          -6.6963  -24.5474  -49.1015 N.am      17 UNK        -0.5000 
     95 CA         -7.6372  -23.4439  -48.8796 C.3       17 UNK         0.1400 
     96 CB         -8.9468  -23.9307  -48.2237 C.3       17 UNK        -0.1800 
     97 C          -7.8522  -22.6218  -50.1663 C.2       17 UNK         0.5000 
     98 O          -8.9832  -22.2545  -50.4891 O.2       17 UNK        -0.5000 
     99 N          -6.7386  -22.3621  -50.8682 N.am      18 UNK        -0.5000 
    100 CA        -6.6257  -21.6659  -52.1523 C.3       18 UNK         0.1400 
    101 CB        -6.9180  -20.1621  -51.9772 C.3       18 UNK        -0.1800 
    102 C         -7.4738  -22.3277  -53.2606 C.2       18 UNK         0.5000 
    103 O         -8.3643  -21.6950  -53.8340 O.2       18 UNK        -0.5000 
    104 N         -7.2017  -23.6132  -53.5183 N.am      19 UNK        -0.5000 
    105 CA        -7.9001  -24.4533  -54.4900 C.3       19 UNK         0.1400 
    106 CB        -7.5979  -25.9290  -54.1802 C.3       19 UNK        -0.1800 
    107 C         -7.5385  -24.0806  -55.9419 C.2       19 UNK         0.5000 
    108 O         -6.6725  -24.7156  -56.5464 O.2       19 UNK        -0.5000 
    109 N         -8.2073  -23.0418  -56.4623 N.am      20 UNK        -0.5000 
    110 CA        -8.1041  -22.4914  -57.8226 C.3       20 UNK         0.1400 
    111 CB        -8.5287  -23.5363  -58.8760 C.3       20 UNK        -0.1800 
    112 C         -6.7396  -21.8429  -58.1484 C.2       20 UNK         0.5000 
    113 O         -6.4326  -21.6110  -59.3192 O.2       20 UNK        -0.5000 
    114 N         -5.9607  -21.5301  -57.1104 N.am      21 UNK        -0.5000 
    115 CA        -4.6706  -20.8560  -57.1507 C.3       21 UNK         0.1400 
    116 CB        -3.5642  -21.8461  -57.5552 C.3       21 UNK        -0.1800 
    117 C         -4.4160  -20.2895  -55.7495 C.2       21 UNK         0.5000 
    118 O         -4.9365  -20.8389  -54.7765 O.2       21 UNK        -0.5000 
    119 N         -3.6224  -19.2154  -55.6633 N.am      22 UNK        -0.5000 
    120 CA        -3.2975  -18.5085  -54.4095 C.3       22 UNK         0.1400 
    121 C         -4.4904  -17.7074  -53.7919 C.2       22 UNK         0.5000 
    122 N         -5.5376  -17.4019  -54.5491 N.am      22 UNK        -0.7600 
    123 O         -4.4672  -17.3310  -52.6241 O.2       22 UNK        -0.5000 
    124 C124       -2.5697  -19.4358  -53.3915 C.3       23 UNK        -0.0398 
    125 S125       -1.3954  -18.5555  -52.3123 S.3       23 UNK        -0.2404 
    126 C126        0.1235  -18.5858  -53.3151 C.3       23 UNK        -0.0205 
    127 H127        0.3880  -11.8491  -45.8630 H         1 UNK         0.0600 
    128 H128       -0.2433  -10.8844  -47.1998 H         1 UNK         0.0600 
    129 H129        0.7951  -10.1367  -45.9809 H         1 UNK         0.0600 
    130 H130        1.9913  -13.2198  -46.5672 H         1 UNK         0.3000 
    131 H131        3.9693  -12.3334  -48.6274 H         1 UNK         0.0600 
    132 H132        4.1679  -14.8143  -49.1400 H         1 UNK         0.0800 
    133 H133        2.7597  -15.1114  -48.1536 H         1 UNK         0.0800 
    134 H134        2.7724  -14.3610  -52.5046 H         1 UNK         0.0800 
    135 H135        4.1263  -14.7144  -51.4681 H         1 UNK         0.0800 
    136 H136        1.1512  -16.0568  -53.0997 H         1 UNK         0.1150 
    137 H137        1.6346  -20.0460  -51.6213 H         1 UNK         0.1150 
    138 H138        4.0695  -16.8886  -50.0634 H         1 UNK         0.1150 
    139 H139        3.2832  -20.5573  -49.9675 H         1 UNK         0.0800 
    140 H140        4.5636  -19.4142  -49.6391 H         1 UNK         0.0800 
    141 H141        0.7649  -19.3251  -49.4133 H         1 UNK         0.0800 
    142 H142        0.4947  -18.3964  -47.9868 H         1 UNK         0.0800 
    143 H143        0.9994  -21.4036  -47.8527 H         1 UNK         0.0600 
    144 H144        0.2107  -19.4463  -45.8884 H         1 UNK         0.3000 
    145 H145       -0.9355  -21.7752  -43.4494 H         1 UNK         0.0600 
    146 H146        0.7845  -20.6743  -42.0903 H         1 UNK         0.0600 
    147 H147        1.5801  -21.7139  -43.2575 H         1 UNK         0.0600 
    148 H148        1.5462  -19.9740  -43.5185 H         1 UNK         0.0600 
    149 H149       -0.6440  -18.9129  -43.4993 H         1 UNK         0.3000 
    150 H150       -3.7591  -18.1438  -44.9783 H         1 UNK         0.0600 
    151 H151       -4.4887  -18.6856  -42.6558 H         1 UNK         0.0600 
    152 H152       -4.2563  -16.9595  -42.8812 H         1 UNK         0.0600 
    153 H153       -3.0536  -17.9025  -42.0096 H         1 UNK         0.0600 
    154 H154       -1.8647  -16.4969  -43.6643 H         1 UNK         0.3000 
    155 H155        0.5155  -16.2311  -46.1620 H         1 UNK         0.0600 
    156 H156       -1.8111  -14.2446  -46.3841 H         1 UNK         0.0600 
    157 H157       -0.1730  -14.0128  -46.9944 H         1 UNK         0.0600 
    158 H158       -1.2066  -15.2310  -47.7117 H         1 UNK         0.0600 
    159 H159       -0.7610  -15.3030  -43.7220 H         1 UNK         0.3000 
    160 H160        2.1769  -13.6661  -42.6137 H         1 UNK         0.0600 
    161 H161       -0.8083  -12.9806  -42.5835 H         1 UNK         0.0600 
    162 H162        0.4794  -11.9571  -43.2034 H         1 UNK         0.0600 
    163 H163        0.4165  -12.3406  -41.4903 H         1 UNK         0.0600 
    164 H164        1.7438  -15.1916  -41.1334 H         1 UNK         0.3000 
    165 H165       -1.0080  -16.5397  -39.6081 H         1 UNK         0.0600 
    166 H166       -0.0307  -18.8318  -39.8520 H         1 UNK         0.0600 
    167 H167       -0.9608  -18.3800  -41.2658 H         1 UNK         0.0600 
    168 H168        0.7939  -18.3278  -41.3253 H         1 UNK         0.0600 
    169 H169        1.8533  -17.0558  -39.4975 H         1 UNK         0.3000 
    170 H170        2.7701  -14.2473  -37.6852 H         1 UNK         0.0600 
    171 H171        2.2224  -16.9294  -36.3006 H         1 UNK         0.0600 
    172 H172        3.3655  -15.6991  -35.7592 H         1 UNK         0.0600 
    173 H173        1.6426  -15.3612  -35.7527 H         1 UNK         0.0600 
    174 H174        4.0389  -16.7886  -37.9641 H         1 UNK         0.3000 
    175 H175        6.2026  -16.0055  -39.9503 H         1 UNK         0.0600 
    176 H176        6.0980  -18.5268  -40.1030 H         1 UNK         0.0600 
    177 H177        4.3751  -18.4652  -39.7519 H         1 UNK         0.0600 
    178 H178        5.5503  -17.9220  -38.5550 H         1 UNK         0.0600 
    179 H179        5.9941  -16.1065  -42.1518 H         1 UNK         0.3000 
    180 H180        5.3343  -17.2923  -44.2436 H         1 UNK         0.0600 
    181 H181        3.3877  -17.2305  -45.8457 H         1 UNK         0.0600 
    182 H182        2.2865  -17.0796  -44.4802 H         1 UNK         0.0600 
    183 H183        3.2676  -18.5250  -44.6637 H         1 UNK         0.0600 
    184 H184        3.6479  -14.9552  -44.6723 H         1 UNK         0.3000 
    185 H185        4.9131  -12.6407  -43.6749 H         1 UNK         0.0600 
    186 H186        7.3543  -12.4120  -43.7942 H         1 UNK         0.0600 
    187 H187        7.3685  -12.8568  -45.4938 H         1 UNK         0.0600 
    188 H188        6.6200  -11.3455  -44.9793 H         1 UNK         0.0600 
    189 H189        3.6622  -12.4475  -45.4809 H         1 UNK         0.3000 
    190 H190       -1.9972  -19.5008  -47.2667 H         1 UNK         0.3000 
    191 H191       -3.4624  -20.4912  -49.4806 H         1 UNK         0.0600 
    192 H192       -4.1414  -18.5108  -48.1162 H         1 UNK         0.0600 
    193 H193       -5.4445  -19.6826  -48.2551 H         1 UNK         0.0600 
    194 H194       -4.5263  -19.5705  -46.7603 H         1 UNK         0.0600 
    195 H195       -3.1680  -21.7645  -46.1305 H         1 UNK         0.3000 
    196 H196       -4.8545  -24.0206  -46.4353 H         1 UNK         0.0600 
    197 H197       -3.6704  -24.8531  -44.4016 H         1 UNK         0.0600 
    198 H198       -4.1335  -23.1669  -44.2307 H         1 UNK         0.0600 
    199 H199       -2.4586  -23.5898  -44.5755 H         1 UNK         0.0600 
    200 H200       -1.3109  -23.6626  -46.9887 H         1 UNK         0.3000 
    201 H201       -0.8015  -26.3385  -47.7840 H         1 UNK         0.0600 
    202 H202        0.9809  -24.7281  -47.1430 H         1 UNK         0.0600 
    203 H203        0.6533  -23.7620  -48.5800 H         1 UNK         0.0600 
    204 H204        1.2877  -25.3930  -48.7401 H         1 UNK         0.0600 
    205 H205       -2.0368  -23.5649  -49.6021 H         1 UNK         0.3000 
    206 H206       -2.1465  -24.9452  -52.1702 H         1 UNK         0.0600 
    207 H207       -1.7818  -22.4788  -51.9954 H         1 UNK         0.0600 
    208 H208       -3.2275  -22.8489  -52.9186 H         1 UNK         0.0600 
    209 H209       -3.3676  -22.2890  -51.2576 H         1 UNK         0.0600 
    210 H210       -3.7070  -25.8578  -49.5758 H         1 UNK         0.3000 
    211 H211       -5.5004  -27.0130  -49.0672 H         1 UNK         0.0600 
    212 H212       -5.9858  -27.2691  -52.0789 H         1 UNK         0.0600 
    213 H213       -6.6952  -28.2790  -50.8278 H         1 UNK         0.0600 
    214 H214       -4.9618  -28.3189  -51.1044 H         1 UNK         0.0600 
    215 H215       -5.7620  -24.3780  -48.7483 H         1 UNK         0.3000 
    216 H216       -7.1542  -22.7716  -48.1692 H         1 UNK         0.0600 
    217 H217       -9.5670  -23.0852  -47.9245 H         1 UNK         0.0600 
    218 H218       -8.7446  -24.5176  -47.3278 H         1 UNK         0.0600 
    219 H219       -9.5418  -24.5439  -48.9007 H         1 UNK         0.0600 
    220 H220       -5.8686  -22.7088  -50.4814 H         1 UNK         0.3000 
    221 H221       -5.5839  -21.7657  -52.4562 H         1 UNK         0.0600 
    222 H222       -7.9411  -19.9807  -51.6475 H         1 UNK         0.0600 
    223 H223       -6.2431  -19.7119  -51.2492 H         1 UNK         0.0600 
    224 H224       -6.7791  -19.6299  -52.9187 H         1 UNK         0.0600 
    225 H225       -6.4276  -24.0545  -53.0241 H         1 UNK         0.3000 
    226 H226       -8.9749  -24.3071  -54.3635 H         1 UNK         0.0600 
    227 H227       -7.9534  -26.2012  -53.1867 H         1 UNK         0.0600 
    228 H228       -8.0931  -26.5888  -54.8935 H         1 UNK         0.0600 
    229 H229       -6.5285  -26.1391  -54.2234 H         1 UNK         0.0600 
    230 H230       -8.8198  -22.5335  -55.8345 H         1 UNK         0.3000 
    231 H231       -8.8298  -21.6781  -57.8648 H         1 UNK         0.0600 
    232 H232       -7.8075  -24.3502  -58.9543 H         1 UNK         0.0600 
    233 H233       -8.6154  -23.0836  -59.8643 H         1 UNK         0.0600 
    234 H234       -9.4994  -23.9691  -58.6342 H         1 UNK         0.0600 
    235 H235       -6.2866  -21.7261  -56.1716 H         1 UNK         0.3000 
    236 H236       -4.7149  -20.0318  -57.8654 H         1 UNK         0.0600 
    237 H237       -3.7336  -22.2445  -58.5555 H         1 UNK         0.0600 
    238 H238       -2.5872  -21.3614  -57.5607 H         1 UNK         0.0600 
    239 H239       -3.5106  -22.6890  -56.8647 H         1 UNK         0.0600 
    240 H240       -3.2334  -18.8186  -56.5072 H         1 UNK         0.3000 
    241 H241       -2.5870  -17.7400  -54.7153 H         1 UNK         0.0600 
    242 H242       -5.5773  -17.6844  -55.5147 H         1 UNK         0.3800 
    243 H243       -6.2983  -16.8760  -54.1489 H         1 UNK         0.3800 
    244 H244       -3.2923  -19.9608  -52.7644 H         1 UNK         0.0800 
    245 H245       -2.0173  -20.2182  -53.9133 H         1 UNK         0.0800 
    246 H246        0.3135  -19.5979  -53.6757 H         1 UNK         0.0800 
    247 H247       -0.0019  -17.9547  -54.1961 H         1 UNK         0.0800 
@<TRIPOS>BOND
     1    1    2 1    
     2    1  127 1    
     3    1  128 1    
     4    1  129 1    
     5    2    3 2    
     6    2    4 am   BACKBONE|DICT|INTERRES
     7    4    5 1    
     8    4  130 1    
     9    5    6 1    
    10    5   65 1    
    11    5  131 1    
    12    6    7 1    
    13    6  132 1    
    14    6  133 1    
    15    7    8 1    
    16    8    9 1    
    17    8  134 1    
    18    8  135 1    
    19    9   10 ar   
    20    9   14 ar   
    21   10   11 ar   
    22   10  136 1    
    23   11   12 ar   
    24   11  126 1    
    25   12   13 ar   
    26   12  137 1    
    27   13   14 ar   
    28   13   15 1    
    29   14  138 1    
    30   15   16 1    
    31   15  139 1    
    32   15  140 1    
    33   16   17 1    
    34   17   18 1    
    35   17  141 1    
    36   17  142 1    
    37   18   19 1    
    38   18   67 1    
    39   18  143 1    
    40   19   20 am   BACKBONE|DICT|INTERRES
    41   19  144 1    
    42   20   21 2    
    43   20   22 1    
    44   22   23 1    
    45   22   24 1    
    46   22  145 1    
    47   23  146 1    
    48   23  147 1    
    49   23  148 1    
    50   24   25 am   BACKBONE|DICT|INTERRES
    51   24  149 1    
    52   25   26 2    
    53   25   27 1    
    54   27   28 1    
    55   27   29 1    
    56   27  150 1    
    57   28  151 1    
    58   28  152 1    
    59   28  153 1    
    60   29   30 am   BACKBONE|DICT|INTERRES
    61   29  154 1    
    62   30   31 2    
    63   30   32 1    
    64   32   33 1    
    65   32   34 1    
    66   32  155 1    
    67   33  156 1    
    68   33  157 1    
    69   33  158 1    
    70   34   35 am   BACKBONE|DICT|INTERRES
    71   34  159 1    
    72   35   36 2    
    73   35   37 1    
    74   37   38 1    
    75   37   39 1    
    76   37  160 1    
    77   38  161 1    
    78   38  162 1    
    79   38  163 1    
    80   39   40 am   BACKBONE|DICT|INTERRES
    81   39  164 1    
    82   40   41 2    
    83   40   42 1    
    84   42   43 1    
    85   42   44 1    
    86   42  165 1    
    87   43  166 1    
    88   43  167 1    
    89   43  168 1    
    90   44   45 am   BACKBONE|DICT|INTERRES
    91   44  169 1    
    92   45   46 2    
    93   45   47 1    
    94   47   48 1    
    95   47   49 1    
    96   47  170 1    
    97   48  171 1    
    98   48  172 1    
    99   48  173 1    
   100   49   50 am   BACKBONE|DICT|INTERRES
   101   49  174 1    
   102   50   51 2    
   103   50   52 1    
   104   52   53 1    
   105   52   54 1    
   106   52  175 1    
   107   53  176 1    
   108   53  177 1    
   109   53  178 1    
   110   54   55 am   BACKBONE|DICT|INTERRES
   111   54  179 1    
   112   55   56 2    
   113   55   57 1    
   114   57   58 1    
   115   57   59 1    
   116   57  180 1    
   117   58  181 1    
   118   58  182 1    
   119   58  183 1    
   120   59   60 am   BACKBONE|DICT|INTERRES
   121   59  184 1    
   122   60   61 2    
   123   60   62 1    
   124   62   63 1    
   125   62   64 1    
   126   62  185 1    
   127   63  186 1    
   128   63  187 1    
   129   63  188 1    
   130   64   65 am   BACKBONE|DICT|INTERRES
   131   64  189 1    
   132   65   66 2    
   133   67   68 2    
   134   67   69 am   BACKBONE|DICT|INTERRES
   135   69   70 1    
   136   69  190 1    
   137   70   71 1    
   138   70   72 1    
   139   70  191 1    
   140   71  192 1    
   141   71  193 1    
   142   71  194 1    
   143   72   73 2    
   144   72   74 am   BACKBONE|DICT|INTERRES
   145   74   75 1    
   146   74  195 1    
   147   75   76 1    
   148   75   77 1    
   149   75  196 1    
   150   76  197 1    
   151   76  198 1    
   152   76  199 1    
   153   77   78 2    
   154   77   79 am   BACKBONE|DICT|INTERRES
   155   79   80 1    
   156   79  200 1    
   157   80   81 1    
   158   80   82 1    
   159   80  201 1    
   160   81  202 1    
   161   81  203 1    
   162   81  204 1    
   163   82   83 2    
   164   82   84 am   BACKBONE|DICT|INTERRES
   165   84   85 1    
   166   84  205 1    
   167   85   86 1    
   168   85   87 1    
   169   85  206 1    
   170   86  207 1    
   171   86  208 1    
   172   86  209 1    
   173   87   88 2    
   174   87   89 am   BACKBONE|DICT|INTERRES
   175   89   90 1    
   176   89  210 1    
   177   90   91 1    
   178   90   92 1    
   179   90  211 1    
   180   91  212 1    
   181   91  213 1    
   182   91  214 1    
   183   92   93 2    
   184   92   94 am   BACKBONE|DICT|INTERRES
   185   94   95 1    
   186   94  215 1    
   187   95   96 1    
   188   95   97 1    
   189   95  216 1    
   190   96  217 1    
   191   96  218 1    
   192   96  219 1    
   193   97   98 2    
   194   97   99 am   BACKBONE|DICT|INTERRES
   195   99  100 1    
   196   99  220 1    
   197  100  101 1    
   198  100  102 1    
   199  100  221 1    
   200  101  222 1    
   201  101  223 1    
   202  101  224 1    
   203  102  103 2    
   204  102  104 am   BACKBONE|DICT|INTERRES
   205  104  105 1    
   206  104  225 1    
   207  105  106 1    
   208  105  107 1    
   209  105  226 1    
   210  106  227 1    
   211  106  228 1    
   212  106  229 1    
   213  107  108 2    
   214  107  109 am   BACKBONE|DICT|INTERRES
   215  109  110 1    
   216  109  230 1    
   217  110  111 1    
   218  110  112 1    
   219  110  231 1    
   220  111  232 1    
   221  111  233 1    
   222  111  234 1    
   223  112  113 2    
   224  112  114 am   BACKBONE|DICT|INTERRES
   225  114  115 1    
   226  114  235 1    
   227  115  116 1    
   228  115  117 1    
   229  115  236 1    
   230  116  237 1    
   231  116  238 1    
   232  116  239 1    
   233  117  118 2    
   234  117  119 am   BACKBONE|DICT|INTERRES
   235  119  120 1    
   236  119  240 1    
   237  120  121 1    
   238  120  124 1    
   239  120  241 1    
   240  121  122 am   BACKBONE|DICT|INTERRES
   241  121  123 2    
   242  122  242 1    
   243  122  243 1    
   244  124  125 1    
   245  124  244 1    
   246  124  245 1    
   247  125  126 1    
   248  126  246 1    
   249  126  247 1    
@<TRIPOS>SUBSTRUCTURE
     1 UNK         1 GROUP             0       ****    0 ROOT    
