@<TRIPOS>MOLECULE
3R540
247   249    1
SMALL
USER_CHARGES


@<TRIPOS>ATOM
      1 CA         -5.0305  -15.6178  -43.7929 C.3       0 UNK        -0.1800 
      2 C          -4.8711  -16.7364  -44.8210 C.2       0 UNK         0.5000 
      3 O          -5.4991  -17.7817  -44.6773 O.2       0 UNK        -0.5000 
      4 N          -4.0625  -16.5670  -45.8755 N.am      1 UNK        -0.5000 
      5 CA         -3.2122  -15.4061  -46.1609 C.3       1 UNK         0.1400 
      6 C6         -2.8785  -15.2902  -47.6697 C.3       23 UNK        -0.0398 
      7 S7         -2.1773  -16.8121  -48.4056 S.3       23 UNK        -0.2404 
      8 C8         -0.6414  -16.1766  -49.1445 C.3       23 UNK        -0.0205 
      9 C9          0.0382  -17.2668  -49.9540 C.ar      23 UNK        -0.0193 
     10 C10        -0.3485  -17.5025  -51.2756 C.ar      23 UNK        -0.1150 
     11 C11         0.2059  -18.5603  -52.0006 C.ar      23 UNK        -0.0193 
     12 C12         1.1658  -19.3790  -51.3962 C.ar      23 UNK        -0.1150 
     13 C13         1.5676  -19.1457  -50.0774 C.ar      23 UNK        -0.0193 
     14 C14         1.0129  -18.0763  -49.3674 C.ar      23 UNK        -0.1150 
     15 C15         2.5592  -20.0794  -49.3968 C.3       23 UNK        -0.0205 
     16 S16         1.7667  -21.6037  -48.7817 S.3       23 UNK        -0.2404 
     17 C17         0.4439  -20.9323  -47.7213 C.3       23 UNK        -0.0398 
     18 CA         -0.4361  -22.0396  -47.1034 C.3       11 UNK         0.1400 
     19 N           0.2451  -22.7551  -46.0225 N.am      11 UNK        -0.5000 
     20 C          -0.1689  -23.9281  -45.5209 C.2       10 UNK         0.5000 
     21 O          -1.1550  -24.5325  -45.9384 O.2       10 UNK        -0.5000 
     22 CA          0.6046  -24.4975  -44.3148 C.3       10 UNK         0.1400 
     23 CB          1.7641  -25.3837  -44.7922 C.3       10 UNK        -0.1800 
     24 N           1.1278  -23.4626  -43.4231 N.am      10 UNK        -0.5000 
     25 C           0.3920  -22.5224  -42.8145 C.2       9 UNK         0.5000 
     26 O          -0.8386  -22.4928  -42.8563 O.2       9 UNK        -0.5000 
     27 CA          1.1538  -21.3891  -42.0975 C.3       9 UNK         0.1400 
     28 CB          1.1359  -21.6094  -40.5781 C.3       9 UNK        -0.1800 
     29 N           2.5425  -21.1982  -42.5401 N.am      9 UNK        -0.5000 
     30 C           2.9299  -20.9023  -43.7889 C.2       8 UNK         0.5000 
     31 O           2.1622  -20.8570  -44.7522 O.2       8 UNK        -0.5000 
     32 CA          4.4334  -20.6699  -44.0124 C.3       8 UNK         0.1400 
     33 CB          5.0593  -21.8851  -44.7142 C.3       8 UNK        -0.1800 
     34 N           4.6691  -19.4754  -44.8232 N.am      8 UNK        -0.5000 
     35 C           4.4888  -18.2202  -44.3937 C.2       7 UNK         0.5000 
     36 O           4.1587  -17.9320  -43.2406 O.2       7 UNK        -0.5000 
     37 CA          4.7228  -17.1061  -45.4259 C.3       7 UNK         0.1400 
     38 CB          3.5846  -17.0376  -46.4600 C.3       7 UNK        -0.1800 
     39 N           4.8312  -15.8217  -44.7423 N.am      7 UNK        -0.5000 
     40 C           5.5377  -14.7697  -45.1636 C.2       6 UNK         0.5000 
     41 O           6.1772  -14.7558  -46.2174 O.2       6 UNK        -0.5000 
     42 CA          5.4840  -13.5143  -44.2696 C.3       6 UNK         0.1400 
     43 CB          6.5868  -12.4961  -44.6124 C.3       6 UNK        -0.1800 
     44 N           4.1834  -12.8543  -44.3861 N.am      6 UNK        -0.5000 
     45 C           3.0716  -13.2293  -43.7435 C.2       5 UNK         0.5000 
     46 O           3.0327  -14.1568  -42.9321 O.2       5 UNK        -0.5000 
     47 CA          1.7950  -12.4450  -44.0779 C.3       5 UNK         0.1400 
     48 CB          1.2836  -12.7896  -45.4897 C.3       5 UNK        -0.1800 
     49 N           0.7631  -12.7474  -43.0888 N.am      5 UNK        -0.5000 
     50 C          -0.2411  -11.9309  -42.7461 C.2       4 UNK         0.5000 
     51 O          -0.4003  -10.8139  -43.2425 O.2       4 UNK        -0.5000 
     52 CA         -1.2283  -12.4404  -41.6764 C.3       4 UNK         0.1400 
     53 CB         -2.6208  -11.7916  -41.7909 C.3       4 UNK        -0.1800 
     54 N          -1.3738  -13.8930  -41.7459 N.am      4 UNK        -0.5000 
     55 C          -1.4366  -14.7214  -40.6931 C.2       3 UNK         0.5000 
     56 O          -1.3722  -14.3396  -39.5240 O.2       3 UNK        -0.5000 
     57 CA         -1.6028  -16.2315  -40.9784 C.3       3 UNK         0.1400 
     58 CB         -3.0157  -16.7076  -40.6064 C.3       3 UNK        -0.1800 
     59 N          -1.3359  -16.5846  -42.3734 N.am      3 UNK        -0.5000 
     60 C          -0.1167  -16.6006  -42.9267 C.2       2 UNK         0.5000 
     61 O           0.9169  -16.4390  -42.2823 O.2       2 UNK        -0.5000 
     62 CA         -0.0363  -16.7834  -44.4541 C.3       2 UNK         0.1400 
     63 CB          0.5192  -18.1644  -44.8129 C.3       2 UNK        -0.1800 
     64 N          -1.3019  -16.5824  -45.1652 N.am      2 UNK        -0.5000 
     65 C          -1.9405  -15.4107  -45.2902 C.2       1 UNK         0.5000 
     66 O          -1.5966  -14.3840  -44.7073 O.2       1 UNK        -0.5000 
     67 C          -1.7933  -21.4594  -46.6559 C.2       11 UNK         0.5000 
     68 O          -2.7178  -21.4177  -47.4679 O.2       11 UNK        -0.5000 
     69 N          -1.9105  -21.0470  -45.3847 N.am      12 UNK        -0.5000 
     70 CA         -3.1734  -20.5922  -44.7980 C.3       12 UNK         0.1400 
     71 CB         -2.9118  -19.8104  -43.5008 C.3       12 UNK        -0.1800 
     72 C          -4.1323  -21.7688  -44.5531 C.2       12 UNK         0.5000 
     73 O          -5.3235  -21.6496  -44.8372 O.2       12 UNK        -0.5000 
     74 N          -3.5857  -22.8979  -44.0786 N.am      13 UNK        -0.5000 
     75 CA         -4.3140  -24.1508  -43.8697 C.3       13 UNK         0.1400 
     76 CB         -3.4120  -25.1477  -43.1266 C.3       13 UNK        -0.1800 
     77 C          -4.8454  -24.7606  -45.1823 C.2       13 UNK         0.5000 
     78 O          -5.9879  -25.2183  -45.2213 O.2       13 UNK        -0.5000 
     79 N          -4.0184  -24.7326  -46.2365 N.am      14 UNK        -0.5000 
     80 CA         -4.3640  -25.1999  -47.5808 C.3       14 UNK         0.1400 
     81 CB         -3.0672  -25.4384  -48.3710 C.3       14 UNK        -0.1800 
     82 C          -5.2766  -24.2320  -48.3592 C.2       14 UNK         0.5000 
     83 O          -5.8890  -24.6554  -49.3400 O.2       14 UNK        -0.5000 
     84 N          -5.3234  -22.9597  -47.9334 N.am      15 UNK        -0.5000 
     85 CA         -5.9549  -21.8177  -48.6045 C.3       15 UNK         0.1400 
     86 CB         -7.4889  -21.9707  -48.6498 C.3       15 UNK        -0.1800 
     87 C          -5.3231  -21.5695  -49.9895 C.2       15 UNK         0.5000 
     88 O          -6.0242  -21.4861  -51.0001 O.2       15 UNK        -0.5000 
     89 N          -3.9862  -21.4842  -50.0041 N.am      16 UNK        -0.5000 
     90 CA         -3.1419  -21.4361  -51.1988 C.3       16 UNK         0.1400 
     91 CB         -1.6707  -21.4023  -50.7707 C.3       16 UNK        -0.1800 
     92 C          -3.4470  -20.2687  -52.1523 C.2       16 UNK         0.5000 
     93 O          -3.3241  -20.4419  -53.3648 O.2       16 UNK        -0.5000 
     94 N          -3.8591  -19.1192  -51.5996 N.am      17 UNK        -0.5000 
     95 CA         -4.2793  -17.9391  -52.3579 C.3       17 UNK         0.1400 
     96 CB         -4.3559  -16.7252  -51.4205 C.3       17 UNK        -0.1800 
     97 C          -5.6188  -18.1351  -53.0910 C.2       17 UNK         0.5000 
     98 O          -5.7859  -17.6054  -54.1894 O.2       17 UNK        -0.5000 
     99 N          -6.5393  -18.8992  -52.4863 N.am      18 UNK        -0.5000 
    100 CA        -7.8341  -19.2458  -53.0756 C.3       18 UNK         0.1400 
    101 CB        -8.8149  -19.6573  -51.9666 C.3       18 UNK        -0.1800 
    102 C         -7.6899  -20.3613  -54.1242 C.2       18 UNK         0.5000 
    103 O         -8.3519  -20.3147  -55.1615 O.2       18 UNK        -0.5000 
    104 N         -6.8008  -21.3248  -53.8462 N.am      19 UNK        -0.5000 
    105 CA        -6.4257  -22.4063  -54.7581 C.3       19 UNK         0.1400 
    106 CB        -5.6606  -23.4747  -53.9615 C.3       19 UNK        -0.1800 
    107 C         -5.5780  -21.9292  -55.9558 C.2       19 UNK         0.5000 
    108 O         -5.5441  -22.6153  -56.9778 O.2       19 UNK        -0.5000 
    109 N         -4.8954  -20.7848  -55.7921 N.am      20 UNK        -0.5000 
    110 CA        -3.9013  -20.1892  -56.6924 C.3       20 UNK         0.1400 
    111 CB        -4.5440  -19.7546  -58.0253 C.3       20 UNK        -0.1800 
    112 C         -2.6674  -21.0988  -56.8758 C.2       20 UNK         0.5000 
    113 O         -2.0952  -21.1689  -57.9655 O.2       20 UNK        -0.5000 
    114 N         -2.2798  -21.7842  -55.7904 N.am      21 UNK        -0.5000 
    115 CA        -1.2489  -22.8266  -55.7579 C.3       21 UNK         0.1400 
    116 CB        -1.2815  -23.5031  -54.3789 C.3       21 UNK        -0.1800 
    117 C          0.1715  -22.3224  -56.0800 C.2       21 UNK         0.5000 
    118 O          1.0096  -23.1039  -56.5307 O.2       21 UNK        -0.5000 
    119 N          0.4036  -21.0277  -55.8480 N.am      22 UNK        -0.5000 
    120 CA         1.6405  -20.2985  -56.1552 C.3       22 UNK         0.1400 
    121 C          1.6627  -19.6676  -57.5804 C.2       22 UNK         0.5000 
    122 N          0.6286  -19.8212  -58.4015 N.am      22 UNK        -0.7600 
    123 O          2.6493  -19.0428  -57.9605 O.2       22 UNK        -0.5000 
    124 C124        1.9810  -19.2789  -55.0331 C.3       23 UNK        -0.0398 
    125 S125        0.6665  -18.0487  -54.7084 S.3       23 UNK        -0.2404 
    126 C126       -0.3042  -18.8627  -53.4005 C.3       23 UNK        -0.0205 
    127 H127       -4.0704  -15.2890  -43.3988 H         1 UNK         0.0600 
    128 H128       -5.6341  -15.9581  -42.9512 H         1 UNK         0.0600 
    129 H129       -5.5358  -14.7611  -44.2385 H         1 UNK         0.0600 
    130 H130       -4.0023  -17.3079  -46.5591 H         1 UNK         0.3000 
    131 H131       -3.7682  -14.5039  -45.8987 H         1 UNK         0.0600 
    132 H132       -2.2131  -14.4435  -47.8489 H         1 UNK         0.0800 
    133 H133       -3.7919  -15.0591  -48.2195 H         1 UNK         0.0800 
    134 H134        0.0215  -15.8126  -48.3577 H         1 UNK         0.0800 
    135 H135       -0.8665  -15.3245  -49.7878 H         1 UNK         0.0800 
    136 H136       -1.1106  -16.8846  -51.7283 H         1 UNK         0.1150 
    137 H137        1.5729  -20.2232  -51.9334 H         1 UNK         0.1150 
    138 H138        1.3024  -17.9042  -48.3407 H         1 UNK         0.1150 
    139 H139        3.0532  -19.5754  -48.5667 H         1 UNK         0.0800 
    140 H140        3.3482  -20.3497  -50.1000 H         1 UNK         0.0800 
    141 H141       -0.1681  -20.2705  -48.3330 H         1 UNK         0.0800 
    142 H142        0.8895  -20.3073  -46.9489 H         1 UNK         0.0800 
    143 H143       -0.6611  -22.7661  -47.8871 H         1 UNK         0.0600 
    144 H144        1.0453  -22.2865  -45.6083 H         1 UNK         0.3000 
    145 H145       -0.0864  -25.1145  -43.7376 H         1 UNK         0.0600 
    146 H146        1.4036  -26.1794  -45.4456 H         1 UNK         0.0600 
    147 H147        2.2700  -25.8592  -43.9518 H         1 UNK         0.0600 
    148 H148        2.5052  -24.8102  -45.3508 H         1 UNK         0.0600 
    149 H149        2.1313  -23.4035  -43.3385 H         1 UNK         0.3000 
    150 H150        0.6161  -20.4631  -42.3120 H         1 UNK         0.0600 
    151 H151        1.6910  -22.5047  -40.2953 H         1 UNK         0.0600 
    152 H152        0.1150  -21.7262  -40.2113 H         1 UNK         0.0600 
    153 H153        1.5725  -20.7610  -40.0508 H         1 UNK         0.0600 
    154 H154        3.2436  -21.2348  -41.8142 H         1 UNK         0.3000 
    155 H155        4.9252  -20.5362  -43.0464 H         1 UNK         0.0600 
    156 H156        4.6108  -22.0606  -45.6933 H         1 UNK         0.0600 
    157 H157        4.9220  -22.7918  -44.1237 H         1 UNK         0.0600 
    158 H158        6.1318  -21.7501  -44.8557 H         1 UNK         0.0600 
    159 H159        4.9082  -19.6351  -45.7906 H         1 UNK         0.3000 
    160 H160        5.6622  -17.3288  -45.9366 H         1 UNK         0.0600 
    161 H161        2.6626  -16.6670  -46.0147 H         1 UNK         0.0600 
    162 H162        3.3742  -18.0174  -46.8865 H         1 UNK         0.0600 
    163 H163        3.8428  -16.3727  -47.2843 H         1 UNK         0.0600 
    164 H164        4.3295  -15.7651  -43.8613 H         1 UNK         0.3000 
    165 H165        5.6386  -13.8332  -43.2364 H         1 UNK         0.0600 
    166 H166        7.5750  -12.9516  -44.5375 H         1 UNK         0.0600 
    167 H167        6.4797  -12.1067  -45.6256 H         1 UNK         0.0600 
    168 H168        6.5677  -11.6499  -43.9254 H         1 UNK         0.0600 
    169 H169        4.1279  -12.1037  -45.0594 H         1 UNK         0.3000 
    170 H170        2.0388  -11.3816  -44.0301 H         1 UNK         0.0600 
    171 H171        1.0707  -13.8534  -45.5916 H         1 UNK         0.0600 
    172 H172        2.0181  -12.5283  -46.2520 H         1 UNK         0.0600 
    173 H173        0.3685  -12.2453  -45.7237 H         1 UNK         0.0600 
    174 H174        0.8914  -13.6266  -42.6023 H         1 UNK         0.3000 
    175 H175       -0.7967  -12.1566  -40.7146 H         1 UNK         0.0600 
    176 H176       -2.5620  -10.7073  -41.6897 H         1 UNK         0.0600 
    177 H177       -3.0833  -12.0106  -42.7541 H         1 UNK         0.0600 
    178 H178       -3.2891  -12.1519  -41.0087 H         1 UNK         0.0600 
    179 H179       -1.4206  -14.2720  -42.6867 H         1 UNK         0.3000 
    180 H180       -0.8896  -16.7642  -40.3456 H         1 UNK         0.0600 
    181 H181       -3.7836  -16.1761  -41.1674 H         1 UNK         0.0600 
    182 H182       -3.2147  -16.5417  -39.5469 H         1 UNK         0.0600 
    183 H183       -3.1371  -17.7746  -40.7948 H         1 UNK         0.0600 
    184 H184       -2.1353  -16.7284  -42.9699 H         1 UNK         0.3000 
    185 H185        0.6689  -16.0351  -44.8183 H         1 UNK         0.0600 
    186 H186        1.4895  -18.3156  -44.3415 H         1 UNK         0.0600 
    187 H187       -0.1316  -18.9718  -44.4816 H         1 UNK         0.0600 
    188 H188        0.6626  -18.2611  -45.8880 H         1 UNK         0.0600 
    189 H189       -1.6639  -17.3757  -45.6737 H         1 UNK         0.3000 
    190 H190       -1.1337  -21.1803  -44.7529 H         1 UNK         0.3000 
    191 H191       -3.6582  -19.9123  -45.5024 H         1 UNK         0.0600 
    192 H192       -2.3306  -18.9123  -43.6955 H         1 UNK         0.0600 
    193 H193       -3.8501  -19.4901  -43.0461 H         1 UNK         0.0600 
    194 H194       -2.3790  -20.4044  -42.7593 H         1 UNK         0.0600 
    195 H195       -2.6024  -22.8913  -43.8290 H         1 UNK         0.3000 
    196 H196       -5.1736  -23.9322  -43.2328 H         1 UNK         0.0600 
    197 H197       -3.9521  -26.0681  -42.9014 H         1 UNK         0.0600 
    198 H198       -3.0620  -24.7348  -42.1802 H         1 UNK         0.0600 
    199 H199       -2.5371  -25.4184  -43.7174 H         1 UNK         0.0600 
    200 H200       -3.0609  -24.4194  -46.1009 H         1 UNK         0.3000 
    201 H201       -4.8906  -26.1525  -47.4931 H         1 UNK         0.0600 
    202 H202       -3.2798  -25.8224  -49.3695 H         1 UNK         0.0600 
    203 H203       -2.4293  -26.1682  -47.8721 H         1 UNK         0.0600 
    204 H204       -2.4949  -24.5171  -48.4887 H         1 UNK         0.0600 
    205 H205       -4.7622  -22.7242  -47.1263 H         1 UNK         0.3000 
    206 H206       -5.7278  -20.9407  -47.9964 H         1 UNK         0.0600 
    207 H207       -7.8946  -22.1561  -47.6553 H         1 UNK         0.0600 
    208 H208       -7.9573  -21.0614  -49.0274 H         1 UNK         0.0600 
    209 H209       -7.8001  -22.7902  -49.2980 H         1 UNK         0.0600 
    210 H210       -3.5001  -21.5288  -49.1102 H         1 UNK         0.3000 
    211 H211       -3.3119  -22.3620  -51.7505 H         1 UNK         0.0600 
    212 H212       -1.0069  -21.4254  -51.6344 H         1 UNK         0.0600 
    213 H213       -1.4182  -22.2597  -50.1478 H         1 UNK         0.0600 
    214 H214       -1.4457  -20.4949  -50.2106 H         1 UNK         0.0600 
    215 H215       -3.9129  -19.0622  -50.5933 H         1 UNK         0.3000 
    216 H216       -3.5234  -17.7301  -53.1170 H         1 UNK         0.0600 
    217 H217       -3.3719  -16.4681  -51.0331 H         1 UNK         0.0600 
    218 H218       -5.0166  -16.9081  -50.5724 H         1 UNK         0.0600 
    219 H219       -4.7302  -15.8456  -51.9459 H         1 UNK         0.0600 
    220 H220       -6.2998  -19.3630  -51.6203 H         1 UNK         0.3000 
    221 H221       -8.2415  -18.3636  -53.5744 H         1 UNK         0.0600 
    222 H222       -8.4898  -20.5606  -51.4502 H         1 UNK         0.0600 
    223 H223       -8.9260  -18.8671  -51.2240 H         1 UNK         0.0600 
    224 H224       -9.8044  -19.8572  -52.3795 H         1 UNK         0.0600 
    225 H225       -6.3589  -21.3221  -52.9314 H         1 UNK         0.3000 
    226 H226       -7.3387  -22.8567  -55.1528 H         1 UNK         0.0600 
    227 H227       -6.2551  -23.8487  -53.1274 H         1 UNK         0.0600 
    228 H228       -5.4091  -24.3283  -54.5922 H         1 UNK         0.0600 
    229 H229       -4.7285  -23.0804  -53.5569 H         1 UNK         0.0600 
    230 H230       -4.9557  -20.3474  -54.8821 H         1 UNK         0.3000 
    231 H231       -3.5418  -19.2892  -56.1913 H         1 UNK         0.0600 
    232 H232       -4.8658  -20.6094  -58.6204 H         1 UNK         0.0600 
    233 H233       -3.8382  -19.1840  -58.6301 H         1 UNK         0.0600 
    234 H234       -5.4123  -19.1183  -57.8537 H         1 UNK         0.0600 
    235 H235       -2.7665  -21.5938  -54.9205 H         1 UNK         0.3000 
    236 H236       -1.5083  -23.5719  -56.5124 H         1 UNK         0.0600 
    237 H237       -1.0479  -22.7972  -53.5821 H         1 UNK         0.0600 
    238 H238       -2.2622  -23.9318  -54.1715 H         1 UNK         0.0600 
    239 H239       -0.5544  -24.3142  -54.3230 H         1 UNK         0.0600 
    240 H240       -0.3626  -20.4625  -55.5155 H         1 UNK         0.3000 
    241 H241        2.4590  -21.0205  -56.1659 H         1 UNK         0.0600 
    242 H242        0.6684  -19.4123  -59.3216 H         1 UNK         0.3800 
    243 H243       -0.1913  -20.3504  -58.1288 H         1 UNK         0.3800 
    244 H244        2.2017  -19.8165  -54.1119 H         1 UNK         0.0800 
    245 H245        2.8992  -18.7406  -55.2734 H         1 UNK         0.0800 
    246 H246       -1.3344  -18.5207  -53.4932 H         1 UNK         0.0800 
    247 H247       -0.3385  -19.9408  -53.5515 H         1 UNK         0.0800 
@<TRIPOS>BOND
     1    1    2 1    
     2    1  127 1    
     3    1  128 1    
     4    1  129 1    
     5    2    3 2    
     6    2    4 am   BACKBONE|DICT|INTERRES
     7    4    5 1    
     8    4  130 1    
     9    5    6 1    
    10    5   65 1    
    11    5  131 1    
    12    6    7 1    
    13    6  132 1    
    14    6  133 1    
    15    7    8 1    
    16    8    9 1    
    17    8  134 1    
    18    8  135 1    
    19    9   10 ar   
    20    9   14 ar   
    21   10   11 ar   
    22   10  136 1    
    23   11   12 ar   
    24   11  126 1    
    25   12   13 ar   
    26   12  137 1    
    27   13   14 ar   
    28   13   15 1    
    29   14  138 1    
    30   15   16 1    
    31   15  139 1    
    32   15  140 1    
    33   16   17 1    
    34   17   18 1    
    35   17  141 1    
    36   17  142 1    
    37   18   19 1    
    38   18   67 1    
    39   18  143 1    
    40   19   20 am   BACKBONE|DICT|INTERRES
    41   19  144 1    
    42   20   21 2    
    43   20   22 1    
    44   22   23 1    
    45   22   24 1    
    46   22  145 1    
    47   23  146 1    
    48   23  147 1    
    49   23  148 1    
    50   24   25 am   BACKBONE|DICT|INTERRES
    51   24  149 1    
    52   25   26 2    
    53   25   27 1    
    54   27   28 1    
    55   27   29 1    
    56   27  150 1    
    57   28  151 1    
    58   28  152 1    
    59   28  153 1    
    60   29   30 am   BACKBONE|DICT|INTERRES
    61   29  154 1    
    62   30   31 2    
    63   30   32 1    
    64   32   33 1    
    65   32   34 1    
    66   32  155 1    
    67   33  156 1    
    68   33  157 1    
    69   33  158 1    
    70   34   35 am   BACKBONE|DICT|INTERRES
    71   34  159 1    
    72   35   36 2    
    73   35   37 1    
    74   37   38 1    
    75   37   39 1    
    76   37  160 1    
    77   38  161 1    
    78   38  162 1    
    79   38  163 1    
    80   39   40 am   BACKBONE|DICT|INTERRES
    81   39  164 1    
    82   40   41 2    
    83   40   42 1    
    84   42   43 1    
    85   42   44 1    
    86   42  165 1    
    87   43  166 1    
    88   43  167 1    
    89   43  168 1    
    90   44   45 am   BACKBONE|DICT|INTERRES
    91   44  169 1    
    92   45   46 2    
    93   45   47 1    
    94   47   48 1    
    95   47   49 1    
    96   47  170 1    
    97   48  171 1    
    98   48  172 1    
    99   48  173 1    
   100   49   50 am   BACKBONE|DICT|INTERRES
   101   49  174 1    
   102   50   51 2    
   103   50   52 1    
   104   52   53 1    
   105   52   54 1    
   106   52  175 1    
   107   53  176 1    
   108   53  177 1    
   109   53  178 1    
   110   54   55 am   BACKBONE|DICT|INTERRES
   111   54  179 1    
   112   55   56 2    
   113   55   57 1    
   114   57   58 1    
   115   57   59 1    
   116   57  180 1    
   117   58  181 1    
   118   58  182 1    
   119   58  183 1    
   120   59   60 am   BACKBONE|DICT|INTERRES
   121   59  184 1    
   122   60   61 2    
   123   60   62 1    
   124   62   63 1    
   125   62   64 1    
   126   62  185 1    
   127   63  186 1    
   128   63  187 1    
   129   63  188 1    
   130   64   65 am   BACKBONE|DICT|INTERRES
   131   64  189 1    
   132   65   66 2    
   133   67   68 2    
   134   67   69 am   BACKBONE|DICT|INTERRES
   135   69   70 1    
   136   69  190 1    
   137   70   71 1    
   138   70   72 1    
   139   70  191 1    
   140   71  192 1    
   141   71  193 1    
   142   71  194 1    
   143   72   73 2    
   144   72   74 am   BACKBONE|DICT|INTERRES
   145   74   75 1    
   146   74  195 1    
   147   75   76 1    
   148   75   77 1    
   149   75  196 1    
   150   76  197 1    
   151   76  198 1    
   152   76  199 1    
   153   77   78 2    
   154   77   79 am   BACKBONE|DICT|INTERRES
   155   79   80 1    
   156   79  200 1    
   157   80   81 1    
   158   80   82 1    
   159   80  201 1    
   160   81  202 1    
   161   81  203 1    
   162   81  204 1    
   163   82   83 2    
   164   82   84 am   BACKBONE|DICT|INTERRES
   165   84   85 1    
   166   84  205 1    
   167   85   86 1    
   168   85   87 1    
   169   85  206 1    
   170   86  207 1    
   171   86  208 1    
   172   86  209 1    
   173   87   88 2    
   174   87   89 am   BACKBONE|DICT|INTERRES
   175   89   90 1    
   176   89  210 1    
   177   90   91 1    
   178   90   92 1    
   179   90  211 1    
   180   91  212 1    
   181   91  213 1    
   182   91  214 1    
   183   92   93 2    
   184   92   94 am   BACKBONE|DICT|INTERRES
   185   94   95 1    
   186   94  215 1    
   187   95   96 1    
   188   95   97 1    
   189   95  216 1    
   190   96  217 1    
   191   96  218 1    
   192   96  219 1    
   193   97   98 2    
   194   97   99 am   BACKBONE|DICT|INTERRES
   195   99  100 1    
   196   99  220 1    
   197  100  101 1    
   198  100  102 1    
   199  100  221 1    
   200  101  222 1    
   201  101  223 1    
   202  101  224 1    
   203  102  103 2    
   204  102  104 am   BACKBONE|DICT|INTERRES
   205  104  105 1    
   206  104  225 1    
   207  105  106 1    
   208  105  107 1    
   209  105  226 1    
   210  106  227 1    
   211  106  228 1    
   212  106  229 1    
   213  107  108 2    
   214  107  109 am   BACKBONE|DICT|INTERRES
   215  109  110 1    
   216  109  230 1    
   217  110  111 1    
   218  110  112 1    
   219  110  231 1    
   220  111  232 1    
   221  111  233 1    
   222  111  234 1    
   223  112  113 2    
   224  112  114 am   BACKBONE|DICT|INTERRES
   225  114  115 1    
   226  114  235 1    
   227  115  116 1    
   228  115  117 1    
   229  115  236 1    
   230  116  237 1    
   231  116  238 1    
   232  116  239 1    
   233  117  118 2    
   234  117  119 am   BACKBONE|DICT|INTERRES
   235  119  120 1    
   236  119  240 1    
   237  120  121 1    
   238  120  124 1    
   239  120  241 1    
   240  121  122 am   BACKBONE|DICT|INTERRES
   241  121  123 2    
   242  122  242 1    
   243  122  243 1    
   244  124  125 1    
   245  124  244 1    
   246  124  245 1    
   247  125  126 1    
   248  126  246 1    
   249  126  247 1    
@<TRIPOS>SUBSTRUCTURE
     1 UNK         1 GROUP             0       ****    0 ROOT    
