@<TRIPOS>MOLECULE
3R540
247   249    1
SMALL
USER_CHARGES


@<TRIPOS>ATOM
      1 CA         -4.1550  -11.6493  -44.8280 C.3       0 UNK        -0.1800 
      2 C          -3.5318  -11.7861  -46.2093 C.2       0 UNK         0.5000 
      3 O          -2.3830  -11.3882  -46.4059 O.2       0 UNK        -0.5000 
      4 N          -4.2731  -12.3701  -47.1615 N.am      1 UNK        -0.5000 
      5 CA         -3.8672  -12.5764  -48.5612 C.3       1 UNK         0.1400 
      6 C6         -5.0582  -13.0204  -49.4507 C.3       23 UNK        -0.0398 
      7 S7         -5.8390  -14.5914  -48.9324 S.3       23 UNK        -0.2404 
      8 C8         -5.1630  -15.7340  -50.1796 C.3       23 UNK        -0.0205 
      9 C9         -5.2998  -17.1863  -49.7500 C.ar      23 UNK        -0.0193 
     10 C10        -6.1165  -18.0707  -50.4631 C.ar      23 UNK        -0.1150 
     11 C11        -6.1907  -19.4185  -50.0956 C.ar      23 UNK        -0.0193 
     12 C12        -5.4529  -19.8730  -49.0006 C.ar      23 UNK        -0.1150 
     13 C13        -4.6446  -18.9963  -48.2738 C.ar      23 UNK        -0.0193 
     14 C14        -4.5698  -17.6553  -48.6540 C.ar      23 UNK        -0.1150 
     15 C15        -3.8446  -19.5114  -47.0921 C.3       23 UNK        -0.0205 
     16 S16        -4.9403  -20.0028  -45.7275 S.3       23 UNK        -0.2404 
     17 C17        -3.7325  -20.6168  -44.5052 C.3       23 UNK        -0.0398 
     18 CA         -2.8051  -21.7848  -44.9362 C.3       11 UNK         0.1400 
     19 N          -1.9438  -22.1915  -43.8147 N.am      11 UNK        -0.5000 
     20 C          -1.0801  -23.2161  -43.7617 C.2       10 UNK         0.5000 
     21 O          -1.0165  -24.0966  -44.6196 O.2       10 UNK        -0.5000 
     22 CA         -0.1073  -23.2663  -42.5660 C.3       10 UNK         0.1400 
     23 CB          1.2909  -23.7388  -43.0013 C.3       10 UNK        -0.1800 
     24 N           0.0301  -21.9736  -41.8898 N.am      10 UNK        -0.5000 
     25 C          -0.6450  -21.6051  -40.7939 C.2       9 UNK         0.5000 
     26 O          -1.5073  -22.2999  -40.2560 O.2       9 UNK        -0.5000 
     27 CA         -0.3151  -20.2179  -40.2138 C.3       9 UNK         0.1400 
     28 CB          0.9926  -20.2637  -39.4086 C.3       9 UNK        -0.1800 
     29 N          -0.2216  -19.1784  -41.2399 N.am      9 UNK        -0.5000 
     30 C          -1.2586  -18.7229  -41.9564 C.2       8 UNK         0.5000 
     31 O          -2.4108  -19.1332  -41.8194 O.2       8 UNK        -0.5000 
     32 CA         -0.9590  -17.6439  -43.0141 C.3       8 UNK         0.1400 
     33 CB         -0.8806  -16.2512  -42.3702 C.3       8 UNK        -0.1800 
     34 N           0.2786  -17.9176  -43.7420 N.am      8 UNK        -0.5000 
     35 C           0.4239  -18.8972  -44.6444 C.2       7 UNK         0.5000 
     36 O          -0.5009  -19.6010  -45.0401 O.2       7 UNK        -0.5000 
     37 CA          1.8374  -19.1441  -45.1968 C.3       7 UNK         0.1400 
     38 CB          2.0751  -18.3259  -46.4743 C.3       7 UNK        -0.1800 
     39 N           2.8814  -18.8490  -44.2163 N.am      7 UNK        -0.5000 
     40 C           3.1059  -19.5787  -43.1141 C.2       6 UNK         0.5000 
     41 O           2.4662  -20.5879  -42.8177 O.2       6 UNK        -0.5000 
     42 CA          4.1958  -19.0585  -42.1604 C.3       6 UNK         0.1400 
     43 CB          5.5920  -19.4611  -42.6579 C.3       6 UNK        -0.1800 
     44 N           4.1372  -17.6054  -41.9918 N.am      6 UNK        -0.5000 
     45 C           3.1282  -16.9579  -41.3920 C.2       5 UNK         0.5000 
     46 O           2.1569  -17.5233  -40.8921 O.2       5 UNK        -0.5000 
     47 CA          3.1914  -15.4201  -41.3948 C.3       5 UNK         0.1400 
     48 CB          4.0274  -14.9109  -40.2113 C.3       5 UNK        -0.1800 
     49 N           3.7216  -14.8634  -42.6428 N.am      5 UNK        -0.5000 
     50 C           3.1368  -14.9951  -43.8404 C.2       4 UNK         0.5000 
     51 O           2.1102  -15.6502  -44.0327 O.2       4 UNK        -0.5000 
     52 CA          3.8443  -14.3237  -45.0276 C.3       4 UNK         0.1400 
     53 CB          4.7109  -15.3414  -45.7850 C.3       4 UNK        -0.1800 
     54 N           2.8712  -13.7452  -45.9496 N.am      4 UNK        -0.5000 
     55 C           2.2348  -12.5842  -45.7628 C.2       3 UNK         0.5000 
     56 O           2.4463  -11.8398  -44.8042 O.2       3 UNK        -0.5000 
     57 CA          1.1926  -12.1737  -46.8219 C.3       3 UNK         0.1400 
     58 CB          1.8621  -11.7924  -48.1565 C.3       3 UNK        -0.1800 
     59 N           0.1114  -13.1451  -47.0233 N.am      3 UNK        -0.5000 
     60 C           0.1721  -14.3930  -47.5154 C.2       2 UNK         0.5000 
     61 O           1.2113  -14.9445  -47.8793 O.2       2 UNK        -0.5000 
     62 CA         -1.1573  -15.1668  -47.6181 C.3       2 UNK         0.1400 
     63 CB         -1.3151  -16.1046  -46.4156 C.3       2 UNK        -0.1800 
     64 N          -2.3351  -14.3048  -47.6978 N.am      2 UNK        -0.5000 
     65 C          -2.6439  -13.5087  -48.7319 C.2       1 UNK         0.5000 
     66 O          -2.0025  -13.4785  -49.7824 O.2       1 UNK        -0.5000 
     67 C          -3.5537  -22.9302  -45.6517 C.2       11 UNK         0.5000 
     68 O          -3.5699  -22.9552  -46.8848 O.2       11 UNK        -0.5000 
     69 N          -4.0982  -23.8782  -44.8765 N.am      12 UNK        -0.5000 
     70 CA         -4.8222  -25.0533  -45.3699 C.3       12 UNK         0.1400 
     71 CB         -5.3771  -25.8345  -44.1690 C.3       12 UNK        -0.1800 
     72 C          -3.9907  -25.9835  -46.2789 C.2       12 UNK         0.5000 
     73 O          -4.5698  -26.6664  -47.1249 O.2       12 UNK        -0.5000 
     74 N          -2.6642  -25.9882  -46.0970 N.am      13 UNK        -0.5000 
     75 CA         -1.7099  -26.7207  -46.9261 C.3       13 UNK         0.1400 
     76 CB         -0.7539  -27.5014  -46.0101 C.3       13 UNK        -0.1800 
     77 C          -0.9138  -25.7727  -47.8397 C.2       13 UNK         0.5000 
     78 O          -0.6082  -26.1454  -48.9728 O.2       13 UNK        -0.5000 
     79 N          -0.5662  -24.5830  -47.3284 N.am      14 UNK        -0.5000 
     80 CA          0.3259  -23.6272  -47.9800 C.3       14 UNK         0.1400 
     81 CB          0.7954  -22.5754  -46.9630 C.3       14 UNK        -0.1800 
     82 C          -0.2722  -22.9398  -49.2158 C.2       14 UNK         0.5000 
     83 O           0.4762  -22.6943  -50.1596 O.2       14 UNK        -0.5000 
     84 N          -1.5743  -22.6085  -49.1898 N.am      15 UNK        -0.5000 
     85 CA         -2.3139  -21.9342  -50.2714 C.3       15 UNK         0.1400 
     86 CB         -2.5548  -22.9157  -51.4369 C.3       15 UNK        -0.1800 
     87 C          -1.6507  -20.6140  -50.7358 C.2       15 UNK         0.5000 
     88 O          -1.4385  -20.4076  -51.9331 O.2       15 UNK        -0.5000 
     89 N          -1.2755  -19.7715  -49.7593 N.am      16 UNK        -0.5000 
     90 CA         -0.5365  -18.5110  -49.9255 C.3       16 UNK         0.1400 
     91 CB         -1.3651  -17.4847  -50.7292 C.3       16 UNK        -0.1800 
     92 C           0.8740  -18.7235  -50.5177 C.2       16 UNK         0.5000 
     93 O           1.3087  -17.9458  -51.3654 O.2       16 UNK        -0.5000 
     94 N           1.5461  -19.8018  -50.0858 N.am      17 UNK        -0.5000 
     95 CA          2.8196  -20.3126  -50.6132 C.3       17 UNK         0.1400 
     96 CB          3.9762  -19.3311  -50.3296 C.3       17 UNK        -0.1800 
     97 C           2.6986  -20.7140  -52.1005 C.2       17 UNK         0.5000 
     98 O           3.5425  -20.3536  -52.9225 O.2       17 UNK        -0.5000 
     99 N           1.6089  -21.4337  -52.4022 N.am      18 UNK        -0.5000 
    100 CA         1.1513  -21.9201  -53.7067 C.3       18 UNK         0.1400 
    101 CB         2.1574  -22.9321  -54.2923 C.3       18 UNK        -0.1800 
    102 C          0.7738  -20.8147  -54.7179 C.2       18 UNK         0.5000 
    103 O          0.5971  -21.1188  -55.8992 O.2       18 UNK        -0.5000 
    104 N          0.6486  -19.5604  -54.2628 N.am      19 UNK        -0.5000 
    105 CA         0.3049  -18.4170  -55.1068 C.3       19 UNK         0.1400 
    106 CB         0.8142  -17.1241  -54.4534 C.3       19 UNK        -0.1800 
    107 C         -1.2037  -18.3109  -55.3862 C.2       19 UNK         0.5000 
    108 O         -1.5782  -17.7768  -56.4316 O.2       19 UNK        -0.5000 
    109 N         -2.0433  -18.7921  -54.4595 N.am      20 UNK        -0.5000 
    110 CA        -3.4965  -18.7371  -54.5830 C.3       20 UNK         0.1400 
    111 CB        -4.1240  -18.5959  -53.1899 C.3       20 UNK        -0.1800 
    112 C         -4.0274  -19.9874  -55.2998 C.2       20 UNK         0.5000 
    113 O         -3.6155  -21.1056  -54.9828 O.2       20 UNK        -0.5000 
    114 N         -4.9678  -19.7772  -56.2273 N.am      21 UNK        -0.5000 
    115 CA        -5.6993  -20.8249  -56.9378 C.3       21 UNK         0.1400 
    116 CB        -5.9864  -20.3446  -58.3722 C.3       21 UNK        -0.1800 
    117 C         -6.9799  -21.1677  -56.1543 C.2       21 UNK         0.5000 
    118 O         -8.0858  -20.8538  -56.5993 O.2       21 UNK        -0.5000 
    119 N         -6.7918  -21.7438  -54.9622 N.am      22 UNK        -0.5000 
    120 CA        -7.8484  -22.0922  -54.0002 C.3       22 UNK         0.1400 
    121 C         -8.8644  -23.1343  -54.5478 C.2       22 UNK         0.5000 
    122 N        -10.1408  -23.0016  -54.2133 N.am      22 UNK        -0.7600 
    123 O         -8.4990  -24.0865  -55.2342 O.2       22 UNK        -0.5000 
    124 C124       -7.2567  -22.5842  -52.6546 C.3       23 UNK        -0.0398 
    125 S125       -6.0203  -21.4454  -51.9460 S.3       23 UNK        -0.2404 
    126 C126       -7.0517  -20.3966  -50.8785 C.3       23 UNK        -0.0205 
    127 H127       -5.1659  -12.0565  -44.7971 H         1 UNK         0.0600 
    128 H128       -4.2022  -10.5989  -44.5410 H         1 UNK         0.0600 
    129 H129       -3.5519  -12.1788  -44.0904 H         1 UNK         0.0600 
    130 H130       -5.2014  -12.6982  -46.9329 H         1 UNK         0.3000 
    131 H131       -3.5440  -11.6010  -48.9312 H         1 UNK         0.0600 
    132 H132       -5.8286  -12.2486  -49.4271 H         1 UNK         0.0800 
    133 H133       -4.7529  -13.0854  -50.4967 H         1 UNK         0.0800 
    134 H134       -5.6654  -15.5604  -51.1324 H         1 UNK         0.0800 
    135 H135       -4.1064  -15.5218  -50.3459 H         1 UNK         0.0800 
    136 H136       -6.6783  -17.7158  -51.3154 H         1 UNK         0.1150 
    137 H137       -5.5059  -20.9142  -48.7130 H         1 UNK         0.1150 
    138 H138       -3.9390  -16.9713  -48.1050 H         1 UNK         0.1150 
    139 H139       -3.2563  -20.3647  -47.4254 H         1 UNK         0.0800 
    140 H140       -3.1362  -18.7636  -46.7358 H         1 UNK         0.0800 
    141 H141       -3.1202  -19.7640  -44.2165 H         1 UNK         0.0800 
    142 H142       -4.2918  -20.8995  -43.6120 H         1 UNK         0.0800 
    143 H143       -2.1222  -21.3928  -45.6877 H         1 UNK         0.0600 
    144 H144       -1.9007  -21.5337  -43.0496 H         1 UNK         0.3000 
    145 H145       -0.5034  -24.0085  -41.8703 H         1 UNK         0.0600 
    146 H146        1.9707  -23.7899  -42.1507 H         1 UNK         0.0600 
    147 H147        1.2545  -24.7346  -43.4449 H         1 UNK         0.0600 
    148 H148        1.7302  -23.0654  -43.7375 H         1 UNK         0.0600 
    149 H149        0.7438  -21.3503  -42.2591 H         1 UNK         0.3000 
    150 H150       -1.1213  -19.9439  -39.5301 H         1 UNK         0.0600 
    151 H151        0.9477  -21.0277  -38.6315 H         1 UNK         0.0600 
    152 H152        1.1845  -19.3104  -38.9160 H         1 UNK         0.0600 
    153 H153        1.8499  -20.4895  -40.0436 H         1 UNK         0.0600 
    154 H154        0.6869  -18.7414  -41.3618 H         1 UNK         0.3000 
    155 H155       -1.7826  -17.6374  -43.7312 H         1 UNK         0.0600 
    156 H156       -1.8211  -15.9960  -41.8806 H         1 UNK         0.0600 
    157 H157       -0.6799  -15.4802  -43.1139 H         1 UNK         0.0600 
    158 H158       -0.0946  -16.1973  -41.6172 H         1 UNK         0.0600 
    159 H159        1.0684  -17.3104  -43.5508 H         1 UNK         0.3000 
    160 H160        1.9088  -20.2027  -45.4547 H         1 UNK         0.0600 
    161 H161        1.9827  -17.2551  -46.2910 H         1 UNK         0.0600 
    162 H162        1.3483  -18.5888  -47.2426 H         1 UNK         0.0600 
    163 H163        3.0656  -18.5143  -46.8883 H         1 UNK         0.0600 
    164 H164        3.4165  -18.0063  -44.3593 H         1 UNK         0.3000 
    165 H165        4.0341  -19.5220  -41.1848 H         1 UNK         0.0600 
    166 H166        6.3639  -19.1628  -41.9482 H         1 UNK         0.0600 
    167 H167        5.6650  -20.5427  -42.7800 H         1 UNK         0.0600 
    168 H168        5.8265  -19.0052  -43.6206 H         1 UNK         0.0600 
    169 H169        4.8985  -17.0655  -42.3757 H         1 UNK         0.3000 
    170 H170        2.1712  -15.0500  -41.2736 H         1 UNK         0.0600 
    171 H171        3.6415  -15.2967  -39.2666 H         1 UNK         0.0600 
    172 H172        5.0704  -15.2198  -40.2906 H         1 UNK         0.0600 
    173 H173        4.0026  -13.8228  -40.1501 H         1 UNK         0.0600 
    174 H174        4.5687  -14.3188  -42.5674 H         1 UNK         0.3000 
    175 H175        4.4932  -13.5287  -44.6538 H         1 UNK         0.0600 
    176 H176        4.1116  -16.1435  -46.2151 H         1 UNK         0.0600 
    177 H177        5.2563  -14.8625  -46.5984 H         1 UNK         0.0600 
    178 H178        5.4491  -15.7983  -45.1247 H         1 UNK         0.0600 
    179 H179        2.5541  -14.3303  -46.7181 H         1 UNK         0.3000 
    180 H180        0.7024  -11.2755  -46.4423 H         1 UNK         0.0600 
    181 H181        2.3781  -12.6366  -48.6143 H         1 UNK         0.0600 
    182 H182        2.5993  -11.0024  -48.0089 H         1 UNK         0.0600 
    183 H183        1.1275  -11.4223  -48.8718 H         1 UNK         0.0600 
    184 H184       -0.8042  -12.7982  -46.7596 H         1 UNK         0.3000 
    185 H185       -1.1221  -15.7692  -48.5245 H         1 UNK         0.0600 
    186 H186       -1.2678  -15.5599  -45.4724 H         1 UNK         0.0600 
    187 H187       -2.2618  -16.6407  -46.4434 H         1 UNK         0.0600 
    188 H188       -0.5196  -16.8474  -46.4074 H         1 UNK         0.0600 
    189 H189       -2.9269  -14.2646  -46.8812 H         1 UNK         0.3000 
    190 H190       -4.0022  -23.7942  -43.8751 H         1 UNK         0.3000 
    191 H191       -5.6653  -24.6925  -45.9624 H         1 UNK         0.0600 
    192 H192       -4.5775  -26.1938  -43.5199 H         1 UNK         0.0600 
    193 H193       -6.0458  -25.2164  -43.5698 H         1 UNK         0.0600 
    194 H194       -5.9484  -26.7037  -44.4978 H         1 UNK         0.0600 
    195 H195       -2.2668  -25.3676  -45.3988 H         1 UNK         0.3000 
    196 H196       -2.2261  -27.4401  -47.5651 H         1 UNK         0.0600 
    197 H197       -1.2979  -28.2188  -45.3956 H         1 UNK         0.0600 
    198 H198       -0.2035  -26.8379  -45.3414 H         1 UNK         0.0600 
    199 H199       -0.0226  -28.0616  -46.5941 H         1 UNK         0.0600 
    200 H200       -0.8198  -24.3751  -46.3654 H         1 UNK         0.3000 
    201 H201        1.2078  -24.1783  -48.3138 H         1 UNK         0.0600 
    202 H202        1.4976  -21.8756  -47.4177 H         1 UNK         0.0600 
    203 H203        1.3074  -23.0442  -46.1233 H         1 UNK         0.0600 
    204 H204       -0.0365  -21.9947  -46.5663 H         1 UNK         0.0600 
    205 H205       -2.1220  -22.8587  -48.3721 H         1 UNK         0.3000 
    206 H206       -3.2881  -21.6618  -49.8643 H         1 UNK         0.0600 
    207 H207       -3.0997  -23.7977  -51.1007 H         1 UNK         0.0600 
    208 H208       -1.6193  -23.2498  -51.8859 H         1 UNK         0.0600 
    209 H209       -3.1461  -22.4506  -52.2268 H         1 UNK         0.0600 
    210 H210       -1.4681  -20.0443  -48.8075 H         1 UNK         0.3000 
    211 H211       -0.3902  -18.1047  -48.9243 H         1 UNK         0.0600 
    212 H212       -2.3525  -17.3456  -50.2947 H         1 UNK         0.0600 
    213 H213       -0.8765  -16.5099  -50.7465 H         1 UNK         0.0600 
    214 H214       -1.4974  -17.7905  -51.7662 H         1 UNK         0.0600 
    215 H215        1.0750  -20.4157  -49.4386 H         1 UNK         0.3000 
    216 H216        3.0311  -21.2327  -50.0663 H         1 UNK         0.0600 
    217 H217        3.8716  -18.4022  -50.8907 H         1 UNK         0.0600 
    218 H218        4.0281  -19.0790  -49.2706 H         1 UNK         0.0600 
    219 H219        4.9348  -19.7711  -50.6063 H         1 UNK         0.0600 
    220 H220        1.0146  -21.7092  -51.6228 H         1 UNK         0.3000 
    221 H221        0.2245  -22.4591  -53.5054 H         1 UNK         0.0600 
    222 H222        3.0920  -22.4516  -54.5827 H         1 UNK         0.0600 
    223 H223        2.3916  -23.7162  -53.5723 H         1 UNK         0.0600 
    224 H224        1.7527  -23.4204  -55.1794 H         1 UNK         0.0600 
    225 H225        0.7932  -19.3801  -53.2783 H         1 UNK         0.3000 
    226 H226        0.8155  -18.5256  -56.0661 H         1 UNK         0.0600 
    227 H227        1.8743  -17.1926  -54.2081 H         1 UNK         0.0600 
    228 H228        0.6884  -16.2744  -55.1254 H         1 UNK         0.0600 
    229 H229        0.2698  -16.8952  -53.5368 H         1 UNK         0.0600 
    230 H230       -1.6771  -19.2979  -53.6586 H         1 UNK         0.3000 
    231 H231       -3.7804  -17.8525  -55.1575 H         1 UNK         0.0600 
    232 H232       -5.2121  -18.5697  -53.2560 H         1 UNK         0.0600 
    233 H233       -3.8060  -17.6746  -52.7023 H         1 UNK         0.0600 
    234 H234       -3.8577  -19.4281  -52.5390 H         1 UNK         0.0600 
    235 H235       -5.2750  -18.8313  -56.4035 H         1 UNK         0.3000 
    236 H236       -5.0938  -21.7315  -57.0048 H         1 UNK         0.0600 
    237 H237       -5.0603  -20.1475  -58.9125 H         1 UNK         0.0600 
    238 H238       -6.5347  -21.1016  -58.9342 H         1 UNK         0.0600 
    239 H239       -6.5809  -19.4302  -58.3837 H         1 UNK         0.0600 
    240 H240       -5.8439  -21.9298  -54.6626 H         1 UNK         0.3000 
    241 H241       -8.3971  -21.1695  -53.8019 H         1 UNK         0.0600 
    242 H242      -10.4643  -22.2328  -53.6462 H         1 UNK         0.3800 
    243 H243      -10.8075  -23.6798  -54.5492 H         1 UNK         0.3800 
    244 H244       -8.0495  -22.7485  -51.9228 H         1 UNK         0.0800 
    245 H245       -6.7683  -23.5509  -52.7902 H         1 UNK         0.0800 
    246 H246       -7.6162  -21.0203  -50.1838 H         1 UNK         0.0800 
    247 H247       -7.7825  -19.8640  -51.4888 H         1 UNK         0.0800 
@<TRIPOS>BOND
     1    1    2 1    
     2    1  127 1    
     3    1  128 1    
     4    1  129 1    
     5    2    3 2    
     6    2    4 am   BACKBONE|DICT|INTERRES
     7    4    5 1    
     8    4  130 1    
     9    5    6 1    
    10    5   65 1    
    11    5  131 1    
    12    6    7 1    
    13    6  132 1    
    14    6  133 1    
    15    7    8 1    
    16    8    9 1    
    17    8  134 1    
    18    8  135 1    
    19    9   10 ar   
    20    9   14 ar   
    21   10   11 ar   
    22   10  136 1    
    23   11   12 ar   
    24   11  126 1    
    25   12   13 ar   
    26   12  137 1    
    27   13   14 ar   
    28   13   15 1    
    29   14  138 1    
    30   15   16 1    
    31   15  139 1    
    32   15  140 1    
    33   16   17 1    
    34   17   18 1    
    35   17  141 1    
    36   17  142 1    
    37   18   19 1    
    38   18   67 1    
    39   18  143 1    
    40   19   20 am   BACKBONE|DICT|INTERRES
    41   19  144 1    
    42   20   21 2    
    43   20   22 1    
    44   22   23 1    
    45   22   24 1    
    46   22  145 1    
    47   23  146 1    
    48   23  147 1    
    49   23  148 1    
    50   24   25 am   BACKBONE|DICT|INTERRES
    51   24  149 1    
    52   25   26 2    
    53   25   27 1    
    54   27   28 1    
    55   27   29 1    
    56   27  150 1    
    57   28  151 1    
    58   28  152 1    
    59   28  153 1    
    60   29   30 am   BACKBONE|DICT|INTERRES
    61   29  154 1    
    62   30   31 2    
    63   30   32 1    
    64   32   33 1    
    65   32   34 1    
    66   32  155 1    
    67   33  156 1    
    68   33  157 1    
    69   33  158 1    
    70   34   35 am   BACKBONE|DICT|INTERRES
    71   34  159 1    
    72   35   36 2    
    73   35   37 1    
    74   37   38 1    
    75   37   39 1    
    76   37  160 1    
    77   38  161 1    
    78   38  162 1    
    79   38  163 1    
    80   39   40 am   BACKBONE|DICT|INTERRES
    81   39  164 1    
    82   40   41 2    
    83   40   42 1    
    84   42   43 1    
    85   42   44 1    
    86   42  165 1    
    87   43  166 1    
    88   43  167 1    
    89   43  168 1    
    90   44   45 am   BACKBONE|DICT|INTERRES
    91   44  169 1    
    92   45   46 2    
    93   45   47 1    
    94   47   48 1    
    95   47   49 1    
    96   47  170 1    
    97   48  171 1    
    98   48  172 1    
    99   48  173 1    
   100   49   50 am   BACKBONE|DICT|INTERRES
   101   49  174 1    
   102   50   51 2    
   103   50   52 1    
   104   52   53 1    
   105   52   54 1    
   106   52  175 1    
   107   53  176 1    
   108   53  177 1    
   109   53  178 1    
   110   54   55 am   BACKBONE|DICT|INTERRES
   111   54  179 1    
   112   55   56 2    
   113   55   57 1    
   114   57   58 1    
   115   57   59 1    
   116   57  180 1    
   117   58  181 1    
   118   58  182 1    
   119   58  183 1    
   120   59   60 am   BACKBONE|DICT|INTERRES
   121   59  184 1    
   122   60   61 2    
   123   60   62 1    
   124   62   63 1    
   125   62   64 1    
   126   62  185 1    
   127   63  186 1    
   128   63  187 1    
   129   63  188 1    
   130   64   65 am   BACKBONE|DICT|INTERRES
   131   64  189 1    
   132   65   66 2    
   133   67   68 2    
   134   67   69 am   BACKBONE|DICT|INTERRES
   135   69   70 1    
   136   69  190 1    
   137   70   71 1    
   138   70   72 1    
   139   70  191 1    
   140   71  192 1    
   141   71  193 1    
   142   71  194 1    
   143   72   73 2    
   144   72   74 am   BACKBONE|DICT|INTERRES
   145   74   75 1    
   146   74  195 1    
   147   75   76 1    
   148   75   77 1    
   149   75  196 1    
   150   76  197 1    
   151   76  198 1    
   152   76  199 1    
   153   77   78 2    
   154   77   79 am   BACKBONE|DICT|INTERRES
   155   79   80 1    
   156   79  200 1    
   157   80   81 1    
   158   80   82 1    
   159   80  201 1    
   160   81  202 1    
   161   81  203 1    
   162   81  204 1    
   163   82   83 2    
   164   82   84 am   BACKBONE|DICT|INTERRES
   165   84   85 1    
   166   84  205 1    
   167   85   86 1    
   168   85   87 1    
   169   85  206 1    
   170   86  207 1    
   171   86  208 1    
   172   86  209 1    
   173   87   88 2    
   174   87   89 am   BACKBONE|DICT|INTERRES
   175   89   90 1    
   176   89  210 1    
   177   90   91 1    
   178   90   92 1    
   179   90  211 1    
   180   91  212 1    
   181   91  213 1    
   182   91  214 1    
   183   92   93 2    
   184   92   94 am   BACKBONE|DICT|INTERRES
   185   94   95 1    
   186   94  215 1    
   187   95   96 1    
   188   95   97 1    
   189   95  216 1    
   190   96  217 1    
   191   96  218 1    
   192   96  219 1    
   193   97   98 2    
   194   97   99 am   BACKBONE|DICT|INTERRES
   195   99  100 1    
   196   99  220 1    
   197  100  101 1    
   198  100  102 1    
   199  100  221 1    
   200  101  222 1    
   201  101  223 1    
   202  101  224 1    
   203  102  103 2    
   204  102  104 am   BACKBONE|DICT|INTERRES
   205  104  105 1    
   206  104  225 1    
   207  105  106 1    
   208  105  107 1    
   209  105  226 1    
   210  106  227 1    
   211  106  228 1    
   212  106  229 1    
   213  107  108 2    
   214  107  109 am   BACKBONE|DICT|INTERRES
   215  109  110 1    
   216  109  230 1    
   217  110  111 1    
   218  110  112 1    
   219  110  231 1    
   220  111  232 1    
   221  111  233 1    
   222  111  234 1    
   223  112  113 2    
   224  112  114 am   BACKBONE|DICT|INTERRES
   225  114  115 1    
   226  114  235 1    
   227  115  116 1    
   228  115  117 1    
   229  115  236 1    
   230  116  237 1    
   231  116  238 1    
   232  116  239 1    
   233  117  118 2    
   234  117  119 am   BACKBONE|DICT|INTERRES
   235  119  120 1    
   236  119  240 1    
   237  120  121 1    
   238  120  124 1    
   239  120  241 1    
   240  121  122 am   BACKBONE|DICT|INTERRES
   241  121  123 2    
   242  122  242 1    
   243  122  243 1    
   244  124  125 1    
   245  124  244 1    
   246  124  245 1    
   247  125  126 1    
   248  126  246 1    
   249  126  247 1    
@<TRIPOS>SUBSTRUCTURE
     1 UNK         1 GROUP             0       ****    0 ROOT    
