@<TRIPOS>MOLECULE
3R540
247   249    1
SMALL
USER_CHARGES


@<TRIPOS>ATOM
      1 CA          2.8438  -12.2845  -51.5189 C.3       0 UNK        -0.1800 
      2 C           2.2992  -13.2262  -50.4540 C.2       0 UNK         0.5000 
      3 O           2.7146  -13.1487  -49.2976 O.2       0 UNK        -0.5000 
      4 N           1.3783  -14.1177  -50.8403 N.am      1 UNK        -0.5000 
      5 CA          0.6937  -15.0556  -49.9483 C.3       1 UNK         0.1400 
      6 C6          0.0057  -16.1851  -50.7529 C.3       23 UNK        -0.0398 
      7 S7         -0.4616  -17.6016  -49.7058 S.3       23 UNK        -0.2404 
      8 C8         -0.4729  -18.9588  -50.9175 C.3       23 UNK        -0.0205 
      9 C9          0.9293  -19.3816  -51.3253 C.ar      23 UNK        -0.0193 
     10 C10         1.3078  -19.3671  -52.6689 C.ar      23 UNK        -0.1150 
     11 C11         2.5930  -19.7643  -53.0458 C.ar      23 UNK        -0.0193 
     12 C12         3.5013  -20.1774  -52.0668 C.ar      23 UNK        -0.1150 
     13 C13         3.1385  -20.2008  -50.7160 C.ar      23 UNK        -0.0193 
     14 C14         1.8450  -19.8011  -50.3567 C.ar      23 UNK        -0.1150 
     15 C15         4.1860  -20.6249  -49.6851 C.3       23 UNK        -0.0205 
     16 S16         3.5424  -21.0869  -48.0399 S.3       23 UNK        -0.2404 
     17 C17         2.7742  -22.7077  -48.3926 C.3       23 UNK        -0.0398 
     18 CA          1.6298  -23.1101  -47.4260 C.3       11 UNK         0.1400 
     19 N           1.9877  -22.9314  -46.0161 N.am      11 UNK        -0.5000 
     20 C           2.1817  -23.9223  -45.1375 C.2       10 UNK         0.5000 
     21 O           2.1212  -25.1175  -45.4287 O.2       10 UNK        -0.5000 
     22 CA          2.4863  -23.5245  -43.6771 C.3       10 UNK         0.1400 
     23 CB          4.0026  -23.5256  -43.4302 C.3       10 UNK        -0.1800 
     24 N           1.9431  -22.2264  -43.2672 N.am      10 UNK        -0.5000 
     25 C           0.6483  -21.8827  -43.2871 C.2       9 UNK         0.5000 
     26 O          -0.2545  -22.6234  -43.6740 O.2       9 UNK        -0.5000 
     27 CA          0.3003  -20.4478  -42.8528 C.3       9 UNK         0.1400 
     28 CB          0.1020  -20.3882  -41.3306 C.3       9 UNK        -0.1800 
     29 N           1.2419  -19.3952  -43.2585 N.am      9 UNK        -0.5000 
     30 C           1.8216  -19.2252  -44.4571 C.2       8 UNK         0.5000 
     31 O           1.7510  -20.0480  -45.3686 O.2       8 UNK        -0.5000 
     32 CA          2.5924  -17.9172  -44.7063 C.3       8 UNK         0.1400 
     33 CB          1.7657  -16.9894  -45.6124 C.3       8 UNK        -0.1800 
     34 N           2.9161  -17.1977  -43.4704 N.am      8 UNK        -0.5000 
     35 C           4.1574  -16.8902  -43.0676 C.2       7 UNK         0.5000 
     36 O           5.1758  -17.2360  -43.6681 O.2       7 UNK        -0.5000 
     37 CA          4.3049  -16.0321  -41.7926 C.3       7 UNK         0.1400 
     38 CB          4.4845  -14.5526  -42.1672 C.3       7 UNK        -0.1800 
     39 N           3.1788  -16.1461  -40.8662 N.am      7 UNK        -0.5000 
     40 C           2.9050  -17.2263  -40.1236 C.2       6 UNK         0.5000 
     41 O           3.6145  -18.2321  -40.0961 O.2       6 UNK        -0.5000 
     42 CA          1.6080  -17.1932  -39.2864 C.3       6 UNK         0.1400 
     43 CB          1.9218  -16.7912  -37.8372 C.3       6 UNK        -0.1800 
     44 N           0.5298  -16.3310  -39.7947 N.am      6 UNK        -0.5000 
     45 C           0.0080  -16.3723  -41.0273 C.2       5 UNK         0.5000 
     46 O           0.4943  -17.0252  -41.9525 O.2       5 UNK        -0.5000 
     47 CA         -1.2489  -15.5256  -41.2898 C.3       5 UNK         0.1400 
     48 CB         -0.8538  -14.1215  -41.7680 C.3       5 UNK        -0.1800 
     49 N          -2.0768  -16.1681  -42.3117 N.am      5 UNK        -0.5000 
     50 C          -2.7821  -17.2904  -42.1113 C.2       4 UNK         0.5000 
     51 O          -2.9421  -17.7985  -41.0000 O.2       4 UNK        -0.5000 
     52 CA         -3.3649  -17.9803  -43.3631 C.3       4 UNK         0.1400 
     53 CB         -4.5998  -18.8529  -43.0542 C.3       4 UNK        -0.1800 
     54 N          -3.6201  -17.0682  -44.4843 N.am      4 UNK        -0.5000 
     55 C          -4.5075  -16.0666  -44.5438 C.2       3 UNK         0.5000 
     56 O          -5.2455  -15.7435  -43.6120 O.2       3 UNK        -0.5000 
     57 CA         -4.5554  -15.2937  -45.8795 C.3       3 UNK         0.1400 
     58 CB         -5.8068  -14.4075  -46.0048 C.3       3 UNK        -0.1800 
     59 N          -3.3676  -14.4676  -46.1144 N.am      3 UNK        -0.5000 
     60 C          -2.1502  -14.9273  -46.4271 C.2       2 UNK         0.5000 
     61 O          -1.8609  -16.1244  -46.4568 O.2       2 UNK        -0.5000 
     62 CA         -1.0679  -13.8805  -46.7321 C.3       2 UNK         0.1400 
     63 CB         -0.2827  -13.5298  -45.4605 C.3       2 UNK        -0.1800 
     64 N          -0.1418  -14.4109  -47.7302 N.am      2 UNK        -0.5000 
     65 C          -0.3081  -14.2947  -49.0525 C.2       1 UNK         0.5000 
     66 O          -1.1994  -13.6216  -49.5766 O.2       1 UNK        -0.5000 
     67 C           0.2913  -22.4193  -47.7553 C.2       11 UNK         0.5000 
     68 O          -0.4427  -22.9175  -48.6094 O.2       11 UNK        -0.5000 
     69 N          -0.0495  -21.3277  -47.0545 N.am      12 UNK        -0.5000 
     70 CA         -1.3058  -20.6001  -47.2303 C.3       12 UNK         0.1400 
     71 CB         -1.2639  -19.2723  -46.4713 C.3       12 UNK        -0.1800 
     72 C          -2.5497  -21.4031  -46.8223 C.2       12 UNK         0.5000 
     73 O          -3.5840  -21.2578  -47.4734 O.2       12 UNK        -0.5000 
     74 N          -2.4405  -22.2484  -45.7853 N.am      13 UNK        -0.5000 
     75 CA         -3.5258  -23.1321  -45.3488 C.3       13 UNK         0.1400 
     76 CB         -3.1988  -23.7346  -43.9758 C.3       13 UNK        -0.1800 
     77 C          -3.8210  -24.2415  -46.3740 C.2       13 UNK         0.5000 
     78 O          -4.9878  -24.5569  -46.6070 O.2       13 UNK        -0.5000 
     79 N          -2.7660  -24.7671  -47.0150 N.am      14 UNK        -0.5000 
     80 CA         -2.8577  -25.7287  -48.1183 C.3       14 UNK         0.1400 
     81 CB         -1.4663  -26.3127  -48.4063 C.3       14 UNK        -0.1800 
     82 C          -3.4705  -25.1074  -49.3894 C.2       14 UNK         0.5000 
     83 O          -4.1490  -25.8038  -50.1439 O.2       14 UNK        -0.5000 
     84 N          -3.2684  -23.7951  -49.5658 N.am      15 UNK        -0.5000 
     85 CA         -3.8836  -22.9610  -50.5976 C.3       15 UNK         0.1400 
     86 CB         -2.9462  -21.7790  -50.8897 C.3       15 UNK        -0.1800 
     87 C          -5.2994  -22.4659  -50.2239 C.2       15 UNK         0.5000 
     88 O          -5.8165  -21.5772  -50.9032 O.2       15 UNK        -0.5000 
     89 N          -5.8935  -23.0230  -49.1564 N.am      16 UNK        -0.5000 
     90 CA         -7.2312  -22.7411  -48.6261 C.3       16 UNK         0.1400 
     91 CB         -8.3212  -23.1898  -49.6213 C.3       16 UNK        -0.1800 
     92 C          -7.3879  -21.2825  -48.1518 C.2       16 UNK         0.5000 
     93 O          -8.3554  -20.6100  -48.5090 O.2       16 UNK        -0.5000 
     94 N          -6.4064  -20.8306  -47.3590 N.am      17 UNK        -0.5000 
     95 CA         -6.2356  -19.4767  -46.8248 C.3       17 UNK         0.1400 
     96 CB         -7.3939  -19.0762  -45.8879 C.3       17 UNK        -0.1800 
     97 C          -5.9577  -18.4584  -47.9439 C.2       17 UNK         0.5000 
     98 O          -6.5923  -17.4044  -48.0011 O.2       17 UNK        -0.5000 
     99 N          -4.9950  -18.8137  -48.8078 N.am      18 UNK        -0.5000 
    100 CA        -4.5049  -18.0375  -49.9535 C.3       18 UNK         0.1400 
    101 CB        -3.8451  -16.7267  -49.4771 C.3       18 UNK        -0.1800 
    102 C         -5.5720  -17.7926  -51.0428 C.2       18 UNK         0.5000 
    103 O         -5.5195  -16.7733  -51.7342 O.2       18 UNK        -0.5000 
    104 N         -6.5211  -18.7274  -51.1870 N.am      19 UNK        -0.5000 
    105 CA        -7.5160  -18.7229  -52.2587 C.3       19 UNK         0.1400 
    106 CB        -8.7045  -19.6102  -51.8630 C.3       19 UNK        -0.1800 
    107 C         -6.8949  -19.1924  -53.5853 C.2       19 UNK         0.5000 
    108 O         -7.1673  -18.6012  -54.6313 O.2       19 UNK        -0.5000 
    109 N         -6.0492  -20.2275  -53.5073 N.am      20 UNK        -0.5000 
    110 CA        -5.1938  -20.6852  -54.5983 C.3       20 UNK         0.1400 
    111 CB        -4.9358  -22.1902  -54.4259 C.3       20 UNK        -0.1800 
    112 C         -3.8688  -19.8993  -54.6145 C.2       20 UNK         0.5000 
    113 O         -3.5044  -19.2650  -53.6205 O.2       20 UNK        -0.5000 
    114 N         -3.1561  -19.9834  -55.7402 N.am      21 UNK        -0.5000 
    115 CA        -1.8406  -19.3906  -55.9543 C.3       21 UNK         0.1400 
    116 CB        -1.9999  -17.9732  -56.5313 C.3       21 UNK        -0.1800 
    117 C         -1.0341  -20.2965  -56.8962 C.2       21 UNK         0.5000 
    118 O         -1.6111  -21.1587  -57.5654 O.2       21 UNK        -0.5000 
    119 N          0.2851  -20.0835  -56.9273 N.am      22 UNK        -0.5000 
    120 CA         1.2494  -20.8895  -57.6990 C.3       22 UNK         0.1400 
    121 C          1.3047  -20.5625  -59.2213 C.2       22 UNK         0.5000 
    122 N          0.6312  -19.5276  -59.7086 N.am      22 UNK        -0.7600 
    123 O          1.9670  -21.2675  -59.9779 O.2       22 UNK        -0.5000 
    124 C124        2.6692  -20.8475  -57.0728 C.3       23 UNK        -0.0398 
    125 S125        2.6779  -21.3359  -55.3121 S.3       23 UNK        -0.2404 
    126 C126        2.9979  -19.7347  -54.5100 C.3       23 UNK        -0.0205 
    127 H127        2.3955  -12.4723  -52.4949 H         1 UNK         0.0600 
    128 H128        3.9230  -12.4067  -51.6115 H         1 UNK         0.0600 
    129 H129        2.6391  -11.2496  -51.2444 H         1 UNK         0.0600 
    130 H130        1.0558  -14.1077  -51.7972 H         1 UNK         0.3000 
    131 H131        1.4566  -15.5144  -49.3145 H         1 UNK         0.0600 
    132 H132       -0.8775  -15.8212  -51.2812 H         1 UNK         0.0800 
    133 H133        0.6894  -16.5484  -51.5213 H         1 UNK         0.0800 
    134 H134       -1.0724  -18.6695  -51.7826 H         1 UNK         0.0800 
    135 H135       -0.9687  -19.8196  -50.4755 H         1 UNK         0.0800 
    136 H136        0.6026  -19.0475  -53.4224 H         1 UNK         0.1150 
    137 H137        4.4978  -20.4781  -52.3595 H         1 UNK         0.1150 
    138 H138        1.5383  -19.7960  -49.3209 H         1 UNK         0.1150 
    139 H139        4.7703  -21.4599  -50.0749 H         1 UNK         0.0800 
    140 H140        4.8830  -19.7965  -49.5539 H         1 UNK         0.0800 
    141 H141        3.5652  -23.4561  -48.3332 H         1 UNK         0.0800 
    142 H142        2.4259  -22.7332  -49.4269 H         1 UNK         0.0800 
    143 H143        1.4363  -24.1688  -47.6110 H         1 UNK         0.0600 
    144 H144        2.0666  -21.9713  -45.6956 H         1 UNK         0.3000 
    145 H145        2.0342  -24.2834  -43.0354 H         1 UNK         0.0600 
    146 H146        4.2328  -23.3436  -42.3803 H         1 UNK         0.0600 
    147 H147        4.4420  -24.4882  -43.6955 H         1 UNK         0.0600 
    148 H148        4.5054  -22.7605  -44.0233 H         1 UNK         0.0600 
    149 H149        2.6107  -21.5321  -42.9657 H         1 UNK         0.3000 
    150 H150       -0.6580  -20.2077  -43.3131 H         1 UNK         0.0600 
    151 H151       -0.5606  -21.1840  -40.9873 H         1 UNK         0.0600 
    152 H152       -0.3520  -19.4452  -41.0277 H         1 UNK         0.0600 
    153 H153        1.0480  -20.4933  -40.7983 H         1 UNK         0.0600 
    154 H154        1.2944  -18.6121  -42.6163 H         1 UNK         0.3000 
    155 H155        3.5029  -18.1894  -45.2437 H         1 UNK         0.0600 
    156 H156        1.5938  -17.4484  -46.5869 H         1 UNK         0.0600 
    157 H157        2.2813  -16.0450  -45.7871 H         1 UNK         0.0600 
    158 H158        0.7908  -16.7672  -45.1760 H         1 UNK         0.0600 
    159 H159        2.1270  -16.9053  -42.9010 H         1 UNK         0.3000 
    160 H160        5.2076  -16.3646  -41.2755 H         1 UNK         0.0600 
    161 H161        4.6674  -13.9407  -41.2837 H         1 UNK         0.0600 
    162 H162        5.3365  -14.4188  -42.8352 H         1 UNK         0.0600 
    163 H163        3.6041  -14.1566  -42.6752 H         1 UNK         0.0600 
    164 H164        2.5381  -15.3673  -40.8294 H         1 UNK         0.3000 
    165 H165        1.2177  -18.2127  -39.2752 H         1 UNK         0.0600 
    166 H166        1.0426  -16.8885  -37.2000 H         1 UNK         0.0600 
    167 H167        2.6992  -17.4279  -37.4123 H         1 UNK         0.0600 
    168 H168        2.2713  -15.7599  -37.7741 H         1 UNK         0.0600 
    169 H169        0.0858  -15.7386  -39.1078 H         1 UNK         0.3000 
    170 H170       -1.8282  -15.4391  -40.3682 H         1 UNK         0.0600 
    171 H171       -0.3348  -13.5746  -40.9800 H         1 UNK         0.0600 
    172 H172       -0.1848  -14.1639  -42.6271 H         1 UNK         0.0600 
    173 H173       -1.7292  -13.5350  -42.0478 H         1 UNK         0.0600 
    174 H174       -1.9636  -15.8407  -43.2585 H         1 UNK         0.3000 
    175 H175       -2.5801  -18.6542  -43.7051 H         1 UNK         0.0600 
    176 H176       -4.9414  -19.3838  -43.9408 H         1 UNK         0.0600 
    177 H177       -4.3684  -19.6090  -42.3031 H         1 UNK         0.0600 
    178 H178       -5.4322  -18.2606  -42.6740 H         1 UNK         0.0600 
    179 H179       -2.9831  -17.1455  -45.2734 H         1 UNK         0.3000 
    180 H180       -4.6072  -16.0405  -46.6726 H         1 UNK         0.0600 
    181 H181       -5.8119  -13.6060  -45.2651 H         1 UNK         0.0600 
    182 H182       -6.7151  -14.9950  -45.8630 H         1 UNK         0.0600 
    183 H183       -5.8698  -13.9541  -46.9942 H         1 UNK         0.0600 
    184 H184       -3.5120  -13.4693  -46.0691 H         1 UNK         0.3000 
    185 H185       -1.5416  -12.9719  -47.1098 H         1 UNK         0.0600 
    186 H186       -0.9389  -13.0902  -44.7086 H         1 UNK         0.0600 
    187 H187        0.1869  -14.4090  -45.0190 H         1 UNK         0.0600 
    188 H188        0.5017  -12.8023  -45.6703 H         1 UNK         0.0600 
    189 H189        0.5799  -15.0230  -47.3804 H         1 UNK         0.3000 
    190 H190        0.6176  -20.9251  -46.3993 H         1 UNK         0.3000 
    191 H191       -1.4059  -20.3679  -48.2901 H         1 UNK         0.0600 
    192 H192       -0.4620  -18.6345  -46.8398 H         1 UNK         0.0600 
    193 H193       -1.1130  -19.4187  -45.4046 H         1 UNK         0.0600 
    194 H194       -2.1979  -18.7262  -46.6050 H         1 UNK         0.0600 
    195 H195       -1.5646  -22.3177  -45.2780 H         1 UNK         0.3000 
    196 H196       -4.4303  -22.5292  -45.2417 H         1 UNK         0.0600 
    197 H197       -4.0209  -24.3546  -43.6163 H         1 UNK         0.0600 
    198 H198       -3.0311  -22.9546  -43.2329 H         1 UNK         0.0600 
    199 H199       -2.3072  -24.3618  -44.0124 H         1 UNK         0.0600 
    200 H200       -1.8438  -24.4290  -46.7832 H         1 UNK         0.3000 
    201 H201       -3.5100  -26.5451  -47.8013 H         1 UNK         0.0600 
    202 H202       -1.0450  -26.7865  -47.5195 H         1 UNK         0.0600 
    203 H203       -0.7663  -25.5481  -48.7431 H         1 UNK         0.0600 
    204 H204       -1.5186  -27.0729  -49.1867 H         1 UNK         0.0600 
    205 H205       -2.6541  -23.3184  -48.9180 H         1 UNK         0.3000 
    206 H206       -3.9804  -23.5524  -51.5093 H         1 UNK         0.0600 
    207 H207       -1.9433  -22.1211  -51.1461 H         1 UNK         0.0600 
    208 H208       -3.3075  -21.1803  -51.7250 H         1 UNK         0.0600 
    209 H209       -2.8673  -21.1168  -50.0297 H         1 UNK         0.0600 
    210 H210       -5.3681  -23.7129  -48.6350 H         1 UNK         0.3000 
    211 H211       -7.3393  -23.3574  -47.7325 H         1 UNK         0.0600 
    212 H212       -8.2798  -22.6288  -50.5536 H         1 UNK         0.0600 
    213 H213       -9.3175  -23.0518  -49.1999 H         1 UNK         0.0600 
    214 H214       -8.2168  -24.2469  -49.8651 H         1 UNK         0.0600 
    215 H215       -5.6033  -21.4346  -47.2246 H         1 UNK         0.3000 
    216 H216       -5.3281  -19.5048  -46.2216 H         1 UNK         0.0600 
    217 H217       -7.1832  -18.1248  -45.3978 H         1 UNK         0.0600 
    218 H218       -7.5407  -19.8188  -45.1038 H         1 UNK         0.0600 
    219 H219       -8.3353  -18.9633  -46.4258 H         1 UNK         0.0600 
    220 H220       -4.5468  -19.7099  -48.6558 H         1 UNK         0.3000 
    221 H221       -3.7293  -18.6456  -50.4214 H         1 UNK         0.0600 
    222 H222       -4.5809  -16.0039  -49.1243 H         1 UNK         0.0600 
    223 H223       -3.1432  -16.9132  -48.6659 H         1 UNK         0.0600 
    224 H224       -3.2879  -16.2528  -50.2857 H         1 UNK         0.0600 
    225 H225       -6.4710  -19.5656  -50.6205 H         1 UNK         0.3000 
    226 H226       -7.8857  -17.7044  -52.3954 H         1 UNK         0.0600 
    227 H227       -9.4785  -19.5909  -52.6310 H         1 UNK         0.0600 
    228 H228       -8.4017  -20.6479  -51.7278 H         1 UNK         0.0600 
    229 H229       -9.1583  -19.2700  -50.9320 H         1 UNK         0.0600 
    230 H230       -5.8756  -20.6371  -52.5940 H         1 UNK         0.3000 
    231 H231       -5.7033  -20.5286  -55.5515 H         1 UNK         0.0600 
    232 H232       -5.8711  -22.7474  -54.3680 H         1 UNK         0.0600 
    233 H233       -4.3655  -22.3992  -53.5227 H         1 UNK         0.0600 
    234 H234       -4.3710  -22.5912  -55.2682 H         1 UNK         0.0600 
    235 H235       -3.4656  -20.5830  -56.4951 H         1 UNK         0.3000 
    236 H236       -1.3042  -19.3382  -55.0045 H         1 UNK         0.0600 
    237 H237       -1.0307  -17.4994  -56.6905 H         1 UNK         0.0600 
    238 H238       -2.5229  -17.9864  -57.4883 H         1 UNK         0.0600 
    239 H239       -2.5634  -17.3335  -55.8516 H         1 UNK         0.0600 
    240 H240        0.6787  -19.3444  -56.3657 H         1 UNK         0.3000 
    241 H241        0.9148  -21.9275  -57.6440 H         1 UNK         0.0600 
    242 H242        0.6712  -19.3295  -60.6964 H         1 UNK         0.3800 
    243 H243        0.0768  -18.9448  -59.1026 H         1 UNK         0.3800 
    244 H244        3.3350  -21.5318  -57.6015 H         1 UNK         0.0800 
    245 H245        3.1098  -19.8556  -57.1858 H         1 UNK         0.0800 
    246 H246        4.0564  -19.4878  -54.6054 H         1 UNK         0.0800 
    247 H247        2.4512  -18.9425  -55.0230 H         1 UNK         0.0800 
@<TRIPOS>BOND
     1    1    2 1    
     2    1  127 1    
     3    1  128 1    
     4    1  129 1    
     5    2    3 2    
     6    2    4 am   BACKBONE|DICT|INTERRES
     7    4    5 1    
     8    4  130 1    
     9    5    6 1    
    10    5   65 1    
    11    5  131 1    
    12    6    7 1    
    13    6  132 1    
    14    6  133 1    
    15    7    8 1    
    16    8    9 1    
    17    8  134 1    
    18    8  135 1    
    19    9   10 ar   
    20    9   14 ar   
    21   10   11 ar   
    22   10  136 1    
    23   11   12 ar   
    24   11  126 1    
    25   12   13 ar   
    26   12  137 1    
    27   13   14 ar   
    28   13   15 1    
    29   14  138 1    
    30   15   16 1    
    31   15  139 1    
    32   15  140 1    
    33   16   17 1    
    34   17   18 1    
    35   17  141 1    
    36   17  142 1    
    37   18   19 1    
    38   18   67 1    
    39   18  143 1    
    40   19   20 am   BACKBONE|DICT|INTERRES
    41   19  144 1    
    42   20   21 2    
    43   20   22 1    
    44   22   23 1    
    45   22   24 1    
    46   22  145 1    
    47   23  146 1    
    48   23  147 1    
    49   23  148 1    
    50   24   25 am   BACKBONE|DICT|INTERRES
    51   24  149 1    
    52   25   26 2    
    53   25   27 1    
    54   27   28 1    
    55   27   29 1    
    56   27  150 1    
    57   28  151 1    
    58   28  152 1    
    59   28  153 1    
    60   29   30 am   BACKBONE|DICT|INTERRES
    61   29  154 1    
    62   30   31 2    
    63   30   32 1    
    64   32   33 1    
    65   32   34 1    
    66   32  155 1    
    67   33  156 1    
    68   33  157 1    
    69   33  158 1    
    70   34   35 am   BACKBONE|DICT|INTERRES
    71   34  159 1    
    72   35   36 2    
    73   35   37 1    
    74   37   38 1    
    75   37   39 1    
    76   37  160 1    
    77   38  161 1    
    78   38  162 1    
    79   38  163 1    
    80   39   40 am   BACKBONE|DICT|INTERRES
    81   39  164 1    
    82   40   41 2    
    83   40   42 1    
    84   42   43 1    
    85   42   44 1    
    86   42  165 1    
    87   43  166 1    
    88   43  167 1    
    89   43  168 1    
    90   44   45 am   BACKBONE|DICT|INTERRES
    91   44  169 1    
    92   45   46 2    
    93   45   47 1    
    94   47   48 1    
    95   47   49 1    
    96   47  170 1    
    97   48  171 1    
    98   48  172 1    
    99   48  173 1    
   100   49   50 am   BACKBONE|DICT|INTERRES
   101   49  174 1    
   102   50   51 2    
   103   50   52 1    
   104   52   53 1    
   105   52   54 1    
   106   52  175 1    
   107   53  176 1    
   108   53  177 1    
   109   53  178 1    
   110   54   55 am   BACKBONE|DICT|INTERRES
   111   54  179 1    
   112   55   56 2    
   113   55   57 1    
   114   57   58 1    
   115   57   59 1    
   116   57  180 1    
   117   58  181 1    
   118   58  182 1    
   119   58  183 1    
   120   59   60 am   BACKBONE|DICT|INTERRES
   121   59  184 1    
   122   60   61 2    
   123   60   62 1    
   124   62   63 1    
   125   62   64 1    
   126   62  185 1    
   127   63  186 1    
   128   63  187 1    
   129   63  188 1    
   130   64   65 am   BACKBONE|DICT|INTERRES
   131   64  189 1    
   132   65   66 2    
   133   67   68 2    
   134   67   69 am   BACKBONE|DICT|INTERRES
   135   69   70 1    
   136   69  190 1    
   137   70   71 1    
   138   70   72 1    
   139   70  191 1    
   140   71  192 1    
   141   71  193 1    
   142   71  194 1    
   143   72   73 2    
   144   72   74 am   BACKBONE|DICT|INTERRES
   145   74   75 1    
   146   74  195 1    
   147   75   76 1    
   148   75   77 1    
   149   75  196 1    
   150   76  197 1    
   151   76  198 1    
   152   76  199 1    
   153   77   78 2    
   154   77   79 am   BACKBONE|DICT|INTERRES
   155   79   80 1    
   156   79  200 1    
   157   80   81 1    
   158   80   82 1    
   159   80  201 1    
   160   81  202 1    
   161   81  203 1    
   162   81  204 1    
   163   82   83 2    
   164   82   84 am   BACKBONE|DICT|INTERRES
   165   84   85 1    
   166   84  205 1    
   167   85   86 1    
   168   85   87 1    
   169   85  206 1    
   170   86  207 1    
   171   86  208 1    
   172   86  209 1    
   173   87   88 2    
   174   87   89 am   BACKBONE|DICT|INTERRES
   175   89   90 1    
   176   89  210 1    
   177   90   91 1    
   178   90   92 1    
   179   90  211 1    
   180   91  212 1    
   181   91  213 1    
   182   91  214 1    
   183   92   93 2    
   184   92   94 am   BACKBONE|DICT|INTERRES
   185   94   95 1    
   186   94  215 1    
   187   95   96 1    
   188   95   97 1    
   189   95  216 1    
   190   96  217 1    
   191   96  218 1    
   192   96  219 1    
   193   97   98 2    
   194   97   99 am   BACKBONE|DICT|INTERRES
   195   99  100 1    
   196   99  220 1    
   197  100  101 1    
   198  100  102 1    
   199  100  221 1    
   200  101  222 1    
   201  101  223 1    
   202  101  224 1    
   203  102  103 2    
   204  102  104 am   BACKBONE|DICT|INTERRES
   205  104  105 1    
   206  104  225 1    
   207  105  106 1    
   208  105  107 1    
   209  105  226 1    
   210  106  227 1    
   211  106  228 1    
   212  106  229 1    
   213  107  108 2    
   214  107  109 am   BACKBONE|DICT|INTERRES
   215  109  110 1    
   216  109  230 1    
   217  110  111 1    
   218  110  112 1    
   219  110  231 1    
   220  111  232 1    
   221  111  233 1    
   222  111  234 1    
   223  112  113 2    
   224  112  114 am   BACKBONE|DICT|INTERRES
   225  114  115 1    
   226  114  235 1    
   227  115  116 1    
   228  115  117 1    
   229  115  236 1    
   230  116  237 1    
   231  116  238 1    
   232  116  239 1    
   233  117  118 2    
   234  117  119 am   BACKBONE|DICT|INTERRES
   235  119  120 1    
   236  119  240 1    
   237  120  121 1    
   238  120  124 1    
   239  120  241 1    
   240  121  122 am   BACKBONE|DICT|INTERRES
   241  121  123 2    
   242  122  242 1    
   243  122  243 1    
   244  124  125 1    
   245  124  244 1    
   246  124  245 1    
   247  125  126 1    
   248  126  246 1    
   249  126  247 1    
@<TRIPOS>SUBSTRUCTURE
     1 UNK         1 GROUP             0       ****    0 ROOT    
