@<TRIPOS>MOLECULE
3R540
247   249    1
SMALL
USER_CHARGES


@<TRIPOS>ATOM
      1 CA         -3.5358  -21.2247  -44.7148 C.3       0 UNK        -0.1800 
      2 C          -3.4905  -20.3678  -45.9690 C.2       0 UNK         0.5000 
      3 O          -4.5246  -19.8509  -46.3917 O.2       0 UNK        -0.5000 
      4 N          -2.2990  -20.2062  -46.5575 N.am      1 UNK        -0.5000 
      5 CA         -2.0376  -19.3093  -47.6843 C.3       1 UNK         0.1400 
      6 C6         -0.6995  -19.6504  -48.3766 C.3       23 UNK        -0.0398 
      7 S7         -0.5660  -18.8189  -49.9943 S.3       23 UNK        -0.2404 
      8 C8          0.9437  -17.8349  -49.7864 C.3       23 UNK        -0.0205 
      9 C9          2.1736  -18.7104  -49.9371 C.ar      23 UNK        -0.0193 
     10 C10         2.6466  -19.0280  -51.2119 C.ar      23 UNK        -0.1150 
     11 C11         3.7453  -19.8799  -51.3767 C.ar      23 UNK        -0.0193 
     12 C12         4.3802  -20.3919  -50.2402 C.ar      23 UNK        -0.1150 
     13 C13         3.9219  -20.0715  -48.9583 C.ar      23 UNK        -0.0193 
     14 C14         2.8224  -19.2237  -48.8131 C.ar      23 UNK        -0.1150 
     15 C15         4.6049  -20.6526  -47.7300 C.3       23 UNK        -0.0205 
     16 S16         4.1516  -22.3966  -47.4824 S.3       23 UNK        -0.2404 
     17 C17         2.3978  -22.2603  -46.9911 C.3       23 UNK        -0.0398 
     18 CA          2.1581  -22.7738  -45.5531 C.3       11 UNK         0.1400 
     19 N           2.7975  -21.9306  -44.5497 N.am      11 UNK        -0.5000 
     20 C           3.7763  -22.3204  -43.7263 C.2       10 UNK         0.5000 
     21 O           4.2291  -23.4653  -43.6862 O.2       10 UNK        -0.5000 
     22 CA          4.3472  -21.2492  -42.7815 C.3       10 UNK         0.1400 
     23 CB          5.2645  -20.2834  -43.5485 C.3       10 UNK        -0.1800 
     24 N           3.3046  -20.4913  -42.0912 N.am      10 UNK        -0.5000 
     25 C           2.4948  -20.9940  -41.1482 C.2       9 UNK         0.5000 
     26 O           2.5611  -22.1515  -40.7328 O.2       9 UNK        -0.5000 
     27 CA          1.4260  -20.0453  -40.5753 C.3       9 UNK         0.1400 
     28 CB          2.0269  -19.1270  -39.5003 C.3       9 UNK        -0.1800 
     29 N           0.7930  -19.2376  -41.6169 N.am      9 UNK        -0.5000 
     30 C          -0.0489  -19.7266  -42.5378 C.2       8 UNK         0.5000 
     31 O          -0.4597  -20.8865  -42.5348 O.2       8 UNK        -0.5000 
     32 CA         -0.4986  -18.7676  -43.6546 C.3       8 UNK         0.1400 
     33 CB         -1.7714  -18.0102  -43.2483 C.3       8 UNK        -0.1800 
     34 N           0.5357  -17.8075  -44.0339 N.am      8 UNK        -0.5000 
     35 C           1.6731  -18.1256  -44.6666 C.2       7 UNK         0.5000 
     36 O           1.9688  -19.2655  -45.0218 O.2       7 UNK        -0.5000 
     37 CA          2.6808  -16.9846  -44.8847 C.3       7 UNK         0.1400 
     38 CB          2.3173  -16.1506  -46.1221 C.3       7 UNK        -0.1800 
     39 N           2.7828  -16.1151  -43.7119 N.am      7 UNK        -0.5000 
     40 C           3.3070  -16.4917  -42.5367 C.2       6 UNK         0.5000 
     41 O           3.7787  -17.6080  -42.3264 O.2       6 UNK        -0.5000 
     42 CA          3.2619  -15.4615  -41.3939 C.3       6 UNK         0.1400 
     43 CB          4.4617  -14.5066  -41.4794 C.3       6 UNK        -0.1800 
     44 N           2.0227  -14.6839  -41.3891 N.am      6 UNK        -0.5000 
     45 C           0.8113  -15.1885  -41.1144 C.2       5 UNK         0.5000 
     46 O           0.6134  -16.3603  -40.7960 O.2       5 UNK        -0.5000 
     47 CA         -0.3830  -14.2305  -41.2868 C.3       5 UNK         0.1400 
     48 CB         -0.5784  -13.3714  -40.0288 C.3       5 UNK        -0.1800 
     49 N          -0.2428  -13.3603  -42.4597 N.am      5 UNK        -0.5000 
     50 C          -0.1858  -13.8126  -43.7181 C.2       4 UNK         0.5000 
     51 O          -0.2724  -15.0078  -44.0155 O.2       4 UNK        -0.5000 
     52 CA          0.0590  -12.7757  -44.8221 C.3       4 UNK         0.1400 
     53 CB          1.5407  -12.3538  -44.8525 C.3       4 UNK        -0.1800 
     54 N          -0.3197  -13.3981  -46.0823 N.am      4 UNK        -0.5000 
     55 C          -0.4971  -12.8064  -47.2675 C.2       3 UNK         0.5000 
     56 O          -0.3185  -11.6057  -47.4737 O.2       3 UNK        -0.5000 
     57 CA         -0.9800  -13.7185  -48.4123 C.3       3 UNK         0.1400 
     58 CB          0.2154  -14.2842  -49.1927 C.3       3 UNK        -0.1800 
     59 N          -1.7985  -14.8287  -47.9188 N.am      3 UNK        -0.5000 
     60 C          -3.0543  -14.7069  -47.4732 C.2       2 UNK         0.5000 
     61 O          -3.6951  -13.6587  -47.5658 O.2       2 UNK        -0.5000 
     62 CA         -3.6979  -15.9394  -46.7944 C.3       2 UNK         0.1400 
     63 CB         -5.2353  -15.8668  -46.8041 C.3       2 UNK        -0.1800 
     64 N          -3.3027  -17.2443  -47.3323 N.am      2 UNK        -0.5000 
     65 C          -2.1103  -17.8403  -47.2172 C.2       1 UNK         0.5000 
     66 O          -1.1136  -17.2880  -46.7497 O.2       1 UNK        -0.5000 
     67 C           0.6627  -22.8524  -45.2183 C.2       11 UNK         0.5000 
     68 O          -0.1153  -21.9834  -45.6221 O.2       11 UNK        -0.5000 
     69 N           0.2968  -23.9109  -44.4818 N.am      12 UNK        -0.5000 
     70 CA         -1.0893  -24.2886  -44.2019 C.3       12 UNK         0.1400 
     71 CB         -1.1103  -25.3395  -43.0820 C.3       12 UNK        -0.1800 
     72 C          -1.8131  -24.8151  -45.4580 C.2       12 UNK         0.5000 
     73 O          -3.0253  -24.6410  -45.5820 O.2       12 UNK        -0.5000 
     74 N          -1.0520  -25.4328  -46.3724 N.am      13 UNK        -0.5000 
     75 CA         -1.4908  -25.7791  -47.7215 C.3       13 UNK         0.1400 
     76 CB         -0.5532  -26.8530  -48.2939 C.3       13 UNK        -0.1800 
     77 C          -1.4864  -24.5236  -48.6106 C.2       13 UNK         0.5000 
     78 O          -0.5853  -23.6915  -48.4871 O.2       13 UNK        -0.5000 
     79 N          -2.4808  -24.4168  -49.4930 N.am      14 UNK        -0.5000 
     80 CA         -2.6928  -23.2852  -50.3876 C.3       14 UNK         0.1400 
     81 CB         -3.3302  -22.1245  -49.6021 C.3       14 UNK        -0.1800 
     82 C          -3.6139  -23.7264  -51.5306 C.2       14 UNK         0.5000 
     83 O          -4.1766  -24.8246  -51.4813 O.2       14 UNK        -0.5000 
     84 N          -3.7940  -22.8393  -52.5157 N.am      15 UNK        -0.5000 
     85 CA         -4.7398  -23.0038  -53.6225 C.3       15 UNK         0.1400 
     86 CB         -4.5022  -21.8877  -54.6488 C.3       15 UNK        -0.1800 
     87 C          -6.2157  -22.9842  -53.1769 C.2       15 UNK         0.5000 
     88 O          -7.0670  -23.5102  -53.8949 O.2       15 UNK        -0.5000 
     89 N          -6.4903  -22.3515  -52.0244 N.am      16 UNK        -0.5000 
     90 CA         -7.7853  -22.1363  -51.3623 C.3       16 UNK         0.1400 
     91 CB         -8.4866  -23.4667  -51.0315 C.3       16 UNK        -0.1800 
     92 C          -8.7198  -21.1781  -52.1244 C.2       16 UNK         0.5000 
     93 O          -9.2388  -20.2338  -51.5296 O.2       16 UNK        -0.5000 
     94 N          -8.8679  -21.3830  -53.4365 N.am      17 UNK        -0.5000 
     95 CA         -9.5827  -20.5166  -54.3724 C.3       17 UNK         0.1400 
     96 CB        -10.0368  -21.3647  -55.5741 C.3       17 UNK        -0.1800 
     97 C          -8.7173  -19.3060  -54.7864 C.2       17 UNK         0.5000 
     98 O          -8.4976  -19.0765  -55.9772 O.2       17 UNK        -0.5000 
     99 N          -8.2256  -18.5621  -53.7896 N.am      18 UNK        -0.5000 
    100 CA        -7.4075  -17.3647  -53.9469 C.3       18 UNK         0.1400 
    101 CB        -5.9532  -17.6997  -54.3370 C.3       18 UNK        -0.1800 
    102 C         -7.5477  -16.4478  -52.7165 C.2       18 UNK         0.5000 
    103 O         -8.0357  -15.3318  -52.8815 O.2       18 UNK        -0.5000 
    104 N         -7.2056  -16.8613  -51.4837 N.am      19 UNK        -0.5000 
    105 CA        -6.4523  -18.0497  -51.0602 C.3       19 UNK         0.1400 
    106 CB        -6.9483  -18.4703  -49.6669 C.3       19 UNK        -0.1800 
    107 C         -4.9298  -17.8015  -51.0232 C.2       19 UNK         0.5000 
    108 O         -4.1775  -18.7203  -50.7055 O.2       19 UNK        -0.5000 
    109 N         -4.4984  -16.5769  -51.3512 N.am      20 UNK        -0.5000 
    110 CA        -3.1067  -16.1315  -51.4168 C.3       20 UNK         0.1400 
    111 CB        -3.0973  -14.5949  -51.3211 C.3       20 UNK        -0.1800 
    112 C         -2.3750  -16.6435  -52.6797 C.2       20 UNK         0.5000 
    113 O         -1.8639  -15.8421  -53.4643 O.2       20 UNK        -0.5000 
    114 N         -2.3387  -17.9660  -52.8622 N.am      21 UNK        -0.5000 
    115 CA        -1.5947  -18.6566  -53.9091 C.3       21 UNK         0.1400 
    116 CB        -2.4358  -18.7508  -55.1922 C.3       21 UNK        -0.1800 
    117 C         -1.1849  -20.0387  -53.3847 C.2       21 UNK         0.5000 
    118 O         -1.9382  -20.6466  -52.6191 O.2       21 UNK        -0.5000 
    119 N          0.0050  -20.4900  -53.7995 N.am      22 UNK        -0.5000 
    120 CA         0.7383  -21.6436  -53.2457 C.3       22 UNK         0.1400 
    121 C          0.0116  -23.0185  -53.3250 C.2       22 UNK         0.5000 
    122 N         -0.9255  -23.2147  -54.2435 N.am      22 UNK        -0.7600 
    123 O          0.3110  -23.9206  -52.5489 O.2       22 UNK        -0.5000 
    124 C124        2.1608  -21.7827  -53.8606 C.3       23 UNK        -0.0398 
    125 S125        3.0652  -20.2119  -54.1090 S.3       23 UNK        -0.2404 
    126 C126        4.2954  -20.2312  -52.7584 C.3       23 UNK        -0.0205 
    127 H127       -4.1398  -20.7395  -43.9483 H         1 UNK         0.0600 
    128 H128       -2.5384  -21.3779  -44.3056 H         1 UNK         0.0600 
    129 H129       -3.9778  -22.1954  -44.9362 H         1 UNK         0.0600 
    130 H130       -1.4911  -20.7027  -46.1881 H         1 UNK         0.3000 
    131 H131       -2.8324  -19.4661  -48.4165 H         1 UNK         0.0600 
    132 H132        0.1461  -19.4061  -47.7326 H         1 UNK         0.0800 
    133 H133       -0.6321  -20.7242  -48.5586 H         1 UNK         0.0800 
    134 H134        0.9609  -17.0496  -50.5430 H         1 UNK         0.0800 
    135 H135        0.9292  -17.3343  -48.8182 H         1 UNK         0.0800 
    136 H136        2.1414  -18.6150  -52.0727 H         1 UNK         0.1150 
    137 H137        5.2329  -21.0476  -50.3497 H         1 UNK         0.1150 
    138 H138        2.4602  -18.9821  -47.8243 H         1 UNK         0.1150 
    139 H139        5.6868  -20.5796  -47.8477 H         1 UNK         0.0800 
    140 H140        4.3532  -20.0814  -46.8346 H         1 UNK         0.0800 
    141 H141        2.0508  -21.2318  -47.0867 H         1 UNK         0.0800 
    142 H142        1.8161  -22.8420  -47.7075 H         1 UNK         0.0800 
    143 H143        2.5544  -23.7906  -45.5075 H         1 UNK         0.0600 
    144 H144        2.4737  -20.9653  -44.5279 H         1 UNK         0.3000 
    145 H145        4.9508  -21.7578  -42.0269 H         1 UNK         0.0600 
    146 H146        5.7577  -19.5873  -42.8699 H         1 UNK         0.0600 
    147 H147        6.0452  -20.8256  -44.0834 H         1 UNK         0.0600 
    148 H148        4.7098  -19.6972  -44.2818 H         1 UNK         0.0600 
    149 H149        3.2275  -19.5077  -42.3304 H         1 UNK         0.3000 
    150 H150        0.6552  -20.6570  -40.1016 H         1 UNK         0.0600 
    151 H151        2.4867  -19.7105  -38.7017 H         1 UNK         0.0600 
    152 H152        1.2602  -18.5000  -39.0449 H         1 UNK         0.0600 
    153 H153        2.7944  -18.4710  -39.9110 H         1 UNK         0.0600 
    154 H154        1.0175  -18.2495  -41.6333 H         1 UNK         0.3000 
    155 H155       -0.7232  -19.3733  -44.5324 H         1 UNK         0.0600 
    156 H156       -1.5962  -17.3660  -42.3859 H         1 UNK         0.0600 
    157 H157       -2.5727  -18.7024  -42.9881 H         1 UNK         0.0600 
    158 H158       -2.1328  -17.3843  -44.0640 H         1 UNK         0.0600 
    159 H159        0.3400  -16.8290  -43.8440 H         1 UNK         0.3000 
    160 H160        3.6618  -17.4325  -45.0572 H         1 UNK         0.0600 
    161 H161        1.3089  -15.7441  -46.0561 H         1 UNK         0.0600 
    162 H162        2.3624  -16.7597  -47.0235 H         1 UNK         0.0600 
    163 H163        3.0094  -15.3202  -46.2608 H         1 UNK         0.0600 
    164 H164        2.3701  -15.1988  -43.7866 H         1 UNK         0.3000 
    165 H165        3.3258  -16.0070  -40.4500 H         1 UNK         0.0600 
    166 H166        4.4802  -13.8203  -40.6325 H         1 UNK         0.0600 
    167 H167        5.4017  -15.0601  -41.4682 H         1 UNK         0.0600 
    168 H168        4.4414  -13.9121  -42.3936 H         1 UNK         0.0600 
    169 H169        2.0933  -13.7089  -41.6394 H         1 UNK         0.3000 
    170 H170       -1.2780  -14.8410  -41.4256 H         1 UNK         0.0600 
    171 H171       -0.7004  -13.9980  -39.1442 H         1 UNK         0.0600 
    172 H172        0.2739  -12.7145  -39.8509 H         1 UNK         0.0600 
    173 H173       -1.4704  -12.7501  -40.1105 H         1 UNK         0.0600 
    174 H174       -0.1652  -12.3688  -42.2839 H         1 UNK         0.3000 
    175 H175       -0.5787  -11.9080  -44.6430 H         1 UNK         0.0600 
    176 H176        1.8479  -11.9210  -43.8999 H         1 UNK         0.0600 
    177 H177        2.1964  -13.2005  -45.0569 H         1 UNK         0.0600 
    178 H178        1.7246  -11.6003  -45.6181 H         1 UNK         0.0600 
    179 H179       -0.5175  -14.3878  -45.9893 H         1 UNK         0.3000 
    180 H180       -1.5808  -13.1120  -49.0928 H         1 UNK         0.0600 
    181 H181        0.8650  -14.8838  -48.5546 H         1 UNK         0.0600 
    182 H182        0.8209  -13.4806  -49.6135 H         1 UNK         0.0600 
    183 H183       -0.1151  -14.9096  -50.0214 H         1 UNK         0.0600 
    184 H184       -1.3299  -15.7123  -47.7389 H         1 UNK         0.3000 
    185 H185       -3.3748  -15.9108  -45.7520 H         1 UNK         0.0600 
    186 H186       -5.5928  -14.9773  -46.2838 H         1 UNK         0.0600 
    187 H187       -5.6252  -15.8315  -47.8218 H         1 UNK         0.0600 
    188 H188       -5.6768  -16.7288  -46.3029 H         1 UNK         0.0600 
    189 H189       -4.0573  -17.8046  -47.7038 H         1 UNK         0.3000 
    190 H190        1.0103  -24.5407  -44.1440 H         1 UNK         0.3000 
    191 H191       -1.6218  -23.4062  -43.8461 H         1 UNK         0.0600 
    192 H192       -0.5783  -26.2474  -43.3692 H         1 UNK         0.0600 
    193 H193       -2.1339  -25.6229  -42.8336 H         1 UNK         0.0600 
    194 H194       -0.6511  -24.9534  -42.1717 H         1 UNK         0.0600 
    195 H195       -0.0611  -25.4976  -46.1981 H         1 UNK         0.3000 
    196 H196       -2.5030  -26.1869  -47.6746 H         1 UNK         0.0600 
    197 H197       -0.8668  -27.1495  -49.2956 H         1 UNK         0.0600 
    198 H198       -0.5547  -27.7496  -47.6739 H         1 UNK         0.0600 
    199 H199        0.4746  -26.4946  -48.3649 H         1 UNK         0.0600 
    200 H200       -3.1574  -25.1620  -49.6059 H         1 UNK         0.3000 
    201 H201       -1.7367  -22.9681  -50.8087 H         1 UNK         0.0600 
    202 H202       -2.7530  -21.8927  -48.7101 H         1 UNK         0.0600 
    203 H203       -4.3463  -22.3586  -49.2823 H         1 UNK         0.0600 
    204 H204       -3.3699  -21.2181  -50.2062 H         1 UNK         0.0600 
    205 H205       -3.2411  -21.9832  -52.5075 H         1 UNK         0.3000 
    206 H206       -4.5446  -23.9660  -54.0999 H         1 UNK         0.0600 
    207 H207       -3.4716  -21.8821  -55.0021 H         1 UNK         0.0600 
    208 H208       -5.1448  -22.0128  -55.5213 H         1 UNK         0.0600 
    209 H209       -4.7196  -20.9094  -54.2198 H         1 UNK         0.0600 
    210 H210       -5.6999  -21.9393  -51.5501 H         1 UNK         0.3000 
    211 H211       -7.5503  -21.6514  -50.4133 H         1 UNK         0.0600 
    212 H212       -8.7898  -24.0064  -51.9288 H         1 UNK         0.0600 
    213 H213       -9.3855  -23.2934  -50.4387 H         1 UNK         0.0600 
    214 H214       -7.8351  -24.1205  -50.4514 H         1 UNK         0.0600 
    215 H215       -8.3625  -22.1690  -53.8378 H         1 UNK         0.3000 
    216 H216      -10.4771  -20.1245  -53.8840 H         1 UNK         0.0600 
    217 H217      -10.6098  -20.7662  -56.2834 H         1 UNK         0.0600 
    218 H218      -10.6765  -22.1877  -55.2551 H         1 UNK         0.0600 
    219 H219       -9.1871  -21.7899  -56.1099 H         1 UNK         0.0600 
    220 H220       -8.4994  -18.7996  -52.8415 H         1 UNK         0.3000 
    221 H221       -7.8261  -16.7934  -54.7788 H         1 UNK         0.0600 
    222 H222       -5.5341  -18.5080  -53.7409 H         1 UNK         0.0600 
    223 H223       -5.8978  -18.0145  -55.3791 H         1 UNK         0.0600 
    224 H224       -5.3020  -16.8311  -54.2327 H         1 UNK         0.0600 
    225 H225       -7.4081  -16.2212  -50.7298 H         1 UNK         0.3000 
    226 H226       -6.6293  -18.8835  -51.7372 H         1 UNK         0.0600 
    227 H227       -8.0198  -18.6695  -49.6715 H         1 UNK         0.0600 
    228 H228       -6.4525  -19.3821  -49.3301 H         1 UNK         0.0600 
    229 H229       -6.7578  -17.7001  -48.9196 H         1 UNK         0.0600 
    230 H230       -5.1910  -15.8899  -51.6094 H         1 UNK         0.3000 
    231 H231       -2.5730  -16.5240  -50.5487 H         1 UNK         0.0600 
    232 H232       -3.6214  -14.1368  -52.1608 H         1 UNK         0.0600 
    233 H233       -2.0789  -14.2063  -51.3210 H         1 UNK         0.0600 
    234 H234       -3.5763  -14.2517  -50.4047 H         1 UNK         0.0600 
    235 H235       -2.7492  -18.5732  -52.1563 H         1 UNK         0.3000 
    236 H236       -0.6820  -18.0963  -54.1241 H         1 UNK         0.0600 
    237 H237       -2.6297  -17.7615  -55.6069 H         1 UNK         0.0600 
    238 H238       -1.9214  -19.3303  -55.9595 H         1 UNK         0.0600 
    239 H239       -3.3980  -19.2242  -55.0086 H         1 UNK         0.0600 
    240 H240        0.5395  -19.9272  -54.4454 H         1 UNK         0.3000 
    241 H241        0.8634  -21.4296  -52.1822 H         1 UNK         0.0600 
    242 H242       -1.3858  -24.1083  -54.2997 H         1 UNK         0.3800 
    243 H243       -1.1690  -22.4800  -54.8869 H         1 UNK         0.3800 
    244 H244        2.7665  -22.4543  -53.2498 H         1 UNK         0.0800 
    245 H245        2.0966  -22.2546  -54.8430 H         1 UNK         0.0800 
    246 H246        5.0745  -19.5074  -53.0002 H         1 UNK         0.0800 
    247 H247        4.7825  -21.2073  -52.7374 H         1 UNK         0.0800 
@<TRIPOS>BOND
     1    1    2 1    
     2    1  127 1    
     3    1  128 1    
     4    1  129 1    
     5    2    3 2    
     6    2    4 am   BACKBONE|DICT|INTERRES
     7    4    5 1    
     8    4  130 1    
     9    5    6 1    
    10    5   65 1    
    11    5  131 1    
    12    6    7 1    
    13    6  132 1    
    14    6  133 1    
    15    7    8 1    
    16    8    9 1    
    17    8  134 1    
    18    8  135 1    
    19    9   10 ar   
    20    9   14 ar   
    21   10   11 ar   
    22   10  136 1    
    23   11   12 ar   
    24   11  126 1    
    25   12   13 ar   
    26   12  137 1    
    27   13   14 ar   
    28   13   15 1    
    29   14  138 1    
    30   15   16 1    
    31   15  139 1    
    32   15  140 1    
    33   16   17 1    
    34   17   18 1    
    35   17  141 1    
    36   17  142 1    
    37   18   19 1    
    38   18   67 1    
    39   18  143 1    
    40   19   20 am   BACKBONE|DICT|INTERRES
    41   19  144 1    
    42   20   21 2    
    43   20   22 1    
    44   22   23 1    
    45   22   24 1    
    46   22  145 1    
    47   23  146 1    
    48   23  147 1    
    49   23  148 1    
    50   24   25 am   BACKBONE|DICT|INTERRES
    51   24  149 1    
    52   25   26 2    
    53   25   27 1    
    54   27   28 1    
    55   27   29 1    
    56   27  150 1    
    57   28  151 1    
    58   28  152 1    
    59   28  153 1    
    60   29   30 am   BACKBONE|DICT|INTERRES
    61   29  154 1    
    62   30   31 2    
    63   30   32 1    
    64   32   33 1    
    65   32   34 1    
    66   32  155 1    
    67   33  156 1    
    68   33  157 1    
    69   33  158 1    
    70   34   35 am   BACKBONE|DICT|INTERRES
    71   34  159 1    
    72   35   36 2    
    73   35   37 1    
    74   37   38 1    
    75   37   39 1    
    76   37  160 1    
    77   38  161 1    
    78   38  162 1    
    79   38  163 1    
    80   39   40 am   BACKBONE|DICT|INTERRES
    81   39  164 1    
    82   40   41 2    
    83   40   42 1    
    84   42   43 1    
    85   42   44 1    
    86   42  165 1    
    87   43  166 1    
    88   43  167 1    
    89   43  168 1    
    90   44   45 am   BACKBONE|DICT|INTERRES
    91   44  169 1    
    92   45   46 2    
    93   45   47 1    
    94   47   48 1    
    95   47   49 1    
    96   47  170 1    
    97   48  171 1    
    98   48  172 1    
    99   48  173 1    
   100   49   50 am   BACKBONE|DICT|INTERRES
   101   49  174 1    
   102   50   51 2    
   103   50   52 1    
   104   52   53 1    
   105   52   54 1    
   106   52  175 1    
   107   53  176 1    
   108   53  177 1    
   109   53  178 1    
   110   54   55 am   BACKBONE|DICT|INTERRES
   111   54  179 1    
   112   55   56 2    
   113   55   57 1    
   114   57   58 1    
   115   57   59 1    
   116   57  180 1    
   117   58  181 1    
   118   58  182 1    
   119   58  183 1    
   120   59   60 am   BACKBONE|DICT|INTERRES
   121   59  184 1    
   122   60   61 2    
   123   60   62 1    
   124   62   63 1    
   125   62   64 1    
   126   62  185 1    
   127   63  186 1    
   128   63  187 1    
   129   63  188 1    
   130   64   65 am   BACKBONE|DICT|INTERRES
   131   64  189 1    
   132   65   66 2    
   133   67   68 2    
   134   67   69 am   BACKBONE|DICT|INTERRES
   135   69   70 1    
   136   69  190 1    
   137   70   71 1    
   138   70   72 1    
   139   70  191 1    
   140   71  192 1    
   141   71  193 1    
   142   71  194 1    
   143   72   73 2    
   144   72   74 am   BACKBONE|DICT|INTERRES
   145   74   75 1    
   146   74  195 1    
   147   75   76 1    
   148   75   77 1    
   149   75  196 1    
   150   76  197 1    
   151   76  198 1    
   152   76  199 1    
   153   77   78 2    
   154   77   79 am   BACKBONE|DICT|INTERRES
   155   79   80 1    
   156   79  200 1    
   157   80   81 1    
   158   80   82 1    
   159   80  201 1    
   160   81  202 1    
   161   81  203 1    
   162   81  204 1    
   163   82   83 2    
   164   82   84 am   BACKBONE|DICT|INTERRES
   165   84   85 1    
   166   84  205 1    
   167   85   86 1    
   168   85   87 1    
   169   85  206 1    
   170   86  207 1    
   171   86  208 1    
   172   86  209 1    
   173   87   88 2    
   174   87   89 am   BACKBONE|DICT|INTERRES
   175   89   90 1    
   176   89  210 1    
   177   90   91 1    
   178   90   92 1    
   179   90  211 1    
   180   91  212 1    
   181   91  213 1    
   182   91  214 1    
   183   92   93 2    
   184   92   94 am   BACKBONE|DICT|INTERRES
   185   94   95 1    
   186   94  215 1    
   187   95   96 1    
   188   95   97 1    
   189   95  216 1    
   190   96  217 1    
   191   96  218 1    
   192   96  219 1    
   193   97   98 2    
   194   97   99 am   BACKBONE|DICT|INTERRES
   195   99  100 1    
   196   99  220 1    
   197  100  101 1    
   198  100  102 1    
   199  100  221 1    
   200  101  222 1    
   201  101  223 1    
   202  101  224 1    
   203  102  103 2    
   204  102  104 am   BACKBONE|DICT|INTERRES
   205  104  105 1    
   206  104  225 1    
   207  105  106 1    
   208  105  107 1    
   209  105  226 1    
   210  106  227 1    
   211  106  228 1    
   212  106  229 1    
   213  107  108 2    
   214  107  109 am   BACKBONE|DICT|INTERRES
   215  109  110 1    
   216  109  230 1    
   217  110  111 1    
   218  110  112 1    
   219  110  231 1    
   220  111  232 1    
   221  111  233 1    
   222  111  234 1    
   223  112  113 2    
   224  112  114 am   BACKBONE|DICT|INTERRES
   225  114  115 1    
   226  114  235 1    
   227  115  116 1    
   228  115  117 1    
   229  115  236 1    
   230  116  237 1    
   231  116  238 1    
   232  116  239 1    
   233  117  118 2    
   234  117  119 am   BACKBONE|DICT|INTERRES
   235  119  120 1    
   236  119  240 1    
   237  120  121 1    
   238  120  124 1    
   239  120  241 1    
   240  121  122 am   BACKBONE|DICT|INTERRES
   241  121  123 2    
   242  122  242 1    
   243  122  243 1    
   244  124  125 1    
   245  124  244 1    
   246  124  245 1    
   247  125  126 1    
   248  126  246 1    
   249  126  247 1    
@<TRIPOS>SUBSTRUCTURE
     1 UNK         1 GROUP             0       ****    0 ROOT    
