@<TRIPOS>MOLECULE
3R540
247   249    1
SMALL
USER_CHARGES


@<TRIPOS>ATOM
      1 CA         -0.8184  -10.9988  -50.4993 C.3       0 UNK        -0.1800 
      2 C          -0.1274  -11.2248  -49.1626 C.2       0 UNK         0.5000 
      3 O           0.6401  -10.3732  -48.7133 O.2       0 UNK        -0.5000 
      4 N          -0.4100  -12.3584  -48.5101 N.am      1 UNK        -0.5000 
      5 CA          0.1781  -12.7930  -47.2350 C.3       1 UNK         0.1400 
      6 C6          0.1462  -14.3365  -47.0849 C.3       23 UNK        -0.0398 
      7 S7          0.9904  -15.2371  -48.4284 S.3       23 UNK        -0.2404 
      8 C8         -0.4478  -15.8642  -49.3479 C.3       23 UNK        -0.0205 
      9 C9         -0.0522  -16.9111  -50.3741 C.ar      23 UNK        -0.0193 
     10 C10         0.1793  -16.5536  -51.7047 C.ar      23 UNK        -0.1150 
     11 C11         0.4745  -17.5319  -52.6594 C.ar      23 UNK        -0.0193 
     12 C12         0.5442  -18.8735  -52.2699 C.ar      23 UNK        -0.1150 
     13 C13         0.3331  -19.2425  -50.9373 C.ar      23 UNK        -0.0193 
     14 C14         0.0432  -18.2513  -49.9945 C.ar      23 UNK        -0.1150 
     15 C15         0.4330  -20.7074  -50.5267 C.3       23 UNK        -0.0205 
     16 S16        -1.1008  -21.3329  -49.7629 S.3       23 UNK        -0.2404 
     17 C17        -0.7895  -21.0385  -47.9878 C.3       23 UNK        -0.0398 
     18 CA         -0.6598  -22.3540  -47.1850 C.3       11 UNK         0.1400 
     19 N           0.0875  -22.1669  -45.9394 N.am      11 UNK        -0.5000 
     20 C           0.4796  -23.1583  -45.1266 C.2       10 UNK         0.5000 
     21 O           0.2884  -24.3504  -45.3604 O.2       10 UNK        -0.5000 
     22 CA          1.1471  -22.7503  -43.8025 C.3       10 UNK         0.1400 
     23 CB          2.6231  -22.3883  -44.0226 C.3       10 UNK        -0.1800 
     24 N           0.4508  -21.6441  -43.1443 N.am      10 UNK        -0.5000 
     25 C          -0.8134  -21.7072  -42.7006 C.2       9 UNK         0.5000 
     26 O          -1.5057  -22.7240  -42.7553 O.2       9 UNK        -0.5000 
     27 CA         -1.4231  -20.4095  -42.1413 C.3       9 UNK         0.1400 
     28 CB         -0.9677  -20.1736  -40.6937 C.3       9 UNK        -0.1800 
     29 N          -1.1081  -19.2339  -42.9538 N.am      9 UNK        -0.5000 
     30 C          -1.4858  -19.0587  -44.2290 C.2       8 UNK         0.5000 
     31 O          -2.1656  -19.8665  -44.8625 O.2       8 UNK        -0.5000 
     32 CA         -0.9633  -17.7920  -44.9324 C.3       8 UNK         0.1400 
     33 CB         -1.7324  -16.5479  -44.4611 C.3       8 UNK        -0.1800 
     34 N           0.4721  -17.6008  -44.7210 N.am      8 UNK        -0.5000 
     35 C           1.4168  -18.4700  -45.1105 C.2       7 UNK         0.5000 
     36 O           1.1853  -19.4954  -45.7497 O.2       7 UNK        -0.5000 
     37 CA          2.8543  -18.1771  -44.6558 C.3       7 UNK         0.1400 
     38 CB          3.5385  -17.1888  -45.6122 C.3       7 UNK        -0.1800 
     39 N           2.8889  -17.6670  -43.2840 N.am      7 UNK        -0.5000 
     40 C           2.6391  -18.4161  -42.1992 C.2       6 UNK         0.5000 
     41 O           2.3928  -19.6206  -42.2461 O.2       6 UNK        -0.5000 
     42 CA          2.6229  -17.6969  -40.8371 C.3       6 UNK         0.1400 
     43 CB          4.0445  -17.5877  -40.2664 C.3       6 UNK        -0.1800 
     44 N           2.0253  -16.3637  -40.9077 N.am      6 UNK        -0.5000 
     45 C           0.7352  -16.1236  -41.1814 C.2       5 UNK         0.5000 
     46 O          -0.1035  -17.0100  -41.3402 O.2       5 UNK        -0.5000 
     47 CA          0.3274  -14.6477  -41.3633 C.3       5 UNK         0.1400 
     48 CB         -0.1285  -14.0426  -40.0280 C.3       5 UNK        -0.1800 
     49 N           1.3852  -13.8096  -41.9370 N.am      5 UNK        -0.5000 
     50 C           1.9652  -14.0120  -43.1266 C.2       4 UNK         0.5000 
     51 O           1.6843  -14.9619  -43.8587 O.2       4 UNK        -0.5000 
     52 CA          3.0417  -12.9938  -43.5510 C.3       4 UNK         0.1400 
     53 CB          3.6800  -13.3364  -44.9090 C.3       4 UNK        -0.1800 
     54 N           2.5038  -11.6364  -43.6154 N.am      4 UNK        -0.5000 
     55 C           2.3370  -10.8098  -42.5745 C.2       3 UNK         0.5000 
     56 O           2.5966  -11.1183  -41.4106 O.2       3 UNK        -0.5000 
     57 CA          1.7674   -9.4162  -42.8915 C.3       3 UNK         0.1400 
     58 CB          2.8966   -8.4456  -43.2696 C.3       3 UNK        -0.1800 
     59 N           0.7918   -9.4698  -43.9815 N.am      3 UNK        -0.5000 
     60 C          -0.4938   -9.8102  -43.8198 C.2       2 UNK         0.5000 
     61 O          -1.0128  -10.0428  -42.7275 O.2       2 UNK        -0.5000 
     62 CA         -1.3282   -9.9359  -45.1055 C.3       2 UNK         0.1400 
     63 CB         -1.6435   -8.5545  -45.7008 C.3       2 UNK        -0.1800 
     64 N          -0.6661  -10.7628  -46.1158 N.am      2 UNK        -0.5000 
     65 C          -0.4899  -12.0882  -46.0270 C.2       1 UNK         0.5000 
     66 O          -0.8586  -12.7474  -45.0544 O.2       1 UNK        -0.5000 
     67 C          -2.0341  -23.0049  -46.9320 C.2       11 UNK         0.5000 
     68 O          -2.3726  -23.9802  -47.6047 O.2       11 UNK        -0.5000 
     69 N          -2.7727  -22.4887  -45.9374 N.am      12 UNK        -0.5000 
     70 CA         -4.0710  -23.0013  -45.4935 C.3       12 UNK         0.1400 
     71 CB         -4.6479  -22.0822  -44.4071 C.3       12 UNK        -0.1800 
     72 C          -4.0201  -24.4610  -45.0094 C.2       12 UNK         0.5000 
     73 O          -4.9259  -25.2338  -45.3224 O.2       12 UNK        -0.5000 
     74 N          -2.9532  -24.8167  -44.2825 N.am      13 UNK        -0.5000 
     75 CA         -2.6788  -26.1827  -43.8420 C.3       13 UNK         0.1400 
     76 CB         -1.5805  -26.1589  -42.7678 C.3       13 UNK        -0.1800 
     77 C          -2.2862  -27.1145  -45.0047 C.2       13 UNK         0.5000 
     78 O          -2.7138  -28.2694  -45.0234 O.2       13 UNK        -0.5000 
     79 N          -1.4723  -26.6053  -45.9395 N.am      14 UNK        -0.5000 
     80 CA         -0.9375  -27.3557  -47.0730 C.3       14 UNK         0.1400 
     81 CB          0.2445  -26.5907  -47.6904 C.3       14 UNK        -0.1800 
     82 C          -1.9862  -27.6848  -48.1486 C.2       14 UNK         0.5000 
     83 O          -2.0830  -28.8450  -48.5526 O.2       14 UNK        -0.5000 
     84 N          -2.7212  -26.6686  -48.6211 N.am      15 UNK        -0.5000 
     85 CA         -3.5987  -26.7909  -49.7916 C.3       15 UNK         0.1400 
     86 CB         -2.7448  -26.7551  -51.0731 C.3       15 UNK        -0.1800 
     87 C          -4.7172  -25.7373  -49.8673 C.2       15 UNK         0.5000 
     88 O          -5.6916  -25.9646  -50.5871 O.2       15 UNK        -0.5000 
     89 N          -4.5731  -24.6111  -49.1549 N.am      16 UNK        -0.5000 
     90 CA         -5.4823  -23.4632  -49.1389 C.3       16 UNK         0.1400 
     91 CB         -6.8035  -23.8226  -48.4217 C.3       16 UNK        -0.1800 
     92 C          -5.6582  -22.8520  -50.5426 C.2       16 UNK         0.5000 
     93 O          -4.6539  -22.5827  -51.2036 O.2       16 UNK        -0.5000 
     94 N          -6.9094  -22.6480  -50.9784 N.am      17 UNK        -0.5000 
     95 CA         -7.3037  -22.0008  -52.2349 C.3       17 UNK         0.1400 
     96 CB         -8.8362  -22.0097  -52.3373 C.3       17 UNK        -0.1800 
     97 C          -6.6804  -22.6003  -53.5105 C.2       17 UNK         0.5000 
     98 O          -6.5066  -21.8754  -54.4891 O.2       17 UNK        -0.5000 
     99 N          -6.3265  -23.8922  -53.4744 N.am      18 UNK        -0.5000 
    100 CA        -5.6415  -24.5910  -54.5623 C.3       18 UNK         0.1400 
    101 CB        -5.6739  -26.1013  -54.2863 C.3       18 UNK        -0.1800 
    102 C         -4.1954  -24.1054  -54.7972 C.2       18 UNK         0.5000 
    103 O         -3.6986  -24.2394  -55.9161 O.2       18 UNK        -0.5000 
    104 N         -3.5547  -23.5469  -53.7606 N.am      19 UNK        -0.5000 
    105 CA        -2.2131  -22.9657  -53.8254 C.3       19 UNK         0.1400 
    106 CB        -1.3431  -23.5723  -52.7167 C.3       19 UNK        -0.1800 
    107 C         -2.2600  -21.4334  -53.7121 C.2       19 UNK         0.5000 
    108 O         -1.5252  -20.7549  -54.4297 O.2       19 UNK        -0.5000 
    109 N         -3.1508  -20.9068  -52.8593 N.am      20 UNK        -0.5000 
    110 CA        -3.3359  -19.4752  -52.5965 C.3       20 UNK         0.1400 
    111 CB        -4.1760  -19.3010  -51.3216 C.3       20 UNK        -0.1800 
    112 C         -3.9385  -18.6796  -53.7744 C.2       20 UNK         0.5000 
    113 O         -3.9792  -17.4508  -53.7119 O.2       20 UNK        -0.5000 
    114 N         -4.3762  -19.3744  -54.8345 N.am      21 UNK        -0.5000 
    115 CA        -4.6940  -18.7910  -56.1398 C.3       21 UNK         0.1400 
    116 CB        -5.4426  -19.8316  -56.9865 C.3       21 UNK        -0.1800 
    117 C         -3.4421  -18.2862  -56.8912 C.2       21 UNK         0.5000 
    118 O         -3.5694  -17.4148  -57.7521 O.2       21 UNK        -0.5000 
    119 N         -2.2657  -18.8320  -56.5476 N.am      22 UNK        -0.5000 
    120 CA        -0.9296  -18.4354  -57.0282 C.3       22 UNK         0.1400 
    121 C         -0.6390  -18.7593  -58.5255 C.2       22 UNK         0.5000 
    122 N         -1.4292  -19.5950  -59.1881 N.am      22 UNK        -0.7600 
    123 O          0.3364  -18.2731  -59.0921 O.2       22 UNK        -0.5000 
    124 C124       -0.5403  -16.9758  -56.6482 C.3       23 UNK        -0.0398 
    125 S125       -0.8382  -16.5838  -54.8895 S.3       23 UNK        -0.2404 
    126 C126        0.7068  -17.1424  -54.1118 C.3       23 UNK        -0.0205 
    127 H127       -0.0764  -10.8722  -51.2876 H         1 UNK         0.0600 
    128 H128       -1.4307  -10.0980  -50.4576 H         1 UNK         0.0600 
    129 H129       -1.4619  -11.8363  -50.7700 H         1 UNK         0.0600 
    130 H130       -1.0794  -12.9962  -48.9139 H         1 UNK         0.3000 
    131 H131        1.2267  -12.4892  -47.2257 H         1 UNK         0.0600 
    132 H132        0.6360  -14.6345  -46.1584 H         1 UNK         0.0800 
    133 H133       -0.8837  -14.6857  -47.0031 H         1 UNK         0.0800 
    134 H134       -0.9583  -15.0337  -49.8369 H         1 UNK         0.0800 
    135 H135       -1.1667  -16.3023  -48.6535 H         1 UNK         0.0800 
    136 H136        0.1088  -15.5174  -52.0045 H         1 UNK         0.1150 
    137 H137        0.7603  -19.6327  -53.0086 H         1 UNK         0.1150 
    138 H138       -0.1266  -18.5163  -48.9623 H         1 UNK         0.1150 
    139 H139        0.6448  -21.3250  -51.3999 H         1 UNK         0.0800 
    140 H140        1.2808  -20.8436  -49.8544 H         1 UNK         0.0800 
    141 H141       -1.5731  -20.3943  -47.5849 H         1 UNK         0.0800 
    142 H142        0.1347  -20.4710  -47.8927 H         1 UNK         0.0800 
    143 H143       -0.0744  -23.0557  -47.7833 H         1 UNK         0.0600 
    144 H144        0.3208  -21.2093  -45.6904 H         1 UNK         0.3000 
    145 H145        1.1073  -23.6121  -43.1331 H         1 UNK         0.0600 
    146 H146        3.1230  -22.1808  -43.0765 H         1 UNK         0.0600 
    147 H147        3.1592  -23.2095  -44.4998 H         1 UNK         0.0600 
    148 H148        2.7330  -21.5106  -44.6592 H         1 UNK         0.0600 
    149 H149        0.9790  -20.7871  -43.0136 H         1 UNK         0.3000 
    150 H150       -2.5084  -20.5280  -42.1395 H         1 UNK         0.0600 
    151 H151       -1.2071  -21.0311  -40.0637 H         1 UNK         0.0600 
    152 H152       -1.4635  -19.3040  -40.2620 H         1 UNK         0.0600 
    153 H153        0.1083  -20.0093  -40.6315 H         1 UNK         0.0600 
    154 H154       -0.5825  -18.4954  -42.4945 H         1 UNK         0.3000 
    155 H155       -1.1250  -17.9082  -46.0061 H         1 UNK         0.0600 
    156 H156       -1.6932  -16.4299  -43.3788 H         1 UNK         0.0600 
    157 H157       -1.3333  -15.6366  -44.9030 H         1 UNK         0.0600 
    158 H158       -2.7839  -16.6146  -44.7420 H         1 UNK         0.0600 
    159 H159        0.7631  -16.7632  -44.2281 H         1 UNK         0.3000 
    160 H160        3.4156  -19.1133  -44.6842 H         1 UNK         0.0600 
    161 H161        3.6243  -17.6182  -46.6111 H         1 UNK         0.0600 
    162 H162        2.9764  -16.2606  -45.7116 H         1 UNK         0.0600 
    163 H163        4.5455  -16.9420  -45.2762 H         1 UNK         0.0600 
    164 H164        2.9916  -16.6677  -43.1776 H         1 UNK         0.3000 
    165 H165        2.0251  -18.2998  -40.1502 H         1 UNK         0.0600 
    166 H166        4.0360  -17.1499  -39.2681 H         1 UNK         0.0600 
    167 H167        4.5081  -18.5717  -40.1845 H         1 UNK         0.0600 
    168 H168        4.6874  -16.9733  -40.8979 H         1 UNK         0.0600 
    169 H169        2.6450  -15.5762  -40.7888 H         1 UNK         0.3000 
    170 H170       -0.5171  -14.6249  -42.0551 H         1 UNK         0.0600 
    171 H171       -0.9339  -14.6314  -39.5868 H         1 UNK         0.0600 
    172 H172        0.6866  -14.0045  -39.3042 H         1 UNK         0.0600 
    173 H173       -0.5051  -13.0285  -40.1638 H         1 UNK         0.0600 
    174 H174        1.6668  -12.9920  -41.4076 H         1 UNK         0.3000 
    175 H175        3.8325  -13.0260  -42.7986 H         1 UNK         0.0600 
    176 H176        2.9397  -13.3812  -45.7078 H         1 UNK         0.0600 
    177 H177        4.4323  -12.5990  -45.1894 H         1 UNK         0.0600 
    178 H178        4.1804  -14.3041  -44.8690 H         1 UNK         0.0600 
    179 H179        2.2265  -11.3093  -44.5274 H         1 UNK         0.3000 
    180 H180        1.2829   -9.0365  -41.9892 H         1 UNK         0.0600 
    181 H181        3.4227   -8.7660  -44.1698 H         1 UNK         0.0600 
    182 H182        3.6325   -8.3727  -42.4677 H         1 UNK         0.0600 
    183 H183        2.5098   -7.4418  -43.4464 H         1 UNK         0.0600 
    184 H184        1.1297   -9.2760  -44.9128 H         1 UNK         0.3000 
    185 H185       -2.2747  -10.4132  -44.8427 H         1 UNK         0.0600 
    186 H186       -2.3098   -8.6401  -46.5594 H         1 UNK         0.0600 
    187 H187       -2.1398   -7.9176  -44.9674 H         1 UNK         0.0600 
    188 H188       -0.7412   -8.0373  -46.0289 H         1 UNK         0.0600 
    189 H189       -0.3249  -10.2986  -46.9511 H         1 UNK         0.3000 
    190 H190       -2.4274  -21.6649  -45.4508 H         1 UNK         0.3000 
    191 H191       -4.7481  -22.9662  -46.3448 H         1 UNK         0.0600 
    192 H192       -4.0085  -22.0484  -43.5254 H         1 UNK         0.0600 
    193 H193       -5.6317  -22.4268  -44.0861 H         1 UNK         0.0600 
    194 H194       -4.7646  -21.0625  -44.7746 H         1 UNK         0.0600 
    195 H195       -2.2833  -24.1030  -44.0130 H         1 UNK         0.3000 
    196 H196       -3.5872  -26.5825  -43.3864 H         1 UNK         0.0600 
    197 H197       -1.3686  -27.1646  -42.4029 H         1 UNK         0.0600 
    198 H198       -1.8821  -25.5575  -41.9101 H         1 UNK         0.0600 
    199 H199       -0.6481  -25.7450  -43.1531 H         1 UNK         0.0600 
    200 H200       -1.1209  -25.6603  -45.8188 H         1 UNK         0.3000 
    201 H201       -0.5510  -28.3035  -46.6919 H         1 UNK         0.0600 
    202 H202        1.0523  -26.4671  -46.9691 H         1 UNK         0.0600 
    203 H203       -0.0510  -25.5992  -48.0345 H         1 UNK         0.0600 
    204 H204        0.6547  -27.1272  -48.5469 H         1 UNK         0.0600 
    205 H205       -2.5909  -25.7439  -48.2202 H         1 UNK         0.3000 
    206 H206       -4.1090  -27.7554  -49.7450 H         1 UNK         0.0600 
    207 H207       -2.0758  -27.6136  -51.1314 H         1 UNK         0.0600 
    208 H208       -3.3634  -26.7715  -51.9699 H         1 UNK         0.0600 
    209 H209       -2.1339  -25.8542  -51.1082 H         1 UNK         0.0600 
    210 H210       -3.7153  -24.4677  -48.6277 H         1 UNK         0.3000 
    211 H211       -4.9838  -22.6883  -48.5575 H         1 UNK         0.0600 
    212 H212       -7.3852  -24.5608  -48.9749 H         1 UNK         0.0600 
    213 H213       -7.4289  -22.9409  -48.2770 H         1 UNK         0.0600 
    214 H214       -6.6086  -24.2383  -47.4332 H         1 UNK         0.0600 
    215 H215       -7.6668  -22.9311  -50.3740 H         1 UNK         0.3000 
    216 H216       -6.9777  -20.9615  -52.1810 H         1 UNK         0.0600 
    217 H217       -9.1711  -21.5122  -53.2487 H         1 UNK         0.0600 
    218 H218       -9.2921  -21.4847  -51.4976 H         1 UNK         0.0600 
    219 H219       -9.2313  -23.0262  -52.3540 H         1 UNK         0.0600 
    220 H220       -6.4810  -24.4136  -52.6220 H         1 UNK         0.3000 
    221 H221       -6.1974  -24.4053  -55.4838 H         1 UNK         0.0600 
    222 H222       -5.1871  -26.3474  -53.3435 H         1 UNK         0.0600 
    223 H223       -6.6984  -26.4704  -54.2384 H         1 UNK         0.0600 
    224 H224       -5.1653  -26.6566  -55.0756 H         1 UNK         0.0600 
    225 H225       -4.0489  -23.4399  -52.8806 H         1 UNK         0.3000 
    226 H226       -1.7376  -23.2002  -54.7799 H         1 UNK         0.0600 
    227 H227       -1.1825  -24.6358  -52.8905 H         1 UNK         0.0600 
    228 H228       -0.3609  -23.1005  -52.6846 H         1 UNK         0.0600 
    229 H229       -1.8024  -23.4556  -51.7347 H         1 UNK         0.0600 
    230 H230       -3.7005  -21.5356  -52.2772 H         1 UNK         0.3000 
    231 H231       -2.3503  -19.0476  -52.4042 H         1 UNK         0.0600 
    232 H232       -4.2627  -18.2481  -51.0511 H         1 UNK         0.0600 
    233 H233       -3.7199  -19.8148  -50.4753 H         1 UNK         0.0600 
    234 H234       -5.1843  -19.6921  -51.4480 H         1 UNK         0.0600 
    235 H235       -4.3769  -20.3827  -54.7764 H         1 UNK         0.3000 
    236 H236       -5.3538  -17.9348  -55.9853 H         1 UNK         0.0600 
    237 H237       -6.3932  -20.1010  -56.5265 H         1 UNK         0.0600 
    238 H238       -5.6659  -19.4423  -57.9807 H         1 UNK         0.0600 
    239 H239       -4.8595  -20.7447  -57.1124 H         1 UNK         0.0600 
    240 H240       -2.2516  -19.5343  -55.8151 H         1 UNK         0.3000 
    241 H241       -0.2462  -19.0882  -56.4846 H         1 UNK         0.0600 
    242 H242       -1.2307  -19.8089  -60.1530 H         1 UNK         0.3800 
    243 H243       -2.2286  -20.0081  -58.7353 H         1 UNK         0.3800 
    244 H244        0.5100  -16.7841  -56.8738 H         1 UNK         0.0800 
    245 H245       -1.1108  -16.2669  -57.2499 H         1 UNK         0.0800 
    246 H246        1.1138  -17.9884  -54.6675 H         1 UNK         0.0800 
    247 H247        1.4506  -16.3465  -54.1679 H         1 UNK         0.0800 
@<TRIPOS>BOND
     1    1    2 1    
     2    1  127 1    
     3    1  128 1    
     4    1  129 1    
     5    2    3 2    
     6    2    4 am   BACKBONE|DICT|INTERRES
     7    4    5 1    
     8    4  130 1    
     9    5    6 1    
    10    5   65 1    
    11    5  131 1    
    12    6    7 1    
    13    6  132 1    
    14    6  133 1    
    15    7    8 1    
    16    8    9 1    
    17    8  134 1    
    18    8  135 1    
    19    9   10 ar   
    20    9   14 ar   
    21   10   11 ar   
    22   10  136 1    
    23   11   12 ar   
    24   11  126 1    
    25   12   13 ar   
    26   12  137 1    
    27   13   14 ar   
    28   13   15 1    
    29   14  138 1    
    30   15   16 1    
    31   15  139 1    
    32   15  140 1    
    33   16   17 1    
    34   17   18 1    
    35   17  141 1    
    36   17  142 1    
    37   18   19 1    
    38   18   67 1    
    39   18  143 1    
    40   19   20 am   BACKBONE|DICT|INTERRES
    41   19  144 1    
    42   20   21 2    
    43   20   22 1    
    44   22   23 1    
    45   22   24 1    
    46   22  145 1    
    47   23  146 1    
    48   23  147 1    
    49   23  148 1    
    50   24   25 am   BACKBONE|DICT|INTERRES
    51   24  149 1    
    52   25   26 2    
    53   25   27 1    
    54   27   28 1    
    55   27   29 1    
    56   27  150 1    
    57   28  151 1    
    58   28  152 1    
    59   28  153 1    
    60   29   30 am   BACKBONE|DICT|INTERRES
    61   29  154 1    
    62   30   31 2    
    63   30   32 1    
    64   32   33 1    
    65   32   34 1    
    66   32  155 1    
    67   33  156 1    
    68   33  157 1    
    69   33  158 1    
    70   34   35 am   BACKBONE|DICT|INTERRES
    71   34  159 1    
    72   35   36 2    
    73   35   37 1    
    74   37   38 1    
    75   37   39 1    
    76   37  160 1    
    77   38  161 1    
    78   38  162 1    
    79   38  163 1    
    80   39   40 am   BACKBONE|DICT|INTERRES
    81   39  164 1    
    82   40   41 2    
    83   40   42 1    
    84   42   43 1    
    85   42   44 1    
    86   42  165 1    
    87   43  166 1    
    88   43  167 1    
    89   43  168 1    
    90   44   45 am   BACKBONE|DICT|INTERRES
    91   44  169 1    
    92   45   46 2    
    93   45   47 1    
    94   47   48 1    
    95   47   49 1    
    96   47  170 1    
    97   48  171 1    
    98   48  172 1    
    99   48  173 1    
   100   49   50 am   BACKBONE|DICT|INTERRES
   101   49  174 1    
   102   50   51 2    
   103   50   52 1    
   104   52   53 1    
   105   52   54 1    
   106   52  175 1    
   107   53  176 1    
   108   53  177 1    
   109   53  178 1    
   110   54   55 am   BACKBONE|DICT|INTERRES
   111   54  179 1    
   112   55   56 2    
   113   55   57 1    
   114   57   58 1    
   115   57   59 1    
   116   57  180 1    
   117   58  181 1    
   118   58  182 1    
   119   58  183 1    
   120   59   60 am   BACKBONE|DICT|INTERRES
   121   59  184 1    
   122   60   61 2    
   123   60   62 1    
   124   62   63 1    
   125   62   64 1    
   126   62  185 1    
   127   63  186 1    
   128   63  187 1    
   129   63  188 1    
   130   64   65 am   BACKBONE|DICT|INTERRES
   131   64  189 1    
   132   65   66 2    
   133   67   68 2    
   134   67   69 am   BACKBONE|DICT|INTERRES
   135   69   70 1    
   136   69  190 1    
   137   70   71 1    
   138   70   72 1    
   139   70  191 1    
   140   71  192 1    
   141   71  193 1    
   142   71  194 1    
   143   72   73 2    
   144   72   74 am   BACKBONE|DICT|INTERRES
   145   74   75 1    
   146   74  195 1    
   147   75   76 1    
   148   75   77 1    
   149   75  196 1    
   150   76  197 1    
   151   76  198 1    
   152   76  199 1    
   153   77   78 2    
   154   77   79 am   BACKBONE|DICT|INTERRES
   155   79   80 1    
   156   79  200 1    
   157   80   81 1    
   158   80   82 1    
   159   80  201 1    
   160   81  202 1    
   161   81  203 1    
   162   81  204 1    
   163   82   83 2    
   164   82   84 am   BACKBONE|DICT|INTERRES
   165   84   85 1    
   166   84  205 1    
   167   85   86 1    
   168   85   87 1    
   169   85  206 1    
   170   86  207 1    
   171   86  208 1    
   172   86  209 1    
   173   87   88 2    
   174   87   89 am   BACKBONE|DICT|INTERRES
   175   89   90 1    
   176   89  210 1    
   177   90   91 1    
   178   90   92 1    
   179   90  211 1    
   180   91  212 1    
   181   91  213 1    
   182   91  214 1    
   183   92   93 2    
   184   92   94 am   BACKBONE|DICT|INTERRES
   185   94   95 1    
   186   94  215 1    
   187   95   96 1    
   188   95   97 1    
   189   95  216 1    
   190   96  217 1    
   191   96  218 1    
   192   96  219 1    
   193   97   98 2    
   194   97   99 am   BACKBONE|DICT|INTERRES
   195   99  100 1    
   196   99  220 1    
   197  100  101 1    
   198  100  102 1    
   199  100  221 1    
   200  101  222 1    
   201  101  223 1    
   202  101  224 1    
   203  102  103 2    
   204  102  104 am   BACKBONE|DICT|INTERRES
   205  104  105 1    
   206  104  225 1    
   207  105  106 1    
   208  105  107 1    
   209  105  226 1    
   210  106  227 1    
   211  106  228 1    
   212  106  229 1    
   213  107  108 2    
   214  107  109 am   BACKBONE|DICT|INTERRES
   215  109  110 1    
   216  109  230 1    
   217  110  111 1    
   218  110  112 1    
   219  110  231 1    
   220  111  232 1    
   221  111  233 1    
   222  111  234 1    
   223  112  113 2    
   224  112  114 am   BACKBONE|DICT|INTERRES
   225  114  115 1    
   226  114  235 1    
   227  115  116 1    
   228  115  117 1    
   229  115  236 1    
   230  116  237 1    
   231  116  238 1    
   232  116  239 1    
   233  117  118 2    
   234  117  119 am   BACKBONE|DICT|INTERRES
   235  119  120 1    
   236  119  240 1    
   237  120  121 1    
   238  120  124 1    
   239  120  241 1    
   240  121  122 am   BACKBONE|DICT|INTERRES
   241  121  123 2    
   242  122  242 1    
   243  122  243 1    
   244  124  125 1    
   245  124  244 1    
   246  124  245 1    
   247  125  126 1    
   248  126  246 1    
   249  126  247 1    
@<TRIPOS>SUBSTRUCTURE
     1 UNK         1 GROUP             0       ****    0 ROOT    
