@<TRIPOS>MOLECULE
3R540
247   249    1
SMALL
USER_CHARGES


@<TRIPOS>ATOM
      1 CA          5.3814  -10.2082  -53.7560 C.3       0 UNK        -0.1800 
      2 C           5.9980  -11.1950  -52.7748 C.2       0 UNK         0.5000 
      3 O           7.1380  -11.0050  -52.3506 O.2       0 UNK        -0.5000 
      4 N           5.2500  -12.2467  -52.4139 N.am      1 UNK        -0.5000 
      5 CA          5.6688  -13.2896  -51.4671 C.3       1 UNK         0.1400 
      6 C6          4.7850  -14.5539  -51.6093 C.3       23 UNK        -0.0398 
      7 S7          5.6052  -16.0610  -50.9881 S.3       23 UNK        -0.2404 
      8 C8          4.6977  -16.3458  -49.4376 C.3       23 UNK        -0.0205 
      9 C9          3.4305  -17.1520  -49.6736 C.ar      23 UNK        -0.0193 
     10 C10         2.1991  -16.5185  -49.8642 C.ar      23 UNK        -0.1150 
     11 C11         1.0406  -17.2705  -50.0805 C.ar      23 UNK        -0.0193 
     12 C12         1.1146  -18.6670  -50.0828 C.ar      23 UNK        -0.1150 
     13 C13         2.3402  -19.3110  -49.8871 C.ar      23 UNK        -0.0193 
     14 C14         3.4939  -18.5467  -49.6936 C.ar      23 UNK        -0.1150 
     15 C15         2.4260  -20.8310  -49.8918 C.3       23 UNK        -0.0205 
     16 S16         3.0742  -21.4865  -48.3200 S.3       23 UNK        -0.2404 
     17 C17         1.7306  -21.0527  -47.1642 C.3       23 UNK        -0.0398 
     18 CA          0.9310  -22.2897  -46.6988 C.3       11 UNK         0.1400 
     19 N           0.1788  -22.0184  -45.4729 N.am      11 UNK        -0.5000 
     20 C          -0.4300  -22.9593  -44.7375 C.2       10 UNK         0.5000 
     21 O          -0.4041  -24.1613  -45.0031 O.2       10 UNK        -0.5000 
     22 CA         -1.2375  -22.4701  -43.5235 C.3       10 UNK         0.1400 
     23 CB         -0.3062  -22.1560  -42.3434 C.3       10 UNK        -0.1800 
     24 N          -2.0598  -21.2988  -43.8288 N.am      10 UNK        -0.5000 
     25 C          -3.0611  -21.2894  -44.7199 C.2       9 UNK         0.5000 
     26 O          -3.4128  -22.2718  -45.3711 O.2       9 UNK        -0.5000 
     27 CA         -3.7584  -19.9447  -44.9701 C.3       9 UNK         0.1400 
     28 CB         -4.7264  -19.5984  -43.8311 C.3       9 UNK        -0.1800 
     29 N          -2.8163  -18.8480  -45.1876 N.am      9 UNK        -0.5000 
     30 C          -1.9331  -18.7887  -46.1949 C.2       8 UNK         0.5000 
     31 O          -1.8433  -19.6392  -47.0780 O.2       8 UNK        -0.5000 
     32 CA         -0.9601  -17.5996  -46.2007 C.3       8 UNK         0.1400 
     33 CB         -1.6118  -16.3601  -46.8275 C.3       8 UNK        -0.1800 
     34 N          -0.4722  -17.2838  -44.8594 N.am      8 UNK        -0.5000 
     35 C           0.3225  -18.0912  -44.1431 C.2       7 UNK         0.5000 
     36 O           0.7627  -19.1661  -44.5537 O.2       7 UNK        -0.5000 
     37 CA          0.6254  -17.6402  -42.7053 C.3       7 UNK         0.1400 
     38 CB          1.6924  -16.5349  -42.6896 C.3       7 UNK        -0.1800 
     39 N          -0.5799  -17.1788  -42.0133 N.am      7 UNK        -0.5000 
     40 C          -1.5910  -17.9856  -41.6584 C.2       6 UNK         0.5000 
     41 O          -1.6035  -19.1971  -41.8726 O.2       6 UNK        -0.5000 
     42 CA         -2.8088  -17.3356  -40.9764 C.3       6 UNK         0.1400 
     43 CB         -2.5992  -17.2696  -39.4564 C.3       6 UNK        -0.1800 
     44 N          -3.1329  -15.9988  -41.4753 N.am      6 UNK        -0.5000 
     45 C          -3.4418  -15.6913  -42.7424 C.2       5 UNK         0.5000 
     46 O          -3.4482  -16.5117  -43.6617 O.2       5 UNK        -0.5000 
     47 CA         -3.7870  -14.2185  -43.0505 C.3       5 UNK         0.1400 
     48 CB         -3.7049  -13.2780  -41.8264 C.3       5 UNK        -0.1800 
     49 N          -2.9819  -13.6767  -44.1493 N.am      5 UNK        -0.5000 
     50 C          -1.6449  -13.6540  -44.2278 C.2       4 UNK         0.5000 
     51 O          -0.8893  -14.1581  -43.3904 O.2       4 UNK        -0.5000 
     52 CA         -1.0566  -12.9373  -45.4508 C.3       4 UNK         0.1400 
     53 CB         -1.3022  -11.4182  -45.3813 C.3       4 UNK        -0.1800 
     54 N           0.3768  -13.1988  -45.5001 N.am      4 UNK        -0.5000 
     55 C           1.1385  -13.1520  -46.5939 C.2       3 UNK         0.5000 
     56 O           0.7075  -12.9153  -47.7260 O.2       3 UNK        -0.5000 
     57 CA          2.6354  -13.4158  -46.3871 C.3       3 UNK         0.1400 
     58 CB          2.9420  -14.9203  -46.4532 C.3       3 UNK        -0.1800 
     59 N           3.3651  -12.7028  -47.4331 N.am      3 UNK        -0.5000 
     60 C           4.4232  -11.9107  -47.2274 C.2       2 UNK         0.5000 
     61 O           5.0230  -11.8392  -46.1527 O.2       2 UNK        -0.5000 
     62 CA          4.8520  -11.0279  -48.4200 C.3       2 UNK         0.1400 
     63 CB          6.1649  -10.2562  -48.1657 C.3       2 UNK        -0.1800 
     64 N           4.9143  -11.7510  -49.6954 N.am      2 UNK        -0.5000 
     65 C           5.7236  -12.7766  -50.0066 C.2       1 UNK         0.5000 
     66 O           6.5090  -13.2944  -49.2118 O.2       1 UNK        -0.5000 
     67 C           0.0257  -22.8501  -47.8154 C.2       11 UNK         0.5000 
     68 O           0.3830  -23.8473  -48.4431 O.2       11 UNK        -0.5000 
     69 N          -1.1479  -22.2338  -48.0150 N.am      12 UNK        -0.5000 
     70 CA         -2.1568  -22.6862  -48.9701 C.3       12 UNK         0.1400 
     71 CB         -3.2845  -21.6539  -49.0684 C.3       12 UNK        -0.1800 
     72 C          -2.7162  -24.0758  -48.6250 C.2       12 UNK         0.5000 
     73 O          -2.8298  -24.9100  -49.5200 O.2       12 UNK        -0.5000 
     74 N          -3.0012  -24.3230  -47.3385 N.am      13 UNK        -0.5000 
     75 CA         -3.4519  -25.6189  -46.8290 C.3       13 UNK         0.1400 
     76 CB         -3.8361  -25.4934  -45.3475 C.3       13 UNK        -0.1800 
     77 C          -2.4107  -26.7344  -47.0345 C.2       13 UNK         0.5000 
     78 O          -2.7791  -27.8312  -47.4551 O.2       13 UNK        -0.5000 
     79 N          -1.1280  -26.4241  -46.7936 N.am      14 UNK        -0.5000 
     80 CA          0.0053  -27.3170  -47.0533 C.3       14 UNK         0.1400 
     81 CB          1.2835  -26.7126  -46.4529 C.3       14 UNK        -0.1800 
     82 C           0.1969  -27.6286  -48.5517 C.2       14 UNK         0.5000 
     83 O           0.5624  -28.7525  -48.8973 O.2       14 UNK        -0.5000 
     84 N          -0.0906  -26.6435  -49.4127 N.am      15 UNK        -0.5000 
     85 CA         -0.0948  -26.7673  -50.8724 C.3       15 UNK         0.1400 
     86 CB          0.0856  -25.3675  -51.4835 C.3       15 UNK        -0.1800 
     87 C          -1.3627  -27.4496  -51.4352 C.2       15 UNK         0.5000 
     88 O          -1.4212  -27.6914  -52.6415 O.2       15 UNK        -0.5000 
     89 N          -2.3488  -27.7354  -50.5707 N.am      16 UNK        -0.5000 
     90 CA         -3.6702  -28.3028  -50.8638 C.3       16 UNK         0.1400 
     91 CB         -3.5504  -29.7296  -51.4395 C.3       16 UNK        -0.1800 
     92 C          -4.5638  -27.3732  -51.7157 C.2       16 UNK         0.5000 
     93 O          -5.3982  -27.8518  -52.4868 O.2       16 UNK        -0.5000 
     94 N          -4.3856  -26.0595  -51.5444 N.am      17 UNK        -0.5000 
     95 CA         -5.2035  -24.9980  -52.1227 C.3       17 UNK         0.1400 
     96 CB         -4.2646  -23.8718  -52.5901 C.3       17 UNK        -0.1800 
     97 C          -6.2064  -24.4746  -51.0769 C.2       17 UNK         0.5000 
     98 O          -6.1338  -24.8421  -49.9005 O.2       17 UNK        -0.5000 
     99 N          -7.1267  -23.6090  -51.5217 N.am      18 UNK        -0.5000 
    100 CA        -8.0605  -22.8842  -50.6577 C.3       18 UNK         0.1400 
    101 CB        -9.1153  -22.1835  -51.5267 C.3       18 UNK        -0.1800 
    102 C         -7.3170  -21.8709  -49.7667 C.2       18 UNK         0.5000 
    103 O         -6.4066  -21.1939  -50.2500 O.2       18 UNK        -0.5000 
    104 N         -7.7118  -21.8005  -48.4886 N.am      19 UNK        -0.5000 
    105 CA        -7.0615  -21.0302  -47.4267 C.3       19 UNK         0.1400 
    106 CB        -7.8590  -21.1928  -46.1229 C.3       19 UNK        -0.1800 
    107 C         -6.8628  -19.5417  -47.7747 C.2       19 UNK         0.5000 
    108 O         -7.8367  -18.7895  -47.8342 O.2       19 UNK        -0.5000 
    109 N         -5.5957  -19.1708  -48.0039 N.am      20 UNK        -0.5000 
    110 CA        -5.0941  -17.8329  -48.3249 C.3       20 UNK         0.1400 
    111 CB        -5.3575  -16.8443  -47.1692 C.3       20 UNK        -0.1800 
    112 C         -5.5547  -17.2955  -49.6956 C.2       20 UNK         0.5000 
    113 O         -5.4956  -16.0850  -49.9219 O.2       20 UNK        -0.5000 
    114 N         -5.9510  -18.1889  -50.6153 N.am      21 UNK        -0.5000 
    115 CA        -6.2968  -17.8693  -52.0031 C.3       21 UNK         0.1400 
    116 CB        -7.2027  -18.9781  -52.5646 C.3       21 UNK        -0.1800 
    117 C         -5.0262  -17.6495  -52.8520 C.2       21 UNK         0.5000 
    118 O         -4.7418  -18.4225  -53.7685 O.2       21 UNK        -0.5000 
    119 N         -4.2625  -16.6116  -52.4934 N.am      22 UNK        -0.5000 
    120 CA        -2.9624  -16.2569  -53.0836 C.3       22 UNK         0.1400 
    121 C         -3.0324  -15.6183  -54.5043 C.2       22 UNK         0.5000 
    122 N         -4.1995  -15.2274  -55.0020 N.am      22 UNK        -0.7600 
    123 O         -2.0116  -15.4812  -55.1723 O.2       22 UNK        -0.5000 
    124 C124       -2.1248  -15.3907  -52.0988 C.3       23 UNK        -0.0398 
    125 S125       -0.3808  -15.9201  -52.0181 S.3       23 UNK        -0.2404 
    126 C126       -0.2869  -16.5715  -50.3215 C.3       23 UNK        -0.0205 
    127 H127        4.3734  -10.5029  -54.0492 H         1 UNK         0.0600 
    128 H128        5.9919  -10.1437  -54.6567 H         1 UNK         0.0600 
    129 H129        5.3285   -9.2164  -53.3070 H         1 UNK         0.0600 
    130 H130        4.3253  -12.3504  -52.8076 H         1 UNK         0.3000 
    131 H131        6.6898  -13.5661  -51.7409 H         1 UNK         0.0600 
    132 H132        3.8124  -14.4127  -51.1372 H         1 UNK         0.0800 
    133 H133        4.5738  -14.7389  -52.6635 H         1 UNK         0.0800 
    134 H134        4.4700  -15.3944  -48.9559 H         1 UNK         0.0800 
    135 H135        5.3479  -16.8829  -48.7454 H         1 UNK         0.0800 
    136 H136        2.1376  -15.4397  -49.8540 H         1 UNK         0.1150 
    137 H137        0.2194  -19.2516  -50.2434 H         1 UNK         0.1150 
    138 H138        4.4442  -19.0415  -49.5488 H         1 UNK         0.1150 
    139 H139        1.4528  -21.2803  -50.0963 H         1 UNK         0.0800 
    140 H140        3.0853  -21.1437  -50.7025 H         1 UNK         0.0800 
    141 H141        1.0727  -20.2922  -47.5879 H         1 UNK         0.0800 
    142 H142        2.2093  -20.5812  -46.3052 H         1 UNK         0.0800 
    143 H143        1.6496  -23.0732  -46.4472 H         1 UNK         0.0600 
    144 H144        0.1303  -21.0505  -45.1723 H         1 UNK         0.3000 
    145 H145       -1.9070  -23.2787  -43.2230 H         1 UNK         0.0600 
    146 H146       -0.8767  -21.9066  -41.4486 H         1 UNK         0.0600 
    147 H147        0.3217  -23.0140  -42.1001 H         1 UNK         0.0600 
    148 H148        0.3532  -21.3153  -42.5634 H         1 UNK         0.0600 
    149 H149       -1.8518  -20.4517  -43.3067 H         1 UNK         0.3000 
    150 H150       -4.3461  -20.0574  -45.8784 H         1 UNK         0.0600 
    151 H151       -5.4589  -20.3932  -43.6865 H         1 UNK         0.0600 
    152 H152       -5.2769  -18.6821  -44.0449 H         1 UNK         0.0600 
    153 H153       -4.2018  -19.4634  -42.8866 H         1 UNK         0.0600 
    154 H154       -2.8664  -18.0697  -44.5347 H         1 UNK         0.3000 
    155 H155       -0.1032  -17.8784  -46.8184 H         1 UNK         0.0600 
    156 H156       -2.0283  -16.5892  -47.8084 H         1 UNK         0.0600 
    157 H157       -0.8783  -15.5673  -46.9676 H         1 UNK         0.0600 
    158 H158       -2.4230  -15.9730  -46.2104 H         1 UNK         0.0600 
    159 H159       -0.8310  -16.4479  -44.4193 H         1 UNK         0.3000 
    160 H160        1.0217  -18.5012  -42.1625 H         1 UNK         0.0600 
    161 H161        1.3554  -15.6363  -43.2064 H         1 UNK         0.0600 
    162 H162        2.6074  -16.8703  -43.1795 H         1 UNK         0.0600 
    163 H163        1.9543  -16.2554  -41.6690 H         1 UNK         0.0600 
    164 H164       -0.6670  -16.1843  -41.8526 H         1 UNK         0.3000 
    165 H165       -3.6733  -17.9729  -41.1684 H         1 UNK         0.0600 
    166 H166       -3.4925  -16.9039  -38.9497 H         1 UNK         0.0600 
    167 H167       -2.3784  -18.2574  -39.0494 H         1 UNK         0.0600 
    168 H168       -1.7695  -16.6127  -39.1923 H         1 UNK         0.0600 
    169 H169       -3.1314  -15.2545  -40.7934 H         1 UNK         0.3000 
    170 H170       -4.8214  -14.2209  -43.3968 H         1 UNK         0.0600 
    171 H171       -4.3806  -13.5976  -41.0321 H         1 UNK         0.0600 
    172 H172       -2.6966  -13.2284  -41.4131 H         1 UNK         0.0600 
    173 H173       -3.9961  -12.2633  -42.0982 H         1 UNK         0.0600 
    174 H174       -3.5121  -13.2703  -44.9068 H         1 UNK         0.3000 
    175 H175       -1.5353  -13.3419  -46.3447 H         1 UNK         0.0600 
    176 H176       -0.8473  -10.9798  -44.4921 H         1 UNK         0.0600 
    177 H177       -0.8886  -10.9099  -46.2524 H         1 UNK         0.0600 
    178 H178       -2.3678  -11.1883  -45.3530 H         1 UNK         0.0600 
    179 H179        0.7732  -13.4636  -44.6067 H         1 UNK         0.3000 
    180 H180        2.9166  -13.0376  -45.4018 H         1 UNK         0.0600 
    181 H181        2.4675  -15.4515  -45.6274 H         1 UNK         0.0600 
    182 H182        4.0136  -15.1098  -46.3905 H         1 UNK         0.0600 
    183 H183        2.5724  -15.3643  -47.3757 H         1 UNK         0.0600 
    184 H184        2.8833  -12.6580  -48.3215 H         1 UNK         0.3000 
    185 H185        4.0623  -10.2841  -48.5353 H         1 UNK         0.0600 
    186 H186        6.0740   -9.6068  -47.2942 H         1 UNK         0.0600 
    187 H187        7.0039  -10.9287  -47.9850 H         1 UNK         0.0600 
    188 H188        6.4205   -9.6232  -49.0155 H         1 UNK         0.0600 
    189 H189        4.3118  -11.3983  -50.4255 H         1 UNK         0.3000 
    190 H190       -1.3722  -21.3942  -47.4862 H         1 UNK         0.3000 
    191 H191       -1.6788  -22.7549  -49.9494 H         1 UNK         0.0600 
    192 H192       -3.7798  -21.5146  -48.1083 H         1 UNK         0.0600 
    193 H193       -4.0341  -21.9804  -49.7875 H         1 UNK         0.0600 
    194 H194       -2.9101  -20.6867  -49.4042 H         1 UNK         0.0600 
    195 H195       -2.9227  -23.5711  -46.6585 H         1 UNK         0.3000 
    196 H196       -4.3479  -25.8970  -47.3884 H         1 UNK         0.0600 
    197 H197       -4.1792  -26.4492  -44.9497 H         1 UNK         0.0600 
    198 H198       -4.6451  -24.7756  -45.2110 H         1 UNK         0.0600 
    199 H199       -2.9928  -25.1665  -44.7387 H         1 UNK         0.0600 
    200 H200       -0.9085  -25.5109  -46.4069 H         1 UNK         0.3000 
    201 H201       -0.1931  -28.2621  -46.5438 H         1 UNK         0.0600 
    202 H202        1.1798  -26.5600  -45.3785 H         1 UNK         0.0600 
    203 H203        1.5259  -25.7504  -46.9044 H         1 UNK         0.0600 
    204 H204        2.1378  -27.3726  -46.6073 H         1 UNK         0.0600 
    205 H205       -0.3263  -25.7301  -49.0393 H         1 UNK         0.3000 
    206 H206        0.7597  -27.3777  -51.1710 H         1 UNK         0.0600 
    207 H207        0.9932  -24.8891  -51.1146 H         1 UNK         0.0600 
    208 H208        0.1651  -25.4203  -52.5699 H         1 UNK         0.0600 
    209 H209       -0.7551  -24.7147  -51.2489 H         1 UNK         0.0600 
    210 H210       -2.2059  -27.4713  -49.6041 H         1 UNK         0.3000 
    211 H211       -4.1725  -28.3862  -49.8992 H         1 UNK         0.0600 
    212 H212       -3.1291  -29.7290  -52.4450 H         1 UNK         0.0600 
    213 H213       -4.5274  -30.2105  -51.4969 H         1 UNK         0.0600 
    214 H214       -2.9186  -30.3565  -50.8102 H         1 UNK         0.0600 
    215 H215       -3.7335  -25.7517  -50.8238 H         1 UNK         0.3000 
    216 H216       -5.7632  -25.3718  -52.9823 H         1 UNK         0.0600 
    217 H217       -4.8188  -23.0609  -53.0640 H         1 UNK         0.0600 
    218 H218       -3.5438  -24.2406  -53.3201 H         1 UNK         0.0600 
    219 H219       -3.7043  -23.4434  -51.7588 H         1 UNK         0.0600 
    220 H220       -7.1082  -23.3300  -52.4913 H         1 UNK         0.3000 
    221 H221       -8.5684  -23.6104  -50.0194 H         1 UNK         0.0600 
    222 H222       -8.6590  -21.5016  -52.2439 H         1 UNK         0.0600 
    223 H223       -9.7072  -22.9080  -52.0863 H         1 UNK         0.0600 
    224 H224       -9.8065  -21.6034  -50.9139 H         1 UNK         0.0600 
    225 H225       -8.4890  -22.3745  -48.1965 H         1 UNK         0.3000 
    226 H226       -6.0811  -21.4821  -47.2633 H         1 UNK         0.0600 
    227 H227       -7.4040  -20.6221  -45.3125 H         1 UNK         0.0600 
    228 H228       -8.8863  -20.8431  -46.2329 H         1 UNK         0.0600 
    229 H229       -7.8905  -22.2355  -45.8061 H         1 UNK         0.0600 
    230 H230       -4.8903  -19.8928  -48.0065 H         1 UNK         0.3000 
    231 H231       -4.0128  -17.9443  -48.4117 H         1 UNK         0.0600 
    232 H232       -4.8436  -15.8974  -47.3376 H         1 UNK         0.0600 
    233 H233       -4.9975  -17.2383  -46.2191 H         1 UNK         0.0600 
    234 H234       -6.4192  -16.6227  -47.0594 H         1 UNK         0.0600 
    235 H235       -5.9684  -19.1738  -50.3691 H         1 UNK         0.3000 
    236 H236       -6.8691  -16.9394  -52.0202 H         1 UNK         0.0600 
    237 H237       -8.0961  -19.1015  -51.9523 H         1 UNK         0.0600 
    238 H238       -7.5315  -18.7390  -53.5765 H         1 UNK         0.0600 
    239 H239       -6.6871  -19.9382  -52.6056 H         1 UNK         0.0600 
    240 H240       -4.5763  -16.0520  -51.7073 H         1 UNK         0.3000 
    241 H241       -2.4412  -17.2058  -53.2259 H         1 UNK         0.0600 
    242 H242       -4.2354  -14.8206  -55.9237 H         1 UNK         0.3800 
    243 H243       -5.0470  -15.3355  -54.4684 H         1 UNK         0.3800 
    244 H244       -2.1584  -14.3322  -52.3634 H         1 UNK         0.0800 
    245 H245       -2.5400  -15.4392  -51.0910 H         1 UNK         0.0800 
    246 H246       -1.1150  -17.2608  -50.1481 H         1 UNK         0.0800 
    247 H247       -0.4047  -15.7509  -49.6120 H         1 UNK         0.0800 
@<TRIPOS>BOND
     1    1    2 1    
     2    1  127 1    
     3    1  128 1    
     4    1  129 1    
     5    2    3 2    
     6    2    4 am   BACKBONE|DICT|INTERRES
     7    4    5 1    
     8    4  130 1    
     9    5    6 1    
    10    5   65 1    
    11    5  131 1    
    12    6    7 1    
    13    6  132 1    
    14    6  133 1    
    15    7    8 1    
    16    8    9 1    
    17    8  134 1    
    18    8  135 1    
    19    9   10 ar   
    20    9   14 ar   
    21   10   11 ar   
    22   10  136 1    
    23   11   12 ar   
    24   11  126 1    
    25   12   13 ar   
    26   12  137 1    
    27   13   14 ar   
    28   13   15 1    
    29   14  138 1    
    30   15   16 1    
    31   15  139 1    
    32   15  140 1    
    33   16   17 1    
    34   17   18 1    
    35   17  141 1    
    36   17  142 1    
    37   18   19 1    
    38   18   67 1    
    39   18  143 1    
    40   19   20 am   BACKBONE|DICT|INTERRES
    41   19  144 1    
    42   20   21 2    
    43   20   22 1    
    44   22   23 1    
    45   22   24 1    
    46   22  145 1    
    47   23  146 1    
    48   23  147 1    
    49   23  148 1    
    50   24   25 am   BACKBONE|DICT|INTERRES
    51   24  149 1    
    52   25   26 2    
    53   25   27 1    
    54   27   28 1    
    55   27   29 1    
    56   27  150 1    
    57   28  151 1    
    58   28  152 1    
    59   28  153 1    
    60   29   30 am   BACKBONE|DICT|INTERRES
    61   29  154 1    
    62   30   31 2    
    63   30   32 1    
    64   32   33 1    
    65   32   34 1    
    66   32  155 1    
    67   33  156 1    
    68   33  157 1    
    69   33  158 1    
    70   34   35 am   BACKBONE|DICT|INTERRES
    71   34  159 1    
    72   35   36 2    
    73   35   37 1    
    74   37   38 1    
    75   37   39 1    
    76   37  160 1    
    77   38  161 1    
    78   38  162 1    
    79   38  163 1    
    80   39   40 am   BACKBONE|DICT|INTERRES
    81   39  164 1    
    82   40   41 2    
    83   40   42 1    
    84   42   43 1    
    85   42   44 1    
    86   42  165 1    
    87   43  166 1    
    88   43  167 1    
    89   43  168 1    
    90   44   45 am   BACKBONE|DICT|INTERRES
    91   44  169 1    
    92   45   46 2    
    93   45   47 1    
    94   47   48 1    
    95   47   49 1    
    96   47  170 1    
    97   48  171 1    
    98   48  172 1    
    99   48  173 1    
   100   49   50 am   BACKBONE|DICT|INTERRES
   101   49  174 1    
   102   50   51 2    
   103   50   52 1    
   104   52   53 1    
   105   52   54 1    
   106   52  175 1    
   107   53  176 1    
   108   53  177 1    
   109   53  178 1    
   110   54   55 am   BACKBONE|DICT|INTERRES
   111   54  179 1    
   112   55   56 2    
   113   55   57 1    
   114   57   58 1    
   115   57   59 1    
   116   57  180 1    
   117   58  181 1    
   118   58  182 1    
   119   58  183 1    
   120   59   60 am   BACKBONE|DICT|INTERRES
   121   59  184 1    
   122   60   61 2    
   123   60   62 1    
   124   62   63 1    
   125   62   64 1    
   126   62  185 1    
   127   63  186 1    
   128   63  187 1    
   129   63  188 1    
   130   64   65 am   BACKBONE|DICT|INTERRES
   131   64  189 1    
   132   65   66 2    
   133   67   68 2    
   134   67   69 am   BACKBONE|DICT|INTERRES
   135   69   70 1    
   136   69  190 1    
   137   70   71 1    
   138   70   72 1    
   139   70  191 1    
   140   71  192 1    
   141   71  193 1    
   142   71  194 1    
   143   72   73 2    
   144   72   74 am   BACKBONE|DICT|INTERRES
   145   74   75 1    
   146   74  195 1    
   147   75   76 1    
   148   75   77 1    
   149   75  196 1    
   150   76  197 1    
   151   76  198 1    
   152   76  199 1    
   153   77   78 2    
   154   77   79 am   BACKBONE|DICT|INTERRES
   155   79   80 1    
   156   79  200 1    
   157   80   81 1    
   158   80   82 1    
   159   80  201 1    
   160   81  202 1    
   161   81  203 1    
   162   81  204 1    
   163   82   83 2    
   164   82   84 am   BACKBONE|DICT|INTERRES
   165   84   85 1    
   166   84  205 1    
   167   85   86 1    
   168   85   87 1    
   169   85  206 1    
   170   86  207 1    
   171   86  208 1    
   172   86  209 1    
   173   87   88 2    
   174   87   89 am   BACKBONE|DICT|INTERRES
   175   89   90 1    
   176   89  210 1    
   177   90   91 1    
   178   90   92 1    
   179   90  211 1    
   180   91  212 1    
   181   91  213 1    
   182   91  214 1    
   183   92   93 2    
   184   92   94 am   BACKBONE|DICT|INTERRES
   185   94   95 1    
   186   94  215 1    
   187   95   96 1    
   188   95   97 1    
   189   95  216 1    
   190   96  217 1    
   191   96  218 1    
   192   96  219 1    
   193   97   98 2    
   194   97   99 am   BACKBONE|DICT|INTERRES
   195   99  100 1    
   196   99  220 1    
   197  100  101 1    
   198  100  102 1    
   199  100  221 1    
   200  101  222 1    
   201  101  223 1    
   202  101  224 1    
   203  102  103 2    
   204  102  104 am   BACKBONE|DICT|INTERRES
   205  104  105 1    
   206  104  225 1    
   207  105  106 1    
   208  105  107 1    
   209  105  226 1    
   210  106  227 1    
   211  106  228 1    
   212  106  229 1    
   213  107  108 2    
   214  107  109 am   BACKBONE|DICT|INTERRES
   215  109  110 1    
   216  109  230 1    
   217  110  111 1    
   218  110  112 1    
   219  110  231 1    
   220  111  232 1    
   221  111  233 1    
   222  111  234 1    
   223  112  113 2    
   224  112  114 am   BACKBONE|DICT|INTERRES
   225  114  115 1    
   226  114  235 1    
   227  115  116 1    
   228  115  117 1    
   229  115  236 1    
   230  116  237 1    
   231  116  238 1    
   232  116  239 1    
   233  117  118 2    
   234  117  119 am   BACKBONE|DICT|INTERRES
   235  119  120 1    
   236  119  240 1    
   237  120  121 1    
   238  120  124 1    
   239  120  241 1    
   240  121  122 am   BACKBONE|DICT|INTERRES
   241  121  123 2    
   242  122  242 1    
   243  122  243 1    
   244  124  125 1    
   245  124  244 1    
   246  124  245 1    
   247  125  126 1    
   248  126  246 1    
   249  126  247 1    
@<TRIPOS>SUBSTRUCTURE
     1 UNK         1 GROUP             0       ****    0 ROOT    
