@<TRIPOS>MOLECULE
3R540
247   249    1
SMALL
USER_CHARGES


@<TRIPOS>ATOM
      1 CA          4.8591  -13.8325  -44.4182 C.3       0 UNK        -0.1800 
      2 C           3.5026  -13.4550  -44.9938 C.2       0 UNK         0.5000 
      3 O           2.5731  -13.1745  -44.2374 O.2       0 UNK        -0.5000 
      4 N           3.3870  -13.4285  -46.3293 N.am      1 UNK        -0.5000 
      5 CA          2.1405  -13.1801  -47.0696 C.3       1 UNK         0.1400 
      6 C6          2.2963  -13.3958  -48.5939 C.3       23 UNK        -0.0398 
      7 S7          2.9159  -15.0506  -49.0404 S.3       23 UNK        -0.2404 
      8 C8          1.3680  -16.0074  -49.1576 C.3       23 UNK        -0.0205 
      9 C9          1.5353  -17.2542  -50.0176 C.ar      23 UNK        -0.0193 
     10 C10         0.6929  -17.4676  -51.1136 C.ar      23 UNK        -0.1150 
     11 C11         0.8495  -18.5969  -51.9232 C.ar      23 UNK        -0.0193 
     12 C12         1.8536  -19.5214  -51.6249 C.ar      23 UNK        -0.1150 
     13 C13         2.6915  -19.3320  -50.5227 C.ar      23 UNK        -0.0193 
     14 C14         2.5281  -18.1957  -49.7249 C.ar      23 UNK        -0.1150 
     15 C15         3.7677  -20.3623  -50.1991 C.3       23 UNK        -0.0205 
     16 S16         3.5594  -21.1169  -48.5517 S.3       23 UNK        -0.2404 
     17 C17         1.7932  -21.5764  -48.5663 C.3       23 UNK        -0.0398 
     18 CA          1.5088  -22.9640  -47.9467 C.3       11 UNK         0.1400 
     19 N           2.0339  -23.1134  -46.5901 N.am      11 UNK        -0.5000 
     20 C           2.2524  -24.2906  -45.9891 C.2       10 UNK         0.5000 
     21 O           2.1140  -25.3807  -46.5447 O.2       10 UNK        -0.5000 
     22 CA          2.6682  -24.2427  -44.5068 C.3       10 UNK         0.1400 
     23 CB          4.1962  -24.1542  -44.3779 C.3       10 UNK        -0.1800 
     24 N           2.0586  -23.1285  -43.7780 N.am      10 UNK        -0.5000 
     25 C           0.7451  -23.0004  -43.5435 C.2       9 UNK         0.5000 
     26 O          -0.0988  -23.8248  -43.8961 O.2       9 UNK        -0.5000 
     27 CA          0.2979  -21.7092  -42.8349 C.3       9 UNK         0.1400 
     28 CB          0.3990  -21.8664  -41.3108 C.3       9 UNK        -0.1800 
     29 N           1.0366  -20.5120  -43.2446 N.am      9 UNK        -0.5000 
     30 C           1.1300  -20.0307  -44.4915 C.2       8 UNK         0.5000 
     31 O           0.6833  -20.6154  -45.4798 O.2       8 UNK        -0.5000 
     32 CA          1.8077  -18.6514  -44.6376 C.3       8 UNK         0.1400 
     33 CB          2.0151  -18.2489  -46.1072 C.3       8 UNK        -0.1800 
     34 N           1.0134  -17.6199  -43.9706 N.am      8 UNK        -0.5000 
     35 C           0.9699  -17.4185  -42.6445 C.2       7 UNK         0.5000 
     36 O           1.7031  -18.0085  -41.8488 O.2       7 UNK        -0.5000 
     37 CA         -0.0936  -16.4420  -42.1014 C.3       7 UNK         0.1400 
     38 CB          0.5324  -15.0722  -41.8233 C.3       7 UNK        -0.1800 
     39 N          -1.2414  -16.2681  -42.9926 N.am      7 UNK        -0.5000 
     40 C          -2.0972  -17.2390  -43.3409 C.2       6 UNK         0.5000 
     41 O          -2.0819  -18.3675  -42.8481 O.2       6 UNK        -0.5000 
     42 CA         -3.1259  -16.9175  -44.4420 C.3       6 UNK         0.1400 
     43 CB         -4.5262  -16.7395  -43.8366 C.3       6 UNK        -0.1800 
     44 N          -2.8228  -15.7449  -45.2679 N.am      6 UNK        -0.5000 
     45 C          -1.7463  -15.5488  -46.0388 C.2       5 UNK         0.5000 
     46 O          -0.7731  -16.3017  -46.0548 O.2       5 UNK        -0.5000 
     47 CA         -1.7549  -14.3046  -46.9486 C.3       5 UNK         0.1400 
     48 CB         -2.6419  -14.5240  -48.1892 C.3       5 UNK        -0.1800 
     49 N          -2.0822  -13.0448  -46.2664 N.am      5 UNK        -0.5000 
     50 C          -3.2295  -12.6717  -45.6803 C.2       4 UNK         0.5000 
     51 O          -4.2381  -13.3798  -45.6458 O.2       4 UNK        -0.5000 
     52 CA         -3.2510  -11.2750  -45.0205 C.3       4 UNK         0.1400 
     53 CB         -4.4054  -11.1171  -44.0087 C.3       4 UNK        -0.1800 
     54 N          -1.9828  -10.8728  -44.3988 N.am      4 UNK        -0.5000 
     55 C          -1.3057  -11.4991  -43.4245 C.2       3 UNK         0.5000 
     56 O          -1.6107  -12.6050  -42.9748 O.2       3 UNK        -0.5000 
     57 CA         -0.0754  -10.7414  -42.8797 C.3       3 UNK         0.1400 
     58 CB          0.6222  -11.4551  -41.7099 C.3       3 UNK        -0.1800 
     59 N           0.9028  -10.5029  -43.9390 N.am      3 UNK        -0.5000 
     60 C           0.8686   -9.4775  -44.8016 C.2       2 UNK         0.5000 
     61 O           0.0302   -8.5767  -44.7496 O.2       2 UNK        -0.5000 
     62 CA          1.9030   -9.4835  -45.9456 C.3       2 UNK         0.1400 
     63 CB          3.1403   -8.6611  -45.5561 C.3       2 UNK        -0.1800 
     64 N           2.3283  -10.8274  -46.3440 N.am      2 UNK        -0.5000 
     65 C           1.5184  -11.7905  -46.8084 C.2       1 UNK         0.5000 
     66 O           0.3150  -11.6255  -47.0104 O.2       1 UNK        -0.5000 
     67 C          -0.0045  -23.2305  -47.9443 C.2       11 UNK         0.5000 
     68 O          -0.4841  -24.0209  -48.7549 O.2       11 UNK        -0.5000 
     69 N          -0.7204  -22.5834  -47.0124 N.am      12 UNK        -0.5000 
     70 CA         -2.1747  -22.6336  -46.8640 C.3       12 UNK         0.1400 
     71 CB         -2.5976  -21.7181  -45.7061 C.3       12 UNK        -0.1800 
     72 C          -2.7384  -24.0501  -46.6617 C.2       12 UNK         0.5000 
     73 O          -3.8079  -24.3524  -47.1922 O.2       12 UNK        -0.5000 
     74 N          -1.9988  -24.8962  -45.9333 N.am      13 UNK        -0.5000 
     75 CA         -2.3212  -26.3055  -45.7096 C.3       13 UNK         0.1400 
     76 CB         -1.3402  -26.8845  -44.6789 C.3       13 UNK        -0.1800 
     77 C          -2.3095  -27.1538  -46.9973 C.2       13 UNK         0.5000 
     78 O          -3.0974  -28.0939  -47.1057 O.2       13 UNK        -0.5000 
     79 N          -1.4279  -26.8094  -47.9452 N.am      14 UNK        -0.5000 
     80 CA         -1.3005  -27.4803  -49.2385 C.3       14 UNK         0.1400 
     81 CB          0.1681  -27.4273  -49.6884 C.3       14 UNK        -0.1800 
     82 C          -2.2142  -26.8448  -50.3002 C.2       14 UNK         0.5000 
     83 O          -2.8197  -27.5641  -51.0950 O.2       14 UNK        -0.5000 
     84 N          -2.2921  -25.5083  -50.2957 N.am      15 UNK        -0.5000 
     85 CA         -3.0300  -24.6989  -51.2651 C.3       15 UNK         0.1400 
     86 CB         -2.4714  -23.2693  -51.2233 C.3       15 UNK        -0.1800 
     87 C          -4.5557  -24.6834  -51.0515 C.2       15 UNK         0.5000 
     88 O          -5.2692  -24.2384  -51.9508 O.2       15 UNK        -0.5000 
     89 N          -5.0184  -25.1496  -49.8806 N.am      16 UNK        -0.5000 
     90 CA         -6.3967  -25.0860  -49.3820 C.3       16 UNK         0.1400 
     91 CB         -7.3685  -25.8767  -50.2844 C.3       16 UNK        -0.1800 
     92 C          -6.8140  -23.6203  -49.1512 C.2       16 UNK         0.5000 
     93 O          -7.7408  -23.1244  -49.7939 O.2       16 UNK        -0.5000 
     94 N          -6.0696  -22.9778  -48.2397 N.am      17 UNK        -0.5000 
     95 CA         -5.9555  -21.5431  -47.9593 C.3       17 UNK         0.1400 
     96 CB         -7.3029  -20.7949  -47.9682 C.3       17 UNK        -0.1800 
     97 C          -4.9289  -20.8928  -48.9013 C.2       17 UNK         0.5000 
     98 O          -4.8073  -21.2828  -50.0625 O.2       17 UNK        -0.5000 
     99 N          -4.1755  -19.9179  -48.3803 N.am      18 UNK        -0.5000 
    100 CA        -3.1853  -19.1711  -49.1555 C.3       18 UNK         0.1400 
    101 CB        -2.3076  -18.3499  -48.2040 C.3       18 UNK        -0.1800 
    102 C         -3.8702  -18.2687  -50.1988 C.2       18 UNK         0.5000 
    103 O         -4.9263  -17.6992  -49.9152 O.2       18 UNK        -0.5000 
    104 N         -3.2518  -18.1757  -51.3818 N.am      19 UNK        -0.5000 
    105 CA        -3.7306  -17.4859  -52.5858 C.3       19 UNK         0.1400 
    106 CB        -3.9632  -15.9816  -52.3285 C.3       19 UNK        -0.1800 
    107 C         -4.9257  -18.1786  -53.2793 C.2       19 UNK         0.5000 
    108 O         -5.5606  -17.5595  -54.1350 O.2       19 UNK        -0.5000 
    109 N         -5.1928  -19.4492  -52.9388 N.am      20 UNK        -0.5000 
    110 CA        -6.1482  -20.3129  -53.6313 C.3       20 UNK         0.1400 
    111 CB        -6.8987  -21.1868  -52.6109 C.3       20 UNK        -0.1800 
    112 C         -5.4083  -21.1096  -54.7239 C.2       20 UNK         0.5000 
    113 O         -4.9996  -20.5119  -55.7219 O.2       20 UNK        -0.5000 
    114 N         -5.2266  -22.4277  -54.5400 N.am      21 UNK        -0.5000 
    115 CA        -4.6478  -23.3316  -55.5449 C.3       21 UNK         0.1400 
    116 CB        -4.8405  -24.7904  -55.1046 C.3       21 UNK        -0.1800 
    117 C         -3.1669  -23.0589  -55.8793 C.2       21 UNK         0.5000 
    118 O         -2.7016  -23.4897  -56.9355 O.2       21 UNK        -0.5000 
    119 N         -2.4616  -22.3374  -54.9990 N.am      22 UNK        -0.5000 
    120 CA        -1.1109  -21.8103  -55.2447 C.3       22 UNK         0.1400 
    121 C         -1.0523  -20.6113  -56.2413 C.2       22 UNK         0.5000 
    122 N         -2.1684  -20.0031  -56.6303 N.am      22 UNK        -0.7600 
    123 O          0.0309  -20.2322  -56.6776 O.2       22 UNK        -0.5000 
    124 C124       -0.3658  -21.5044  -53.9196 C.3       23 UNK        -0.0398 
    125 S125       -1.1783  -20.2209  -52.8995 S.3       23 UNK        -0.2404 
    126 C126       -0.0515  -18.8058  -53.1306 C.3       23 UNK        -0.0205 
    127 H127        5.2459  -13.0184  -43.8054 H         1 UNK         0.0600 
    128 H128        5.5867  -14.0462  -45.2015 H         1 UNK         0.0600 
    129 H129        4.7642  -14.7185  -43.7904 H         1 UNK         0.0600 
    130 H130        4.1858  -13.6703  -46.8989 H         1 UNK         0.3000 
    131 H131        1.4236  -13.9146  -46.6998 H         1 UNK         0.0600 
    132 H132        2.9932  -12.6637  -49.0061 H         1 UNK         0.0800 
    133 H133        1.3494  -13.2256  -49.1100 H         1 UNK         0.0800 
    134 H134        1.0445  -16.2962  -48.1576 H         1 UNK         0.0800 
    135 H135        0.5786  -15.3754  -49.5665 H         1 UNK         0.0800 
    136 H136       -0.0791  -16.7470  -51.3445 H         1 UNK         0.1150 
    137 H137        1.9761  -20.3946  -52.2494 H         1 UNK         0.1150 
    138 H138        3.1787  -18.0421  -48.8757 H         1 UNK         0.1150 
    139 H139        3.7787  -21.1574  -50.9462 H         1 UNK         0.0800 
    140 H140        4.7459  -19.8825  -50.2476 H         1 UNK         0.0800 
    141 H141        1.4296  -21.5683  -49.5950 H         1 UNK         0.0800 
    142 H142        1.2460  -20.7866  -48.0488 H         1 UNK         0.0800 
    143 H143        1.9797  -23.7157  -48.5843 H         1 UNK         0.0600 
    144 H144        2.1195  -22.2631  -46.0508 H         1 UNK         0.3000 
    145 H145        2.3369  -25.1727  -44.0399 H         1 UNK         0.0600 
    146 H146        4.5075  -24.1940  -43.3339 H         1 UNK         0.0600 
    147 H147        4.6796  -24.9861  -44.8920 H         1 UNK         0.0600 
    148 H148        4.5843  -23.2311  -44.8104 H         1 UNK         0.0600 
    149 H149        2.6766  -22.3978  -43.4573 H         1 UNK         0.3000 
    150 H150       -0.7502  -21.5398  -43.0836 H         1 UNK         0.0600 
    151 H151       -0.1620  -22.7375  -40.9693 H         1 UNK         0.0600 
    152 H152       -0.0106  -20.9959  -40.7978 H         1 UNK         0.0600 
    153 H153        1.4326  -21.9920  -40.9862 H         1 UNK         0.0600 
    154 H154        1.4001  -19.9286  -42.4988 H         1 UNK         0.3000 
    155 H155        2.7906  -18.7089  -44.1656 H         1 UNK         0.0600 
    156 H156        2.4748  -17.2637  -46.1889 H         1 UNK         0.0600 
    157 H157        2.6716  -18.9573  -46.6118 H         1 UNK         0.0600 
    158 H158        1.0734  -18.2267  -46.6570 H         1 UNK         0.0600 
    159 H159        0.3566  -17.1191  -44.5613 H         1 UNK         0.3000 
    160 H160       -0.4600  -16.8504  -41.1574 H         1 UNK         0.0600 
    161 H161        0.8596  -14.5959  -42.7476 H         1 UNK         0.0600 
    162 H162        1.4009  -15.1574  -41.1689 H         1 UNK         0.0600 
    163 H163       -0.1801  -14.4080  -41.3341 H         1 UNK         0.0600 
    164 H164       -1.3406  -15.3638  -43.4326 H         1 UNK         0.3000 
    165 H165       -3.1504  -17.7822  -45.1078 H         1 UNK         0.0600 
    166 H166       -5.2806  -16.6225  -44.6150 H         1 UNK         0.0600 
    167 H167       -4.8102  -17.6060  -43.2380 H         1 UNK         0.0600 
    168 H168       -4.5728  -15.8621  -43.1902 H         1 UNK         0.0600 
    169 H169       -3.5423  -15.0258  -45.3120 H         1 UNK         0.3000 
    170 H170       -0.7372  -14.1831  -47.3155 H         1 UNK         0.0600 
    171 H171       -2.2969  -15.3810  -48.7683 H         1 UNK         0.0600 
    172 H172       -3.6829  -14.7099  -47.9234 H         1 UNK         0.0600 
    173 H173       -2.6145  -13.6578  -48.8502 H         1 UNK         0.0600 
    174 H174       -1.3182  -12.3746  -46.2560 H         1 UNK         0.3000 
    175 H175       -3.4273  -10.5673  -45.8316 H         1 UNK         0.0600 
    176 H176       -5.3729  -11.2765  -44.4863 H         1 UNK         0.0600 
    177 H177       -4.3228  -11.8317  -43.1890 H         1 UNK         0.0600 
    178 H178       -4.4202  -10.1151  -43.5799 H         1 UNK         0.0600 
    179 H179       -1.6055   -9.9864  -44.7146 H         1 UNK         0.3000 
    180 H180       -0.4395   -9.7852  -42.4980 H         1 UNK         0.0600 
    181 H181        1.1208  -12.3658  -42.0362 H         1 UNK         0.0600 
    182 H182       -0.0873  -11.7224  -40.9259 H         1 UNK         0.0600 
    183 H183        1.3775  -10.8125  -41.2574 H         1 UNK         0.0600 
    184 H184        1.5833  -11.2402  -44.0863 H         1 UNK         0.3000 
    185 H185        1.4352   -9.0127  -46.8127 H         1 UNK         0.0600 
    186 H186        2.8614   -7.6444  -45.2760 H         1 UNK         0.0600 
    187 H187        3.6662   -9.1028  -44.7087 H         1 UNK         0.0600 
    188 H188        3.8427   -8.5865  -46.3866 H         1 UNK         0.0600 
    189 H189        3.3012  -11.0555  -46.2004 H         1 UNK         0.3000 
    190 H190       -0.2298  -21.9443  -46.3901 H         1 UNK         0.3000 
    191 H191       -2.5985  -22.2433  -47.7893 H         1 UNK         0.0600 
    192 H192       -2.2041  -22.0768  -44.7563 H         1 UNK         0.0600 
    193 H193       -3.6816  -21.6783  -45.6073 H         1 UNK         0.0600 
    194 H194       -2.2427  -20.6979  -45.8508 H         1 UNK         0.0600 
    195 H195       -1.1671  -24.5404  -45.4723 H         1 UNK         0.3000 
    196 H196       -3.3283  -26.3558  -45.2906 H         1 UNK         0.0600 
    197 H197       -1.5507  -27.9368  -44.4835 H         1 UNK         0.0600 
    198 H198       -1.4123  -26.3569  -43.7276 H         1 UNK         0.0600 
    199 H199       -0.3075  -26.8120  -45.0234 H         1 UNK         0.0600 
    200 H200       -0.8486  -25.9925  -47.7997 H         1 UNK         0.3000 
    201 H201       -1.5811  -28.5309  -49.1375 H         1 UNK         0.0600 
    202 H202        0.8182  -27.9214  -48.9660 H         1 UNK         0.0600 
    203 H203        0.5201  -26.4016  -49.8057 H         1 UNK         0.0600 
    204 H204        0.3017  -27.9324  -50.6458 H         1 UNK         0.0600 
    205 H205       -1.7144  -24.9919  -49.6350 H         1 UNK         0.3000 
    206 H206       -2.8441  -25.1055  -52.2608 H         1 UNK         0.0600 
    207 H207       -1.4052  -23.2564  -51.4452 H         1 UNK         0.0600 
    208 H208       -2.9699  -22.6282  -51.9508 H         1 UNK         0.0600 
    209 H209       -2.6077  -22.8169  -50.2411 H         1 UNK         0.0600 
    210 H210       -4.3273  -25.4370  -49.2004 H         1 UNK         0.3000 
    211 H211       -6.3934  -25.5718  -48.4050 H         1 UNK         0.0600 
    212 H212       -7.4798  -25.4239  -51.2697 H         1 UNK         0.0600 
    213 H213       -8.3612  -25.9195  -49.8355 H         1 UNK         0.0600 
    214 H214       -7.0289  -26.9029  -50.4237 H         1 UNK         0.0600 
    215 H215       -5.3222  -23.5287  -47.8217 H         1 UNK         0.3000 
    216 H216       -5.5622  -21.4840  -46.9448 H         1 UNK         0.0600 
    217 H217       -7.6976  -20.6782  -48.9781 H         1 UNK         0.0600 
    218 H218       -7.1885  -19.7924  -47.5546 H         1 UNK         0.0600 
    219 H219       -8.0506  -21.3127  -47.3676 H         1 UNK         0.0600 
    220 H220       -4.3520  -19.5965  -47.4407 H         1 UNK         0.3000 
    221 H221       -2.5445  -19.8893  -49.6733 H         1 UNK         0.0600 
    222 H222       -1.7763  -18.9871  -47.4970 H         1 UNK         0.0600 
    223 H223       -2.9080  -17.6403  -47.6362 H         1 UNK         0.0600 
    224 H224       -1.5538  -17.7841  -48.7531 H         1 UNK         0.0600 
    225 H225       -2.4010  -18.7079  -51.5157 H         1 UNK         0.3000 
    226 H226       -2.9163  -17.5561  -53.3061 H         1 UNK         0.0600 
    227 H227       -3.1054  -15.5281  -51.8318 H         1 UNK         0.0600 
    228 H228       -4.1145  -15.4450  -53.2657 H         1 UNK         0.0600 
    229 H229       -4.8433  -15.8040  -51.7104 H         1 UNK         0.0600 
    230 H230       -4.6422  -19.8851  -52.2118 H         1 UNK         0.3000 
    231 H231       -6.8988  -19.7045  -54.1397 H         1 UNK         0.0600 
    232 H232       -6.2301  -21.8456  -52.0619 H         1 UNK         0.0600 
    233 H233       -7.6458  -21.8118  -53.1014 H         1 UNK         0.0600 
    234 H234       -7.4223  -20.5723  -51.8784 H         1 UNK         0.0600 
    235 H235       -5.5351  -22.8584  -53.6747 H         1 UNK         0.3000 
    236 H236       -5.2129  -23.1878  -56.4681 H         1 UNK         0.0600 
    237 H237       -5.8792  -24.9958  -54.8450 H         1 UNK         0.0600 
    238 H238       -4.5636  -25.4770  -55.9055 H         1 UNK         0.0600 
    239 H239       -4.2216  -25.0352  -54.2424 H         1 UNK         0.0600 
    240 H240       -2.9243  -22.0053  -54.1666 H         1 UNK         0.3000 
    241 H241       -0.5470  -22.6082  -55.7319 H         1 UNK         0.0600 
    242 H242       -2.1081  -19.2361  -57.2805 H         1 UNK         0.3800 
    243 H243       -3.0774  -20.2913  -56.2842 H         1 UNK         0.3800 
    244 H244        0.6698  -21.2287  -54.1223 H         1 UNK         0.0800 
    245 H245       -0.3018  -22.4153  -53.3250 H         1 UNK         0.0800 
    246 H246        0.5603  -18.9375  -54.0239 H         1 UNK         0.0800 
    247 H247       -0.6437  -17.9103  -53.3166 H         1 UNK         0.0800 
@<TRIPOS>BOND
     1    1    2 1    
     2    1  127 1    
     3    1  128 1    
     4    1  129 1    
     5    2    3 2    
     6    2    4 am   BACKBONE|DICT|INTERRES
     7    4    5 1    
     8    4  130 1    
     9    5    6 1    
    10    5   65 1    
    11    5  131 1    
    12    6    7 1    
    13    6  132 1    
    14    6  133 1    
    15    7    8 1    
    16    8    9 1    
    17    8  134 1    
    18    8  135 1    
    19    9   10 ar   
    20    9   14 ar   
    21   10   11 ar   
    22   10  136 1    
    23   11   12 ar   
    24   11  126 1    
    25   12   13 ar   
    26   12  137 1    
    27   13   14 ar   
    28   13   15 1    
    29   14  138 1    
    30   15   16 1    
    31   15  139 1    
    32   15  140 1    
    33   16   17 1    
    34   17   18 1    
    35   17  141 1    
    36   17  142 1    
    37   18   19 1    
    38   18   67 1    
    39   18  143 1    
    40   19   20 am   BACKBONE|DICT|INTERRES
    41   19  144 1    
    42   20   21 2    
    43   20   22 1    
    44   22   23 1    
    45   22   24 1    
    46   22  145 1    
    47   23  146 1    
    48   23  147 1    
    49   23  148 1    
    50   24   25 am   BACKBONE|DICT|INTERRES
    51   24  149 1    
    52   25   26 2    
    53   25   27 1    
    54   27   28 1    
    55   27   29 1    
    56   27  150 1    
    57   28  151 1    
    58   28  152 1    
    59   28  153 1    
    60   29   30 am   BACKBONE|DICT|INTERRES
    61   29  154 1    
    62   30   31 2    
    63   30   32 1    
    64   32   33 1    
    65   32   34 1    
    66   32  155 1    
    67   33  156 1    
    68   33  157 1    
    69   33  158 1    
    70   34   35 am   BACKBONE|DICT|INTERRES
    71   34  159 1    
    72   35   36 2    
    73   35   37 1    
    74   37   38 1    
    75   37   39 1    
    76   37  160 1    
    77   38  161 1    
    78   38  162 1    
    79   38  163 1    
    80   39   40 am   BACKBONE|DICT|INTERRES
    81   39  164 1    
    82   40   41 2    
    83   40   42 1    
    84   42   43 1    
    85   42   44 1    
    86   42  165 1    
    87   43  166 1    
    88   43  167 1    
    89   43  168 1    
    90   44   45 am   BACKBONE|DICT|INTERRES
    91   44  169 1    
    92   45   46 2    
    93   45   47 1    
    94   47   48 1    
    95   47   49 1    
    96   47  170 1    
    97   48  171 1    
    98   48  172 1    
    99   48  173 1    
   100   49   50 am   BACKBONE|DICT|INTERRES
   101   49  174 1    
   102   50   51 2    
   103   50   52 1    
   104   52   53 1    
   105   52   54 1    
   106   52  175 1    
   107   53  176 1    
   108   53  177 1    
   109   53  178 1    
   110   54   55 am   BACKBONE|DICT|INTERRES
   111   54  179 1    
   112   55   56 2    
   113   55   57 1    
   114   57   58 1    
   115   57   59 1    
   116   57  180 1    
   117   58  181 1    
   118   58  182 1    
   119   58  183 1    
   120   59   60 am   BACKBONE|DICT|INTERRES
   121   59  184 1    
   122   60   61 2    
   123   60   62 1    
   124   62   63 1    
   125   62   64 1    
   126   62  185 1    
   127   63  186 1    
   128   63  187 1    
   129   63  188 1    
   130   64   65 am   BACKBONE|DICT|INTERRES
   131   64  189 1    
   132   65   66 2    
   133   67   68 2    
   134   67   69 am   BACKBONE|DICT|INTERRES
   135   69   70 1    
   136   69  190 1    
   137   70   71 1    
   138   70   72 1    
   139   70  191 1    
   140   71  192 1    
   141   71  193 1    
   142   71  194 1    
   143   72   73 2    
   144   72   74 am   BACKBONE|DICT|INTERRES
   145   74   75 1    
   146   74  195 1    
   147   75   76 1    
   148   75   77 1    
   149   75  196 1    
   150   76  197 1    
   151   76  198 1    
   152   76  199 1    
   153   77   78 2    
   154   77   79 am   BACKBONE|DICT|INTERRES
   155   79   80 1    
   156   79  200 1    
   157   80   81 1    
   158   80   82 1    
   159   80  201 1    
   160   81  202 1    
   161   81  203 1    
   162   81  204 1    
   163   82   83 2    
   164   82   84 am   BACKBONE|DICT|INTERRES
   165   84   85 1    
   166   84  205 1    
   167   85   86 1    
   168   85   87 1    
   169   85  206 1    
   170   86  207 1    
   171   86  208 1    
   172   86  209 1    
   173   87   88 2    
   174   87   89 am   BACKBONE|DICT|INTERRES
   175   89   90 1    
   176   89  210 1    
   177   90   91 1    
   178   90   92 1    
   179   90  211 1    
   180   91  212 1    
   181   91  213 1    
   182   91  214 1    
   183   92   93 2    
   184   92   94 am   BACKBONE|DICT|INTERRES
   185   94   95 1    
   186   94  215 1    
   187   95   96 1    
   188   95   97 1    
   189   95  216 1    
   190   96  217 1    
   191   96  218 1    
   192   96  219 1    
   193   97   98 2    
   194   97   99 am   BACKBONE|DICT|INTERRES
   195   99  100 1    
   196   99  220 1    
   197  100  101 1    
   198  100  102 1    
   199  100  221 1    
   200  101  222 1    
   201  101  223 1    
   202  101  224 1    
   203  102  103 2    
   204  102  104 am   BACKBONE|DICT|INTERRES
   205  104  105 1    
   206  104  225 1    
   207  105  106 1    
   208  105  107 1    
   209  105  226 1    
   210  106  227 1    
   211  106  228 1    
   212  106  229 1    
   213  107  108 2    
   214  107  109 am   BACKBONE|DICT|INTERRES
   215  109  110 1    
   216  109  230 1    
   217  110  111 1    
   218  110  112 1    
   219  110  231 1    
   220  111  232 1    
   221  111  233 1    
   222  111  234 1    
   223  112  113 2    
   224  112  114 am   BACKBONE|DICT|INTERRES
   225  114  115 1    
   226  114  235 1    
   227  115  116 1    
   228  115  117 1    
   229  115  236 1    
   230  116  237 1    
   231  116  238 1    
   232  116  239 1    
   233  117  118 2    
   234  117  119 am   BACKBONE|DICT|INTERRES
   235  119  120 1    
   236  119  240 1    
   237  120  121 1    
   238  120  124 1    
   239  120  241 1    
   240  121  122 am   BACKBONE|DICT|INTERRES
   241  121  123 2    
   242  122  242 1    
   243  122  243 1    
   244  124  125 1    
   245  124  244 1    
   246  124  245 1    
   247  125  126 1    
   248  126  246 1    
   249  126  247 1    
@<TRIPOS>SUBSTRUCTURE
     1 UNK         1 GROUP             0       ****    0 ROOT    
