@<TRIPOS>MOLECULE
3R540
247   249    1
SMALL
USER_CHARGES


@<TRIPOS>ATOM
      1 CA         -6.7874  -14.8613  -48.5032 C.3       0 UNK        -0.1800 
      2 C          -5.9054  -13.7172  -48.0283 C.2       0 UNK         0.5000 
      3 O          -6.4193  -12.7190  -47.5219 O.2       0 UNK        -0.5000 
      4 N          -4.5849  -13.8468  -48.2076 N.am      1 UNK        -0.5000 
      5 CA         -3.5917  -12.8532  -47.7952 C.3       1 UNK         0.1400 
      6 C6         -2.2329  -13.0504  -48.5158 C.3       23 UNK        -0.0398 
      7 S7         -1.3144  -14.5743  -48.0891 S.3       23 UNK        -0.2404 
      8 C8         -1.4379  -15.5520  -49.6246 C.3       23 UNK        -0.0205 
      9 C9         -2.7470  -16.3226  -49.7775 C.ar      23 UNK        -0.0193 
     10 C10        -3.3019  -16.4847  -51.0517 C.ar      23 UNK        -0.1150 
     11 C11        -4.4807  -17.2147  -51.2288 C.ar      23 UNK        -0.0193 
     12 C12        -5.1129  -17.7755  -50.1172 C.ar      23 UNK        -0.1150 
     13 C13        -4.5684  -17.6312  -48.8399 C.ar      23 UNK        -0.0193 
     14 C14        -3.3808  -16.9144  -48.6763 C.ar      23 UNK        -0.1150 
     15 C15        -5.2873  -18.2319  -47.6434 C.3       23 UNK        -0.0205 
     16 S16        -5.0576  -20.0314  -47.5574 S.3       23 UNK        -0.2404 
     17 C17        -3.4519  -20.1385  -46.7039 C.3       23 UNK        -0.0398 
     18 CA         -2.9782  -21.6006  -46.5430 C.3       11 UNK         0.1400 
     19 N          -1.5503  -21.6889  -46.2289 N.am      11 UNK        -0.5000 
     20 C          -0.8427  -22.8264  -46.2449 C.2       10 UNK         0.5000 
     21 O          -1.3002  -23.8940  -46.6519 O.2       10 UNK        -0.5000 
     22 CA          0.5881  -22.7788  -45.6732 C.3       10 UNK         0.1400 
     23 CB          1.6198  -22.3902  -46.7415 C.3       10 UNK        -0.1800 
     24 N           0.7079  -21.8823  -44.5223 N.am      10 UNK        -0.5000 
     25 C           0.1098  -22.0975  -43.3425 C.2       9 UNK         0.5000 
     26 O          -0.5536  -23.1025  -43.0939 O.2       9 UNK        -0.5000 
     27 CA          0.2309  -20.9938  -42.2776 C.3       9 UNK         0.1400 
     28 CB          1.5781  -21.0907  -41.5472 C.3       9 UNK        -0.1800 
     29 N           0.0553  -19.6489  -42.8286 N.am      9 UNK        -0.5000 
     30 C          -1.0757  -19.1952  -43.3886 C.2       8 UNK         0.5000 
     31 O          -2.1087  -19.8596  -43.4695 O.2       8 UNK        -0.5000 
     32 CA         -1.0325  -17.7879  -44.0165 C.3       8 UNK         0.1400 
     33 CB         -1.1731  -16.6954  -42.9467 C.3       8 UNK        -0.1800 
     34 N           0.1826  -17.5560  -44.7966 N.am      8 UNK        -0.5000 
     35 C           0.5350  -18.2648  -45.8780 C.2       7 UNK         0.5000 
     36 O          -0.1483  -19.1694  -46.3568 O.2       7 UNK        -0.5000 
     37 CA          1.9181  -17.9609  -46.4760 C.3       7 UNK         0.1400 
     38 CB          1.8941  -16.6810  -47.3260 C.3       7 UNK        -0.1800 
     39 N           2.9366  -17.8426  -45.4326 N.am      7 UNK        -0.5000 
     40 C           3.3727  -18.8641  -44.6813 C.2       6 UNK         0.5000 
     41 O           2.9921  -20.0262  -44.8202 O.2       6 UNK        -0.5000 
     42 CA          4.3725  -18.5213  -43.5613 C.3       6 UNK         0.1400 
     43 CB          5.8046  -18.4642  -44.1133 C.3       6 UNK        -0.1800 
     44 N           4.0597  -17.2568  -42.8933 N.am      6 UNK        -0.5000 
     45 C           2.9689  -17.0455  -42.1427 C.2       5 UNK         0.5000 
     46 O           2.1299  -17.9101  -41.8994 O.2       5 UNK        -0.5000 
     47 CA          2.7504  -15.6133  -41.6207 C.3       5 UNK         0.1400 
     48 CB          3.4673  -15.4123  -40.2776 C.3       5 UNK        -0.1800 
     49 N           3.1871  -14.5819  -42.5660 N.am      5 UNK        -0.5000 
     50 C           2.6799  -14.4143  -43.7938 C.2       4 UNK         0.5000 
     51 O           1.7808  -15.1150  -44.2625 O.2       4 UNK        -0.5000 
     52 CA          3.3167  -13.2972  -44.6397 C.3       4 UNK         0.1400 
     53 CB          4.6891  -13.7567  -45.1587 C.3       4 UNK        -0.1800 
     54 N           2.5014  -12.9162  -45.7960 N.am      4 UNK        -0.5000 
     55 C           1.3499  -12.2304  -45.8208 C.2       3 UNK         0.5000 
     56 O           0.7786  -11.9907  -46.8862 O.2       3 UNK        -0.5000 
     57 CA          0.7355  -11.6754  -44.5200 C.3       3 UNK         0.1400 
     58 CB          1.3519  -10.3148  -44.1438 C.3       3 UNK        -0.1800 
     59 N          -0.6944  -11.5045  -44.7437 N.am      3 UNK        -0.5000 
     60 C          -1.6526  -11.5225  -43.8120 C.2       2 UNK         0.5000 
     61 O          -1.4330  -11.6826  -42.6108 O.2       2 UNK        -0.5000 
     62 CA         -3.1007  -11.3096  -44.2958 C.3       2 UNK         0.1400 
     63 CB         -3.5549   -9.8714  -44.0001 C.3       2 UNK        -0.1800 
     64 N          -3.2707  -11.5708  -45.7285 N.am      2 UNK        -0.5000 
     65 C          -3.4548  -12.7880  -46.2561 C.2       1 UNK         0.5000 
     66 O          -3.5173  -13.8204  -45.5832 O.2       1 UNK        -0.5000 
     67 C          -3.8344  -22.3934  -45.5304 C.2       11 UNK         0.5000 
     68 O          -4.6752  -23.1896  -45.9488 O.2       11 UNK        -0.5000 
     69 N          -3.5645  -22.2224  -44.2275 N.am      12 UNK        -0.5000 
     70 CA         -4.2145  -22.9589  -43.1368 C.3       12 UNK         0.1400 
     71 CB         -3.7760  -22.3716  -41.7871 C.3       12 UNK        -0.1800 
     72 C          -3.9591  -24.4801  -43.1852 C.2       12 UNK         0.5000 
     73 O          -4.8444  -25.2573  -42.8275 O.2       12 UNK        -0.5000 
     74 N          -2.7776  -24.8764  -43.6772 N.am      13 UNK        -0.5000 
     75 CA         -2.3872  -26.2593  -43.9642 C.3       13 UNK         0.1400 
     76 CB         -0.8530  -26.3371  -44.0268 C.3       13 UNK        -0.1800 
     77 C          -3.0180  -26.8338  -45.2538 C.2       13 UNK         0.5000 
     78 O          -2.7589  -27.9939  -45.5762 O.2       13 UNK        -0.5000 
     79 N          -3.8242  -26.0297  -45.9638 N.am      14 UNK        -0.5000 
     80 CA         -4.5588  -26.3445  -47.1923 C.3       14 UNK         0.1400 
     81 CB         -5.5376  -27.5198  -46.9832 C.3       14 UNK        -0.1800 
     82 C          -3.6579  -26.5157  -48.4323 C.2       14 UNK         0.5000 
     83 O          -4.0598  -27.1796  -49.3892 O.2       14 UNK        -0.5000 
     84 N          -2.4785  -25.8778  -48.4254 N.am      15 UNK        -0.5000 
     85 CA         -1.5591  -25.8222  -49.5658 C.3       15 UNK         0.1400 
     86 CB         -0.1098  -25.8553  -49.0497 C.3       15 UNK        -0.1800 
     87 C          -1.7994  -24.5820  -50.4513 C.2       15 UNK         0.5000 
     88 O          -1.0325  -24.3623  -51.3895 O.2       15 UNK        -0.5000 
     89 N          -2.8219  -23.7709  -50.1281 N.am      16 UNK        -0.5000 
     90 CA         -3.2291  -22.5382  -50.8204 C.3       16 UNK         0.1400 
     91 CB         -3.8209  -22.8728  -52.2056 C.3       16 UNK        -0.1800 
     92 C          -2.0904  -21.4992  -50.8879 C.2       16 UNK         0.5000 
     93 O          -1.8454  -20.9087  -51.9406 O.2       16 UNK        -0.5000 
     94 N          -1.3714  -21.3616  -49.7628 N.am      17 UNK        -0.5000 
     95 CA         -0.1676  -20.5442  -49.5823 C.3       17 UNK         0.1400 
     96 CB         -0.5046  -19.0458  -49.6463 C.3       17 UNK        -0.1800 
     97 C           0.9900  -20.9592  -50.5162 C.2       17 UNK         0.5000 
     98 O           1.7063  -20.1035  -51.0364 O.2       17 UNK        -0.5000 
     99 N           1.1318  -22.2798  -50.7105 N.am      18 UNK        -0.5000 
    100 CA         2.0294  -22.9480  -51.6583 C.3       18 UNK         0.1400 
    101 CB         3.5116  -22.6822  -51.3202 C.3       18 UNK        -0.1800 
    102 C          1.6516  -22.6165  -53.1170 C.2       18 UNK         0.5000 
    103 O          2.5126  -22.2467  -53.9174 O.2       18 UNK        -0.5000 
    104 N          0.3509  -22.7590  -53.4129 N.am      19 UNK        -0.5000 
    105 CA        -0.3198  -22.4851  -54.6859 C.3       19 UNK         0.1400 
    106 CB         0.0869  -23.5313  -55.7436 C.3       19 UNK        -0.1800 
    107 C         -0.1277  -21.0314  -55.1661 C.2       19 UNK         0.5000 
    108 O          0.3317  -20.7995  -56.2873 O.2       19 UNK        -0.5000 
    109 N         -0.4953  -20.0684  -54.3112 N.am      20 UNK        -0.5000 
    110 CA        -0.4239  -18.6271  -54.5677 C.3       20 UNK         0.1400 
    111 CB        -0.4396  -17.8831  -53.2228 C.3       20 UNK        -0.1800 
    112 C         -1.5562  -18.1561  -55.5043 C.2       20 UNK         0.5000 
    113 O         -2.4256  -17.3868  -55.0925 O.2       20 UNK        -0.5000 
    114 N         -1.5533  -18.6749  -56.7396 N.am      21 UNK        -0.5000 
    115 CA        -2.5198  -18.4941  -57.8335 C.3       21 UNK         0.1400 
    116 CB        -2.6651  -17.0117  -58.2271 C.3       21 UNK        -0.1800 
    117 C         -3.8963  -19.1449  -57.5831 C.2       21 UNK         0.5000 
    118 O         -4.4919  -19.6689  -58.5250 O.2       21 UNK        -0.5000 
    119 N         -4.3650  -19.1327  -56.3313 N.am      22 UNK        -0.5000 
    120 CA        -5.5961  -19.7860  -55.8631 C.3       22 UNK         0.1400 
    121 C         -5.5113  -21.3362  -55.7158 C.2       22 UNK         0.5000 
    122 N         -4.3544  -21.9632  -55.8939 N.am      22 UNK        -0.7600 
    123 O         -6.5209  -21.9847  -55.4547 O.2       22 UNK        -0.5000 
    124 C124       -6.1453  -19.1045  -54.5835 C.3       23 UNK        -0.0398 
    125 S125       -4.9862  -19.1197  -53.1689 S.3       23 UNK        -0.2404 
    126 C126       -5.0905  -17.3904  -52.6109 C.3       23 UNK        -0.0205 
    127 H127       -6.9228  -15.5893  -47.7040 H         1 UNK         0.0600 
    128 H128       -6.3497  -15.3619  -49.3658 H         1 UNK         0.0600 
    129 H129       -7.7691  -14.4900  -48.7977 H         1 UNK         0.0600 
    130 H130       -4.2105  -14.7057  -48.5877 H         1 UNK         0.3000 
    131 H131       -3.9734  -11.8836  -48.1232 H         1 UNK         0.0600 
    132 H132       -2.3899  -13.0137  -49.5944 H         1 UNK         0.0800 
    133 H133       -1.5786  -12.2052  -48.2977 H         1 UNK         0.0800 
    134 H134       -0.6186  -16.2677  -49.6384 H         1 UNK         0.0800 
    135 H135       -1.2727  -14.8964  -50.4808 H         1 UNK         0.0800 
    136 H136       -2.8105  -16.0512  -51.9116 H         1 UNK         0.1150 
    137 H137       -6.0295  -18.3335  -50.2486 H         1 UNK         0.1150 
    138 H138       -2.9524  -16.8174  -47.6886 H         1 UNK         0.1150 
    139 H139       -4.9592  -17.7653  -46.7131 H         1 UNK         0.0800 
    140 H140       -6.3547  -18.0237  -47.7274 H         1 UNK         0.0800 
    141 H141       -3.5168  -19.6335  -45.7392 H         1 UNK         0.0800 
    142 H142       -2.7275  -19.5773  -47.2939 H         1 UNK         0.0800 
    143 H143       -3.1084  -22.0908  -47.5096 H         1 UNK         0.0600 
    144 H144       -1.0896  -20.8295  -45.9424 H         1 UNK         0.3000 
    145 H145        0.8289  -23.7893  -45.3383 H         1 UNK         0.0600 
    146 H146        2.6298  -22.6209  -46.4024 H         1 UNK         0.0600 
    147 H147        1.4593  -22.9336  -47.6733 H         1 UNK         0.0600 
    148 H148        1.5916  -21.3238  -46.9600 H         1 UNK         0.0600 
    149 H149        1.2868  -21.0567  -44.6414 H         1 UNK         0.3000 
    150 H150       -0.5612  -21.1555  -41.5439 H         1 UNK         0.0600 
    151 H151        1.7227  -22.0853  -41.1236 H         1 UNK         0.0600 
    152 H152        1.6321  -20.3772  -40.7249 H         1 UNK         0.0600 
    153 H153        2.4149  -20.8937  -42.2174 H         1 UNK         0.0600 
    154 H154        0.8484  -19.0189  -42.7425 H         1 UNK         0.3000 
    155 H155       -1.8811  -17.7038  -44.6988 H         1 UNK         0.0600 
    156 H156       -0.3475  -16.7184  -42.2356 H         1 UNK         0.0600 
    157 H157       -2.0975  -16.8202  -42.3817 H         1 UNK         0.0600 
    158 H158       -1.1983  -15.7031  -43.3985 H         1 UNK         0.0600 
    159 H159        0.7916  -16.8034  -44.4893 H         1 UNK         0.3000 
    160 H160        2.1911  -18.7937  -47.1276 H         1 UNK         0.0600 
    161 H161        2.8677  -16.4866  -47.7757 H         1 UNK         0.0600 
    162 H162        1.6122  -15.8044  -46.7437 H         1 UNK         0.0600 
    163 H163        1.1739  -16.7670  -48.1376 H         1 UNK         0.0600 
    164 H164        3.2520  -16.9102  -45.2128 H         1 UNK         0.3000 
    165 H165        4.3253  -19.3191  -42.8171 H         1 UNK         0.0600 
    166 H166        6.5285  -18.3000  -43.3149 H         1 UNK         0.0600 
    167 H167        6.0707  -19.4016  -44.6039 H         1 UNK         0.0600 
    168 H168        5.9244  -17.6647  -44.8456 H         1 UNK         0.0600 
    169 H169        4.7015  -16.4917  -43.0373 H         1 UNK         0.3000 
    170 H170        1.6788  -15.4823  -41.4576 H         1 UNK         0.0600 
    171 H171        3.1449  -16.1568  -39.5483 H         1 UNK         0.0600 
    172 H172        4.5496  -15.5004  -40.3803 H         1 UNK         0.0600 
    173 H173        3.2480  -14.4311  -39.8562 H         1 UNK         0.0600 
    174 H174        3.9272  -13.9713  -42.2502 H         1 UNK         0.3000 
    175 H175        3.4648  -12.4244  -44.0033 H         1 UNK         0.0600 
    176 H176        4.6049  -14.6367  -45.7981 H         1 UNK         0.0600 
    177 H177        5.1744  -12.9699  -45.7368 H         1 UNK         0.0600 
    178 H178        5.3618  -14.0103  -44.3384 H         1 UNK         0.0600 
    179 H179        2.8407  -13.2635  -46.6795 H         1 UNK         0.3000 
    180 H180        0.8756  -12.3836  -43.7045 H         1 UNK         0.0600 
    181 H181        1.1862   -9.5727  -44.9258 H         1 UNK         0.0600 
    182 H182        2.4277  -10.3877  -43.9888 H         1 UNK         0.0600 
    183 H183        0.9195   -9.9274  -43.2211 H         1 UNK         0.0600 
    184 H184       -0.9488  -11.4285  -45.7201 H         1 UNK         0.3000 
    185 H185       -3.7407  -11.9891  -43.7287 H         1 UNK         0.0600 
    186 H186       -3.4734   -9.6468  -42.9357 H         1 UNK         0.0600 
    187 H187       -2.9506   -9.1390  -44.5368 H         1 UNK         0.0600 
    188 H188       -4.5969   -9.7207  -44.2831 H         1 UNK         0.0600 
    189 H189       -3.2476  -10.7643  -46.3362 H         1 UNK         0.3000 
    190 H190       -2.8833  -21.5175  -43.9559 H         1 UNK         0.3000 
    191 H191       -5.2911  -22.8062  -43.2365 H         1 UNK         0.0600 
    192 H192       -4.2920  -22.8637  -40.9618 H         1 UNK         0.0600 
    193 H193       -4.0052  -21.3075  -41.7264 H         1 UNK         0.0600 
    194 H194       -2.7058  -22.4929  -41.6224 H         1 UNK         0.0600 
    195 H195       -2.0756  -24.1658  -43.8566 H         1 UNK         0.3000 
    196 H196       -2.7227  -26.8870  -43.1364 H         1 UNK         0.0600 
    197 H197       -0.5162  -27.3685  -44.1371 H         1 UNK         0.0600 
    198 H198       -0.3985  -25.9444  -43.1171 H         1 UNK         0.0600 
    199 H199       -0.4577  -25.7734  -44.8712 H         1 UNK         0.0600 
    200 H200       -3.9544  -25.0802  -45.6325 H         1 UNK         0.3000 
    201 H201       -5.1666  -25.4629  -47.3988 H         1 UNK         0.0600 
    202 H202       -6.1557  -27.3658  -46.0986 H         1 UNK         0.0600 
    203 H203       -5.0158  -28.4701  -46.8685 H         1 UNK         0.0600 
    204 H204       -6.2123  -27.6220  -47.8338 H         1 UNK         0.0600 
    205 H205       -2.2075  -25.3339  -47.6099 H         1 UNK         0.3000 
    206 H206       -1.7027  -26.7003  -50.1983 H         1 UNK         0.0600 
    207 H207        0.0512  -26.6991  -48.3786 H         1 UNK         0.0600 
    208 H208        0.5953  -25.9603  -49.8752 H         1 UNK         0.0600 
    209 H209        0.1549  -24.9454  -48.5130 H         1 UNK         0.0600 
    210 H210       -3.3851  -24.0385  -49.3346 H         1 UNK         0.3000 
    211 H211       -4.0208  -22.0841  -50.2223 H         1 UNK         0.0600 
    212 H212       -3.0795  -23.3181  -52.8686 H         1 UNK         0.0600 
    213 H213       -4.2010  -21.9775  -52.6977 H         1 UNK         0.0600 
    214 H214       -4.6535  -23.5706  -52.1195 H         1 UNK         0.0600 
    215 H215       -1.6394  -21.9218  -48.9683 H         1 UNK         0.3000 
    216 H216        0.1822  -20.7409  -48.5724 H         1 UNK         0.0600 
    217 H217        0.3923  -18.4374  -49.5403 H         1 UNK         0.0600 
    218 H218       -1.1809  -18.7643  -48.8419 H         1 UNK         0.0600 
    219 H219       -0.9812  -18.7735  -50.5843 H         1 UNK         0.0600 
    220 H220        0.4462  -22.8864  -50.2848 H         1 UNK         0.3000 
    221 H221        1.8574  -24.0186  -51.5363 H         1 UNK         0.0600 
    222 H222        3.7902  -21.6412  -51.4844 H         1 UNK         0.0600 
    223 H223        3.7286  -22.9281  -50.2807 H         1 UNK         0.0600 
    224 H224        4.1657  -23.2941  -51.9423 H         1 UNK         0.0600 
    225 H225       -0.2549  -23.1018  -52.6726 H         1 UNK         0.3000 
    226 H226       -1.3879  -22.6052  -54.5005 H         1 UNK         0.0600 
    227 H227       -0.4785  -23.3938  -56.6661 H         1 UNK         0.0600 
    228 H228        1.1457  -23.4640  -55.9954 H         1 UNK         0.0600 
    229 H229       -0.1101  -24.5437  -55.3910 H         1 UNK         0.0600 
    230 H230       -0.9106  -20.3436  -53.4216 H         1 UNK         0.3000 
    231 H231        0.5251  -18.4046  -55.0596 H         1 UNK         0.0600 
    232 H232        0.3810  -18.2056  -52.5823 H         1 UNK         0.0600 
    233 H233       -1.3754  -18.0566  -52.6908 H         1 UNK         0.0600 
    234 H234       -0.3378  -16.8069  -53.3663 H         1 UNK         0.0600 
    235 H235       -0.8188  -19.3522  -56.9277 H         1 UNK         0.3000 
    236 H236       -2.0857  -19.0145  -58.6886 H         1 UNK         0.0600 
    237 H237       -1.6956  -16.5645  -58.4461 H         1 UNK         0.0600 
    238 H238       -3.2807  -16.9078  -59.1214 H         1 UNK         0.0600 
    239 H239       -3.1376  -16.4229  -57.4404 H         1 UNK         0.0600 
    240 H240       -3.8205  -18.6454  -55.6261 H         1 UNK         0.3000 
    241 H241       -6.3472  -19.6260  -56.6389 H         1 UNK         0.0600 
    242 H242       -4.3188  -22.9665  -55.8115 H         1 UNK         0.3800 
    243 H243       -3.5281  -21.4418  -56.1308 H         1 UNK         0.3800 
    244 H244       -6.4038  -18.0719  -54.8213 H         1 UNK         0.0800 
    245 H245       -7.0801  -19.5711  -54.2682 H         1 UNK         0.0800 
    246 H246       -6.1353  -17.0785  -52.5756 H         1 UNK         0.0800 
    247 H247       -4.5948  -16.7485  -53.3411 H         1 UNK         0.0800 
@<TRIPOS>BOND
     1    1    2 1    
     2    1  127 1    
     3    1  128 1    
     4    1  129 1    
     5    2    3 2    
     6    2    4 am   BACKBONE|DICT|INTERRES
     7    4    5 1    
     8    4  130 1    
     9    5    6 1    
    10    5   65 1    
    11    5  131 1    
    12    6    7 1    
    13    6  132 1    
    14    6  133 1    
    15    7    8 1    
    16    8    9 1    
    17    8  134 1    
    18    8  135 1    
    19    9   10 ar   
    20    9   14 ar   
    21   10   11 ar   
    22   10  136 1    
    23   11   12 ar   
    24   11  126 1    
    25   12   13 ar   
    26   12  137 1    
    27   13   14 ar   
    28   13   15 1    
    29   14  138 1    
    30   15   16 1    
    31   15  139 1    
    32   15  140 1    
    33   16   17 1    
    34   17   18 1    
    35   17  141 1    
    36   17  142 1    
    37   18   19 1    
    38   18   67 1    
    39   18  143 1    
    40   19   20 am   BACKBONE|DICT|INTERRES
    41   19  144 1    
    42   20   21 2    
    43   20   22 1    
    44   22   23 1    
    45   22   24 1    
    46   22  145 1    
    47   23  146 1    
    48   23  147 1    
    49   23  148 1    
    50   24   25 am   BACKBONE|DICT|INTERRES
    51   24  149 1    
    52   25   26 2    
    53   25   27 1    
    54   27   28 1    
    55   27   29 1    
    56   27  150 1    
    57   28  151 1    
    58   28  152 1    
    59   28  153 1    
    60   29   30 am   BACKBONE|DICT|INTERRES
    61   29  154 1    
    62   30   31 2    
    63   30   32 1    
    64   32   33 1    
    65   32   34 1    
    66   32  155 1    
    67   33  156 1    
    68   33  157 1    
    69   33  158 1    
    70   34   35 am   BACKBONE|DICT|INTERRES
    71   34  159 1    
    72   35   36 2    
    73   35   37 1    
    74   37   38 1    
    75   37   39 1    
    76   37  160 1    
    77   38  161 1    
    78   38  162 1    
    79   38  163 1    
    80   39   40 am   BACKBONE|DICT|INTERRES
    81   39  164 1    
    82   40   41 2    
    83   40   42 1    
    84   42   43 1    
    85   42   44 1    
    86   42  165 1    
    87   43  166 1    
    88   43  167 1    
    89   43  168 1    
    90   44   45 am   BACKBONE|DICT|INTERRES
    91   44  169 1    
    92   45   46 2    
    93   45   47 1    
    94   47   48 1    
    95   47   49 1    
    96   47  170 1    
    97   48  171 1    
    98   48  172 1    
    99   48  173 1    
   100   49   50 am   BACKBONE|DICT|INTERRES
   101   49  174 1    
   102   50   51 2    
   103   50   52 1    
   104   52   53 1    
   105   52   54 1    
   106   52  175 1    
   107   53  176 1    
   108   53  177 1    
   109   53  178 1    
   110   54   55 am   BACKBONE|DICT|INTERRES
   111   54  179 1    
   112   55   56 2    
   113   55   57 1    
   114   57   58 1    
   115   57   59 1    
   116   57  180 1    
   117   58  181 1    
   118   58  182 1    
   119   58  183 1    
   120   59   60 am   BACKBONE|DICT|INTERRES
   121   59  184 1    
   122   60   61 2    
   123   60   62 1    
   124   62   63 1    
   125   62   64 1    
   126   62  185 1    
   127   63  186 1    
   128   63  187 1    
   129   63  188 1    
   130   64   65 am   BACKBONE|DICT|INTERRES
   131   64  189 1    
   132   65   66 2    
   133   67   68 2    
   134   67   69 am   BACKBONE|DICT|INTERRES
   135   69   70 1    
   136   69  190 1    
   137   70   71 1    
   138   70   72 1    
   139   70  191 1    
   140   71  192 1    
   141   71  193 1    
   142   71  194 1    
   143   72   73 2    
   144   72   74 am   BACKBONE|DICT|INTERRES
   145   74   75 1    
   146   74  195 1    
   147   75   76 1    
   148   75   77 1    
   149   75  196 1    
   150   76  197 1    
   151   76  198 1    
   152   76  199 1    
   153   77   78 2    
   154   77   79 am   BACKBONE|DICT|INTERRES
   155   79   80 1    
   156   79  200 1    
   157   80   81 1    
   158   80   82 1    
   159   80  201 1    
   160   81  202 1    
   161   81  203 1    
   162   81  204 1    
   163   82   83 2    
   164   82   84 am   BACKBONE|DICT|INTERRES
   165   84   85 1    
   166   84  205 1    
   167   85   86 1    
   168   85   87 1    
   169   85  206 1    
   170   86  207 1    
   171   86  208 1    
   172   86  209 1    
   173   87   88 2    
   174   87   89 am   BACKBONE|DICT|INTERRES
   175   89   90 1    
   176   89  210 1    
   177   90   91 1    
   178   90   92 1    
   179   90  211 1    
   180   91  212 1    
   181   91  213 1    
   182   91  214 1    
   183   92   93 2    
   184   92   94 am   BACKBONE|DICT|INTERRES
   185   94   95 1    
   186   94  215 1    
   187   95   96 1    
   188   95   97 1    
   189   95  216 1    
   190   96  217 1    
   191   96  218 1    
   192   96  219 1    
   193   97   98 2    
   194   97   99 am   BACKBONE|DICT|INTERRES
   195   99  100 1    
   196   99  220 1    
   197  100  101 1    
   198  100  102 1    
   199  100  221 1    
   200  101  222 1    
   201  101  223 1    
   202  101  224 1    
   203  102  103 2    
   204  102  104 am   BACKBONE|DICT|INTERRES
   205  104  105 1    
   206  104  225 1    
   207  105  106 1    
   208  105  107 1    
   209  105  226 1    
   210  106  227 1    
   211  106  228 1    
   212  106  229 1    
   213  107  108 2    
   214  107  109 am   BACKBONE|DICT|INTERRES
   215  109  110 1    
   216  109  230 1    
   217  110  111 1    
   218  110  112 1    
   219  110  231 1    
   220  111  232 1    
   221  111  233 1    
   222  111  234 1    
   223  112  113 2    
   224  112  114 am   BACKBONE|DICT|INTERRES
   225  114  115 1    
   226  114  235 1    
   227  115  116 1    
   228  115  117 1    
   229  115  236 1    
   230  116  237 1    
   231  116  238 1    
   232  116  239 1    
   233  117  118 2    
   234  117  119 am   BACKBONE|DICT|INTERRES
   235  119  120 1    
   236  119  240 1    
   237  120  121 1    
   238  120  124 1    
   239  120  241 1    
   240  121  122 am   BACKBONE|DICT|INTERRES
   241  121  123 2    
   242  122  242 1    
   243  122  243 1    
   244  124  125 1    
   245  124  244 1    
   246  124  245 1    
   247  125  126 1    
   248  126  246 1    
   249  126  247 1    
@<TRIPOS>SUBSTRUCTURE
     1 UNK         1 GROUP             0       ****    0 ROOT    
