@<TRIPOS>MOLECULE
3R540
247   249    1
SMALL
USER_CHARGES


@<TRIPOS>ATOM
      1 CA         -4.3254  -16.8196  -42.5273 C.3       0 UNK        -0.1800 
      2 C          -4.1438  -15.9780  -43.7831 C.2       0 UNK         0.5000 
      3 O          -5.1134  -15.4158  -44.2920 O.2       0 UNK        -0.5000 
      4 N          -2.9070  -15.8970  -44.2851 N.am      1 UNK        -0.5000 
      5 CA         -2.5273  -15.0915  -45.4464 C.3       1 UNK         0.1400 
      6 C6         -1.2666  -15.6802  -46.1227 C.3       23 UNK        -0.0398 
      7 S7         -1.0409  -15.1327  -47.8486 S.3       23 UNK        -0.2404 
      8 C8         -1.9646  -16.4143  -48.7569 C.3       23 UNK        -0.0205 
      9 C9         -1.0889  -17.1450  -49.7619 C.ar      23 UNK        -0.0193 
     10 C10        -1.1381  -16.7911  -51.1129 C.ar      23 UNK        -0.1150 
     11 C11        -0.3764  -17.4825  -52.0578 C.ar      23 UNK        -0.0193 
     12 C12         0.4361  -18.5410  -51.6424 C.ar      23 UNK        -0.1150 
     13 C13         0.5088  -18.8962  -50.2914 C.ar      23 UNK        -0.0193 
     14 C14        -0.2525  -18.1897  -49.3527 C.ar      23 UNK        -0.1150 
     15 C15         1.4357  -20.0211  -49.8529 C.3       23 UNK        -0.0205 
     16 S16         0.5279  -21.5490  -49.4386 S.3       23 UNK        -0.2404 
     17 C17         0.7380  -21.5474  -47.6286 C.3       23 UNK        -0.0398 
     18 CA         -0.2442  -22.4225  -46.8143 C.3       11 UNK         0.1400 
     19 N           0.0854  -22.3544  -45.3867 N.am      11 UNK        -0.5000 
     20 C          -0.5045  -23.0491  -44.4041 C.2       10 UNK         0.5000 
     21 O          -1.3773  -23.8954  -44.5902 O.2       10 UNK        -0.5000 
     22 CA         -0.0875  -22.6939  -42.9643 C.3       10 UNK         0.1400 
     23 CB          1.2459  -23.3608  -42.5962 C.3       10 UNK        -0.1800 
     24 N           0.0046  -21.2476  -42.7513 N.am      10 UNK        -0.5000 
     25 C          -1.0368  -20.4067  -42.8334 C.2       9 UNK         0.5000 
     26 O          -2.1945  -20.7739  -43.0277 O.2       9 UNK        -0.5000 
     27 CA         -0.7339  -18.8999  -42.7473 C.3       9 UNK         0.1400 
     28 CB         -0.5974  -18.4404  -41.2891 C.3       9 UNK        -0.1800 
     29 N           0.4609  -18.5204  -43.5006 N.am      9 UNK        -0.5000 
     30 C           0.5920  -18.6432  -44.8279 C.2       8 UNK         0.5000 
     31 O          -0.3165  -19.0226  -45.5636 O.2       8 UNK        -0.5000 
     32 CA          1.9777  -18.3466  -45.4277 C.3       8 UNK         0.1400 
     33 CB          2.1833  -16.8449  -45.6687 C.3       8 UNK        -0.1800 
     34 N           3.0514  -18.8657  -44.5835 N.am      8 UNK        -0.5000 
     35 C           3.3219  -20.1695  -44.4317 C.2       7 UNK         0.5000 
     36 O           2.7097  -21.0652  -45.0132 O.2       7 UNK        -0.5000 
     37 CA          4.4353  -20.5309  -43.4324 C.3       7 UNK         0.1400 
     38 CB          5.8137  -20.4459  -44.1040 C.3       7 UNK        -0.1800 
     39 N           4.4187  -19.6743  -42.2456 N.am      7 UNK        -0.5000 
     40 C           3.4446  -19.6819  -41.3248 C.2       6 UNK         0.5000 
     41 O           2.4746  -20.4386  -41.3625 O.2       6 UNK        -0.5000 
     42 CA          3.5479  -18.6294  -40.2050 C.3       6 UNK         0.1400 
     43 CB          4.4613  -19.1283  -39.0754 C.3       6 UNK        -0.1800 
     44 N           4.0202  -17.3221  -40.6753 N.am      6 UNK        -0.5000 
     45 C           3.3768  -16.5651  -41.5734 C.2       5 UNK         0.5000 
     46 O           2.3437  -16.9175  -42.1456 O.2       5 UNK        -0.5000 
     47 CA          4.0158  -15.2138  -41.9338 C.3       5 UNK         0.1400 
     48 CB          4.9705  -15.3751  -43.1267 C.3       5 UNK        -0.1800 
     49 N           2.9897  -14.2312  -42.2793 N.am      5 UNK        -0.5000 
     50 C           2.1930  -13.6169  -41.3958 C.2       4 UNK         0.5000 
     51 O           2.3061  -13.7632  -40.1772 O.2       4 UNK        -0.5000 
     52 CA          1.0667  -12.7095  -41.9415 C.3       4 UNK         0.1400 
     53 CB          1.0390  -11.3396  -41.2331 C.3       4 UNK        -0.1800 
     54 N           1.0314  -12.5368  -43.4010 N.am      4 UNK        -0.5000 
     55 C           1.9307  -11.9240  -44.1893 C.2       3 UNK         0.5000 
     56 O           3.0028  -11.4732  -43.7867 O.2       3 UNK        -0.5000 
     57 CA          1.5823  -11.8009  -45.6884 C.3       3 UNK         0.1400 
     58 CB          2.2673  -12.9221  -46.4858 C.3       3 UNK        -0.1800 
     59 N           0.1447  -11.8444  -45.9620 N.am      3 UNK        -0.5000 
     60 C          -0.7504  -10.9231  -45.5745 C.2       2 UNK         0.5000 
     61 O          -0.4452   -9.8602  -45.0330 O.2       2 UNK        -0.5000 
     62 CA         -2.2407  -11.2589  -45.8010 C.3       2 UNK         0.1400 
     63 CB         -2.7767  -10.5174  -47.0351 C.3       2 UNK        -0.1800 
     64 N          -2.5132  -12.6932  -45.9543 N.am      2 UNK        -0.5000 
     65 C          -2.2899  -13.6292  -45.0215 C.2       1 UNK         0.5000 
     66 O          -1.8368  -13.3820  -43.9006 O.2       1 UNK        -0.5000 
     67 C          -1.7229  -22.0636  -47.0796 C.2       11 UNK         0.5000 
     68 O          -2.3988  -22.7950  -47.8058 O.2       11 UNK        -0.5000 
     69 N          -2.2009  -20.9790  -46.4515 N.am      12 UNK        -0.5000 
     70 CA         -3.5897  -20.5220  -46.4900 C.3       12 UNK         0.1400 
     71 CB         -3.7001  -19.1436  -45.8208 C.3       12 UNK        -0.1800 
     72 C          -4.5672  -21.5183  -45.8447 C.2       12 UNK         0.5000 
     73 O          -5.6112  -21.8026  -46.4310 O.2       12 UNK        -0.5000 
     74 N          -4.2066  -22.0409  -44.6641 N.am      13 UNK        -0.5000 
     75 CA         -4.9926  -23.0197  -43.9103 C.3       13 UNK         0.1400 
     76 CB         -4.3808  -23.2045  -42.5134 C.3       13 UNK        -0.1800 
     77 C          -5.1199  -24.3725  -44.6334 C.2       13 UNK         0.5000 
     78 O          -6.2052  -24.9546  -44.6475 O.2       13 UNK        -0.5000 
     79 N          -4.0179  -24.8358  -45.2377 N.am      14 UNK        -0.5000 
     80 CA         -3.9694  -26.0492  -46.0538 C.3       14 UNK         0.1400 
     81 CB         -2.5021  -26.4718  -46.2292 C.3       14 UNK        -0.1800 
     82 C          -4.6327  -25.8774  -47.4334 C.2       14 UNK         0.5000 
     83 O          -5.0460  -26.8748  -48.0257 O.2       14 UNK        -0.5000 
     84 N          -4.6875  -24.6290  -47.9235 N.am      15 UNK        -0.5000 
     85 CA         -5.0604  -24.2143  -49.2794 C.3       15 UNK         0.1400 
     86 CB         -6.5559  -24.4748  -49.5523 C.3       15 UNK        -0.1800 
     87 C          -4.1192  -24.8474  -50.3250 C.2       15 UNK         0.5000 
     88 O          -4.5800  -25.4650  -51.2862 O.2       15 UNK        -0.5000 
     89 N          -2.8094  -24.7342  -50.0579 N.am      16 UNK        -0.5000 
     90 CA         -1.7246  -25.3394  -50.8294 C.3       16 UNK         0.1400 
     91 CB         -0.4699  -25.4204  -49.9385 C.3       16 UNK        -0.1800 
     92 C          -1.5006  -24.5796  -52.1509 C.2       16 UNK         0.5000 
     93 O          -2.2096  -24.8321  -53.1255 O.2       16 UNK        -0.5000 
     94 N          -0.5413  -23.6434  -52.1669 N.am      17 UNK        -0.5000 
     95 CA         -0.3720  -22.6859  -53.2647 C.3       17 UNK         0.1400 
     96 CB          1.0498  -22.1091  -53.2400 C.3       17 UNK        -0.1800 
     97 C          -1.4316  -21.5676  -53.2136 C.2       17 UNK         0.5000 
     98 O          -1.7241  -20.9667  -54.2463 O.2       17 UNK        -0.5000 
     99 N          -2.0197  -21.3470  -52.0281 N.am      18 UNK        -0.5000 
    100 CA        -3.1549  -20.4659  -51.7603 C.3       18 UNK         0.1400 
    101 CB        -3.2447  -20.2502  -50.2414 C.3       18 UNK        -0.1800 
    102 C         -4.4638  -21.0478  -52.3365 C.2       18 UNK         0.5000 
    103 O         -5.3651  -21.4301  -51.5877 O.2       18 UNK        -0.5000 
    104 N         -4.5215  -21.1381  -53.6649 N.am      19 UNK        -0.5000 
    105 CA        -5.6114  -21.6944  -54.4536 C.3       19 UNK         0.1400 
    106 CB        -5.5151  -23.2354  -54.4653 C.3       19 UNK        -0.1800 
    107 C         -5.5619  -21.0517  -55.8504 C.2       19 UNK         0.5000 
    108 O         -5.1694  -19.8884  -55.9698 O.2       19 UNK        -0.5000 
    109 N         -5.9259  -21.8080  -56.8947 N.am      20 UNK        -0.5000 
    110 CA        -5.9857  -21.3701  -58.2963 C.3       20 UNK         0.1400 
    111 CB        -6.5347  -22.5251  -59.1486 C.3       20 UNK        -0.1800 
    112 C         -4.6538  -20.8528  -58.8845 C.2       20 UNK         0.5000 
    113 O         -4.6731  -20.1622  -59.9041 O.2       20 UNK        -0.5000 
    114 N         -3.5292  -21.1767  -58.2320 N.am      21 UNK        -0.5000 
    115 CA        -2.1919  -20.6878  -58.5630 C.3       21 UNK         0.1400 
    116 CB        -1.1509  -21.5520  -57.8349 C.3       21 UNK        -0.1800 
    117 C         -1.9741  -19.1903  -58.2540 C.2       21 UNK         0.5000 
    118 O         -1.0490  -18.6057  -58.8209 O.2       21 UNK        -0.5000 
    119 N         -2.8053  -18.5862  -57.3915 N.am      22 UNK        -0.5000 
    120 CA        -2.7315  -17.1531  -57.0540 C.3       22 UNK         0.1400 
    121 C         -4.0903  -16.4664  -56.7372 C.2       22 UNK         0.5000 
    122 N         -5.1839  -17.1833  -56.5159 N.am      22 UNK        -0.7600 
    123 O         -4.1634  -15.2403  -56.7246 O.2       22 UNK        -0.5000 
    124 C124       -1.6382  -16.8344  -55.9993 C.3       23 UNK        -0.0398 
    125 S125       -1.9259  -17.5853  -54.3600 S.3       23 UNK        -0.2404 
    126 C126       -0.4038  -17.0565  -53.5179 C.3       23 UNK        -0.0205 
    127 H127       -4.9319  -16.2824  -41.7982 H         1 UNK         0.0600 
    128 H128       -4.8312  -17.7537  -42.7720 H         1 UNK         0.0600 
    129 H129       -3.3713  -17.0593  -42.0584 H         1 UNK         0.0600 
    130 H130       -2.1428  -16.3222  -43.7830 H         1 UNK         0.3000 
    131 H131       -3.3507  -15.1190  -46.1640 H         1 UNK         0.0600 
    132 H132       -1.3199  -16.7664  -46.1262 H         1 UNK         0.0800 
    133 H133       -0.3709  -15.4344  -45.5506 H         1 UNK         0.0800 
    134 H134       -2.8041  -15.9384  -49.2659 H         1 UNK         0.0800 
    135 H135       -2.4097  -17.1402  -48.0782 H         1 UNK         0.0800 
    136 H136       -1.7732  -15.9773  -51.4339 H         1 UNK         0.1150 
    137 H137        1.0268  -19.0766  -52.3717 H         1 UNK         0.1150 
    138 H138       -0.2080  -18.4609  -48.3073 H         1 UNK         0.1150 
    139 H139        2.1561  -20.2462  -50.6400 H         1 UNK         0.0800 
    140 H140        2.0353  -19.6841  -49.0064 H         1 UNK         0.0800 
    141 H141        1.7612  -21.8653  -47.4239 H         1 UNK         0.0800 
    142 H142        0.6728  -20.5173  -47.2901 H         1 UNK         0.0800 
    143 H143       -0.1048  -23.4603  -47.1233 H         1 UNK         0.0600 
    144 H144        0.8341  -21.7168  -45.1352 H         1 UNK         0.3000 
    145 H145       -0.8552  -23.0817  -42.2917 H         1 UNK         0.0600 
    146 H146        1.5069  -23.1695  -41.5552 H         1 UNK         0.0600 
    147 H147        1.1894  -24.4425  -42.7244 H         1 UNK         0.0600 
    148 H148        2.0654  -22.9988  -43.2170 H         1 UNK         0.0600 
    149 H149        0.9208  -20.8746  -42.5227 H         1 UNK         0.3000 
    150 H150       -1.5814  -18.3745  -43.1896 H         1 UNK         0.0600 
    151 H151       -1.4970  -18.6768  -40.7196 H         1 UNK         0.0600 
    152 H152       -0.4457  -17.3625  -41.2280 H         1 UNK         0.0600 
    153 H153        0.2432  -18.9241  -40.7917 H         1 UNK         0.0600 
    154 H154        1.2354  -18.1325  -42.9663 H         1 UNK         0.3000 
    155 H155        2.0422  -18.8456  -46.3962 H         1 UNK         0.0600 
    156 H156        3.1964  -16.6346  -46.0115 H         1 UNK         0.0600 
    157 H157        2.0018  -16.2554  -44.7695 H         1 UNK         0.0600 
    158 H158        1.5089  -16.4885  -46.4469 H         1 UNK         0.0600 
    159 H159        3.5604  -18.1961  -44.0271 H         1 UNK         0.3000 
    160 H160        4.2737  -21.5624  -43.1122 H         1 UNK         0.0600 
    161 H161        6.0448  -19.4299  -44.4267 H         1 UNK         0.0600 
    162 H162        5.8585  -21.0884  -44.9845 H         1 UNK         0.0600 
    163 H163        6.6030  -20.7707  -43.4259 H         1 UNK         0.0600 
    164 H164        5.1806  -19.0211  -42.1384 H         1 UNK         0.3000 
    165 H165        2.5459  -18.4903  -39.7938 H         1 UNK         0.0600 
    166 H166        5.4908  -19.2530  -39.4132 H         1 UNK         0.0600 
    167 H167        4.4649  -18.4335  -38.2353 H         1 UNK         0.0600 
    168 H168        4.1211  -20.0927  -38.6957 H         1 UNK         0.0600 
    169 H169        4.8705  -16.9732  -40.2565 H         1 UNK         0.3000 
    170 H170        4.5830  -14.8469  -41.0757 H         1 UNK         0.0600 
    171 H171        5.7656  -16.0866  -42.9002 H         1 UNK         0.0600 
    172 H172        4.4518  -15.7338  -44.0158 H         1 UNK         0.0600 
    173 H173        5.4469  -14.4274  -43.3787 H         1 UNK         0.0600 
    174 H174        2.8213  -14.0724  -43.2602 H         1 UNK         0.3000 
    175 H175        0.1361  -13.2210  -41.6911 H         1 UNK         0.0600 
    176 H176        0.2168  -10.7242  -41.5988 H         1 UNK         0.0600 
    177 H177        0.9012  -11.4558  -40.1575 H         1 UNK         0.0600 
    178 H178        1.9660  -10.7860  -41.3840 H         1 UNK         0.0600 
    179 H179        0.1709  -12.8580  -43.8307 H         1 UNK         0.3000 
    180 H180        1.9663  -10.8408  -46.0393 H         1 UNK         0.0600 
    181 H181        2.0992  -12.8044  -47.5565 H         1 UNK         0.0600 
    182 H182        3.3462  -12.9160  -46.3249 H         1 UNK         0.0600 
    183 H183        1.8972  -13.9057  -46.1958 H         1 UNK         0.0600 
    184 H184       -0.1993  -12.6674  -46.4342 H         1 UNK         0.3000 
    185 H185       -2.7885  -10.9082  -44.9240 H         1 UNK         0.0600 
    186 H186       -3.8482  -10.6769  -47.1575 H         1 UNK         0.0600 
    187 H187       -2.6187   -9.4418  -46.9449 H         1 UNK         0.0600 
    188 H188       -2.2804  -10.8466  -47.9489 H         1 UNK         0.0600 
    189 H189       -2.8578  -12.9826  -46.8588 H         1 UNK         0.3000 
    190 H190       -1.5534  -20.4040  -45.9191 H         1 UNK         0.3000 
    191 H191       -3.8761  -20.4094  -47.5352 H         1 UNK         0.0600 
    192 H192       -4.7143  -18.7504  -45.8987 H         1 UNK         0.0600 
    193 H193       -3.0352  -18.4236  -46.2921 H         1 UNK         0.0600 
    194 H194       -3.4453  -19.1835  -44.7623 H         1 UNK         0.0600 
    195 H195       -3.3522  -21.7104  -44.2230 H         1 UNK         0.3000 
    196 H196       -5.9990  -22.6142  -43.7876 H         1 UNK         0.0600 
    197 H197       -4.9573  -23.9191  -41.9248 H         1 UNK         0.0600 
    198 H198       -4.3677  -22.2643  -41.9619 H         1 UNK         0.0600 
    199 H199       -3.3563  -23.5736  -42.5687 H         1 UNK         0.0600 
    200 H200       -3.1423  -24.3305  -45.1220 H         1 UNK         0.3000 
    201 H201       -4.4961  -26.8465  -45.5255 H         1 UNK         0.0600 
    202 H202       -2.0272  -26.6578  -45.2657 H         1 UNK         0.0600 
    203 H203       -1.9233  -25.7038  -46.7446 H         1 UNK         0.0600 
    204 H204       -2.4245  -27.3895  -46.8135 H         1 UNK         0.0600 
    205 H205       -4.2762  -23.8966  -47.3587 H         1 UNK         0.3000 
    206 H206       -4.9009  -23.1363  -49.3270 H         1 UNK         0.0600 
    207 H207       -7.1802  -24.0030  -48.7935 H         1 UNK         0.0600 
    208 H208       -6.8486  -24.0605  -50.5179 H         1 UNK         0.0600 
    209 H209       -6.7907  -25.5392  -49.5676 H         1 UNK         0.0600 
    210 H210       -2.5439  -24.1853  -49.2458 H         1 UNK         0.3000 
    211 H211       -2.0113  -26.3601  -51.0909 H         1 UNK         0.0600 
    212 H212       -0.1893  -24.4498  -49.5308 H         1 UNK         0.0600 
    213 H213        0.3839  -25.8117  -50.4935 H         1 UNK         0.0600 
    214 H214       -0.6381  -26.0905  -49.0952 H         1 UNK         0.0600 
    215 H215        0.0226  -23.4970  -51.3416 H         1 UNK         0.3000 
    216 H216       -0.4982  -23.2098  -54.2148 H         1 UNK         0.0600 
    217 H217        1.1977  -21.4030  -54.0582 H         1 UNK         0.0600 
    218 H218        1.7963  -22.8958  -53.3493 H         1 UNK         0.0600 
    219 H219        1.2534  -21.5808  -52.3119 H         1 UNK         0.0600 
    220 H220       -1.7011  -21.8955  -51.2443 H         1 UNK         0.3000 
    221 H221       -2.9697  -19.5002  -52.2340 H         1 UNK         0.0600 
    222 H222       -3.4640  -21.1825  -49.7217 H         1 UNK         0.0600 
    223 H223       -2.3118  -19.8644  -49.8372 H         1 UNK         0.0600 
    224 H224       -4.0299  -19.5359  -49.9920 H         1 UNK         0.0600 
    225 H225       -3.7238  -20.8007  -54.1968 H         1 UNK         0.3000 
    226 H226       -6.5613  -21.4005  -54.0033 H         1 UNK         0.0600 
    227 H227       -6.3659  -23.6875  -54.9756 H         1 UNK         0.0600 
    228 H228       -4.6034  -23.5777  -54.9570 H         1 UNK         0.0600 
    229 H229       -5.5085  -23.6375  -53.4517 H         1 UNK         0.0600 
    230 H230       -6.2141  -22.7592  -56.7162 H         1 UNK         0.3000 
    231 H231       -6.6954  -20.5420  -58.3472 H         1 UNK         0.0600 
    232 H232       -6.6294  -22.2307  -60.1948 H         1 UNK         0.0600 
    233 H233       -7.5245  -22.8312  -58.8096 H         1 UNK         0.0600 
    234 H234       -5.8807  -23.3971  -59.1110 H         1 UNK         0.0600 
    235 H235       -3.6093  -21.7459  -57.4030 H         1 UNK         0.3000 
    236 H236       -2.0434  -20.8183  -59.6370 H         1 UNK         0.0600 
    237 H237       -1.2584  -21.4836  -56.7532 H         1 UNK         0.0600 
    238 H238       -1.2414  -22.6013  -58.1161 H         1 UNK         0.0600 
    239 H239       -0.1368  -21.2363  -58.0832 H         1 UNK         0.0600 
    240 H240       -3.5411  -19.1198  -56.9445 H         1 UNK         0.3000 
    241 H241       -2.4226  -16.6427  -57.9686 H         1 UNK         0.0600 
    242 H242       -6.0478  -16.6995  -56.3316 H         1 UNK         0.3800 
    243 H243       -5.1568  -18.1960  -56.4140 H         1 UNK         0.3800 
    244 H244       -1.5398  -15.7547  -55.8739 H         1 UNK         0.0800 
    245 H245       -0.6696  -17.1765  -56.3659 H         1 UNK         0.0800 
    246 H246        0.4579  -17.4639  -54.0490 H         1 UNK         0.0800 
    247 H247       -0.3167  -15.9705  -53.5761 H         1 UNK         0.0800 
@<TRIPOS>BOND
     1    1    2 1    
     2    1  127 1    
     3    1  128 1    
     4    1  129 1    
     5    2    3 2    
     6    2    4 am   BACKBONE|DICT|INTERRES
     7    4    5 1    
     8    4  130 1    
     9    5    6 1    
    10    5   65 1    
    11    5  131 1    
    12    6    7 1    
    13    6  132 1    
    14    6  133 1    
    15    7    8 1    
    16    8    9 1    
    17    8  134 1    
    18    8  135 1    
    19    9   10 ar   
    20    9   14 ar   
    21   10   11 ar   
    22   10  136 1    
    23   11   12 ar   
    24   11  126 1    
    25   12   13 ar   
    26   12  137 1    
    27   13   14 ar   
    28   13   15 1    
    29   14  138 1    
    30   15   16 1    
    31   15  139 1    
    32   15  140 1    
    33   16   17 1    
    34   17   18 1    
    35   17  141 1    
    36   17  142 1    
    37   18   19 1    
    38   18   67 1    
    39   18  143 1    
    40   19   20 am   BACKBONE|DICT|INTERRES
    41   19  144 1    
    42   20   21 2    
    43   20   22 1    
    44   22   23 1    
    45   22   24 1    
    46   22  145 1    
    47   23  146 1    
    48   23  147 1    
    49   23  148 1    
    50   24   25 am   BACKBONE|DICT|INTERRES
    51   24  149 1    
    52   25   26 2    
    53   25   27 1    
    54   27   28 1    
    55   27   29 1    
    56   27  150 1    
    57   28  151 1    
    58   28  152 1    
    59   28  153 1    
    60   29   30 am   BACKBONE|DICT|INTERRES
    61   29  154 1    
    62   30   31 2    
    63   30   32 1    
    64   32   33 1    
    65   32   34 1    
    66   32  155 1    
    67   33  156 1    
    68   33  157 1    
    69   33  158 1    
    70   34   35 am   BACKBONE|DICT|INTERRES
    71   34  159 1    
    72   35   36 2    
    73   35   37 1    
    74   37   38 1    
    75   37   39 1    
    76   37  160 1    
    77   38  161 1    
    78   38  162 1    
    79   38  163 1    
    80   39   40 am   BACKBONE|DICT|INTERRES
    81   39  164 1    
    82   40   41 2    
    83   40   42 1    
    84   42   43 1    
    85   42   44 1    
    86   42  165 1    
    87   43  166 1    
    88   43  167 1    
    89   43  168 1    
    90   44   45 am   BACKBONE|DICT|INTERRES
    91   44  169 1    
    92   45   46 2    
    93   45   47 1    
    94   47   48 1    
    95   47   49 1    
    96   47  170 1    
    97   48  171 1    
    98   48  172 1    
    99   48  173 1    
   100   49   50 am   BACKBONE|DICT|INTERRES
   101   49  174 1    
   102   50   51 2    
   103   50   52 1    
   104   52   53 1    
   105   52   54 1    
   106   52  175 1    
   107   53  176 1    
   108   53  177 1    
   109   53  178 1    
   110   54   55 am   BACKBONE|DICT|INTERRES
   111   54  179 1    
   112   55   56 2    
   113   55   57 1    
   114   57   58 1    
   115   57   59 1    
   116   57  180 1    
   117   58  181 1    
   118   58  182 1    
   119   58  183 1    
   120   59   60 am   BACKBONE|DICT|INTERRES
   121   59  184 1    
   122   60   61 2    
   123   60   62 1    
   124   62   63 1    
   125   62   64 1    
   126   62  185 1    
   127   63  186 1    
   128   63  187 1    
   129   63  188 1    
   130   64   65 am   BACKBONE|DICT|INTERRES
   131   64  189 1    
   132   65   66 2    
   133   67   68 2    
   134   67   69 am   BACKBONE|DICT|INTERRES
   135   69   70 1    
   136   69  190 1    
   137   70   71 1    
   138   70   72 1    
   139   70  191 1    
   140   71  192 1    
   141   71  193 1    
   142   71  194 1    
   143   72   73 2    
   144   72   74 am   BACKBONE|DICT|INTERRES
   145   74   75 1    
   146   74  195 1    
   147   75   76 1    
   148   75   77 1    
   149   75  196 1    
   150   76  197 1    
   151   76  198 1    
   152   76  199 1    
   153   77   78 2    
   154   77   79 am   BACKBONE|DICT|INTERRES
   155   79   80 1    
   156   79  200 1    
   157   80   81 1    
   158   80   82 1    
   159   80  201 1    
   160   81  202 1    
   161   81  203 1    
   162   81  204 1    
   163   82   83 2    
   164   82   84 am   BACKBONE|DICT|INTERRES
   165   84   85 1    
   166   84  205 1    
   167   85   86 1    
   168   85   87 1    
   169   85  206 1    
   170   86  207 1    
   171   86  208 1    
   172   86  209 1    
   173   87   88 2    
   174   87   89 am   BACKBONE|DICT|INTERRES
   175   89   90 1    
   176   89  210 1    
   177   90   91 1    
   178   90   92 1    
   179   90  211 1    
   180   91  212 1    
   181   91  213 1    
   182   91  214 1    
   183   92   93 2    
   184   92   94 am   BACKBONE|DICT|INTERRES
   185   94   95 1    
   186   94  215 1    
   187   95   96 1    
   188   95   97 1    
   189   95  216 1    
   190   96  217 1    
   191   96  218 1    
   192   96  219 1    
   193   97   98 2    
   194   97   99 am   BACKBONE|DICT|INTERRES
   195   99  100 1    
   196   99  220 1    
   197  100  101 1    
   198  100  102 1    
   199  100  221 1    
   200  101  222 1    
   201  101  223 1    
   202  101  224 1    
   203  102  103 2    
   204  102  104 am   BACKBONE|DICT|INTERRES
   205  104  105 1    
   206  104  225 1    
   207  105  106 1    
   208  105  107 1    
   209  105  226 1    
   210  106  227 1    
   211  106  228 1    
   212  106  229 1    
   213  107  108 2    
   214  107  109 am   BACKBONE|DICT|INTERRES
   215  109  110 1    
   216  109  230 1    
   217  110  111 1    
   218  110  112 1    
   219  110  231 1    
   220  111  232 1    
   221  111  233 1    
   222  111  234 1    
   223  112  113 2    
   224  112  114 am   BACKBONE|DICT|INTERRES
   225  114  115 1    
   226  114  235 1    
   227  115  116 1    
   228  115  117 1    
   229  115  236 1    
   230  116  237 1    
   231  116  238 1    
   232  116  239 1    
   233  117  118 2    
   234  117  119 am   BACKBONE|DICT|INTERRES
   235  119  120 1    
   236  119  240 1    
   237  120  121 1    
   238  120  124 1    
   239  120  241 1    
   240  121  122 am   BACKBONE|DICT|INTERRES
   241  121  123 2    
   242  122  242 1    
   243  122  243 1    
   244  124  125 1    
   245  124  244 1    
   246  124  245 1    
   247  125  126 1    
   248  126  246 1    
   249  126  247 1    
@<TRIPOS>SUBSTRUCTURE
     1 UNK         1 GROUP             0       ****    0 ROOT    
