@<TRIPOS>MOLECULE
3R540
247   249    1
SMALL
USER_CHARGES


@<TRIPOS>ATOM
      1 CA         -1.5177  -13.0736  -48.6854 C.3       0 UNK        -0.1800 
      2 C          -0.2787  -12.2644  -49.0377 C.2       0 UNK         0.5000 
      3 O          -0.3817  -11.0603  -49.2675 O.2       0 UNK        -0.5000 
      4 N           0.8904  -12.9195  -49.0680 N.am      1 UNK        -0.5000 
      5 CA          2.1956  -12.3247  -49.4030 C.3       1 UNK         0.1400 
      6 C6          3.3112  -13.3897  -49.5846 C.3       23 UNK        -0.0398 
      7 S7          2.8141  -14.7968  -50.6389 S.3       23 UNK        -0.2404 
      8 C8          2.3400  -16.0214  -49.3703 C.3       23 UNK        -0.0205 
      9 C9          1.2460  -16.9620  -49.8549 C.ar      23 UNK        -0.0193 
     10 C10         0.0122  -16.4506  -50.2673 C.ar      23 UNK        -0.1150 
     11 C11        -1.0105  -17.3036  -50.6859 C.ar      23 UNK        -0.0193 
     12 C12        -0.8012  -18.6845  -50.6707 C.ar      23 UNK        -0.1150 
     13 C13         0.4296  -19.2140  -50.2677 C.ar      23 UNK        -0.0193 
     14 C14         1.4515  -18.3446  -49.8677 C.ar      23 UNK        -0.1150 
     15 C15         0.6491  -20.7238  -50.3008 C.3       23 UNK        -0.0205 
     16 S16         1.4199  -21.4002  -48.7937 S.3       23 UNK        -0.2404 
     17 C17         0.2546  -20.8775  -47.4941 C.3       23 UNK        -0.0398 
     18 CA         -0.4386  -22.0682  -46.7853 C.3       11 UNK         0.1400 
     19 N          -0.6159  -21.8020  -45.3564 N.am      11 UNK        -0.5000 
     20 C          -1.0687  -22.6774  -44.4496 C.2       10 UNK         0.5000 
     21 O          -1.3244  -23.8539  -44.6997 O.2       10 UNK        -0.5000 
     22 CA         -1.3349  -22.1228  -43.0400 C.3       10 UNK         0.1400 
     23 CB         -0.0574  -22.1508  -42.1886 C.3       10 UNK        -0.1800 
     24 N          -1.8697  -20.7604  -43.0957 N.am      10 UNK        -0.5000 
     25 C          -3.1152  -20.4634  -43.4939 C.2       9 UNK         0.5000 
     26 O          -3.9538  -21.3152  -43.7873 O.2       9 UNK        -0.5000 
     27 CA         -3.4699  -18.9692  -43.6251 C.3       9 UNK         0.1400 
     28 CB         -3.8919  -18.3915  -42.2661 C.3       9 UNK        -0.1800 
     29 N          -2.3709  -18.1693  -44.1696 N.am      9 UNK        -0.5000 
     30 C          -1.9077  -18.2670  -45.4240 C.2       8 UNK         0.5000 
     31 O          -2.3915  -19.0146  -46.2720 O.2       8 UNK        -0.5000 
     32 CA         -0.6588  -17.4343  -45.7742 C.3       8 UNK         0.1400 
     33 CB         -1.0595  -16.0655  -46.3399 C.3       8 UNK        -0.1800 
     34 N           0.2626  -17.2466  -44.6487 N.am      8 UNK        -0.5000 
     35 C           0.8770  -18.2418  -43.9891 C.2       7 UNK         0.5000 
     36 O           0.6695  -19.4337  -44.2218 O.2       7 UNK        -0.5000 
     37 CA          1.8703  -17.8293  -42.8832 C.3       7 UNK         0.1400 
     38 CB          2.7771  -18.9858  -42.4156 C.3       7 UNK        -0.1800 
     39 N           2.6650  -16.6591  -43.2604 N.am      7 UNK        -0.5000 
     40 C           3.5078  -16.5392  -44.2980 C.2       6 UNK         0.5000 
     41 O           3.8109  -17.4658  -45.0498 O.2       6 UNK        -0.5000 
     42 CA          4.0875  -15.1368  -44.5670 C.3       6 UNK         0.1400 
     43 CB          3.5744  -14.6062  -45.9132 C.3       6 UNK        -0.1800 
     44 N           3.7350  -14.1781  -43.5169 N.am      6 UNK        -0.5000 
     45 C           4.4764  -13.9351  -42.4271 C.2       5 UNK         0.5000 
     46 O           5.5987  -14.4068  -42.2434 O.2       5 UNK        -0.5000 
     47 CA          3.8423  -13.0470  -41.3386 C.3       5 UNK         0.1400 
     48 CB          4.3211  -11.5935  -41.4685 C.3       5 UNK        -0.1800 
     49 N           2.3757  -13.0929  -41.3531 N.am      5 UNK        -0.5000 
     50 C           1.6606  -14.1474  -40.9305 C.2       4 UNK         0.5000 
     51 O           2.1710  -15.1741  -40.4839 O.2       4 UNK        -0.5000 
     52 CA          0.1271  -14.0809  -41.0619 C.3       4 UNK         0.1400 
     53 CB         -0.5053  -13.6119  -39.7433 C.3       4 UNK        -0.1800 
     54 N          -0.3415  -13.2215  -42.1480 N.am      4 UNK        -0.5000 
     55 C          -0.1231  -13.4292  -43.4524 C.2       3 UNK         0.5000 
     56 O           0.5210  -14.3862  -43.8914 O.2       3 UNK        -0.5000 
     57 CA         -0.6903  -12.3823  -44.4368 C.3       3 UNK         0.1400 
     58 CB         -1.5417  -11.2780  -43.7714 C.3       3 UNK        -0.1800 
     59 N           0.3625  -11.7764  -45.2570 N.am      3 UNK        -0.5000 
     60 C           1.4883  -11.1811  -44.8277 C.2       2 UNK         0.5000 
     61 O           1.7712  -11.0374  -43.6376 O.2       2 UNK        -0.5000 
     62 CA          2.4721  -10.7132  -45.9187 C.3       2 UNK         0.1400 
     63 CB          3.9329  -10.6624  -45.4290 C.3       2 UNK        -0.1800 
     64 N           2.3478  -11.5863  -47.0846 N.am      2 UNK        -0.5000 
     65 C           2.6236  -11.2726  -48.3558 C.2       1 UNK         0.5000 
     66 O           3.1442  -10.2154  -48.7131 O.2       1 UNK        -0.5000 
     67 C          -1.7749  -22.4532  -47.4592 C.2       11 UNK         0.5000 
     68 O          -1.8346  -23.4519  -48.1759 O.2       11 UNK        -0.5000 
     69 N          -2.8377  -21.6931  -47.1567 N.am      12 UNK        -0.5000 
     70 CA         -4.2150  -21.9594  -47.5722 C.3       12 UNK         0.1400 
     71 CB         -5.1089  -20.7839  -47.1557 C.3       12 UNK        -0.1800 
     72 C          -4.7709  -23.2844  -47.0204 C.2       12 UNK         0.5000 
     73 O          -5.4390  -24.0083  -47.7582 O.2       12 UNK        -0.5000 
     74 N          -4.4696  -23.5890  -45.7494 N.am      13 UNK        -0.5000 
     75 CA         -4.8505  -24.8382  -45.0858 C.3       13 UNK         0.1400 
     76 CB         -4.5938  -24.7234  -43.5757 C.3       13 UNK        -0.1800 
     77 C          -4.1370  -26.0708  -45.6743 C.2       13 UNK         0.5000 
     78 O          -4.7686  -27.1165  -45.8323 O.2       13 UNK        -0.5000 
     79 N          -2.8473  -25.9222  -46.0108 N.am      14 UNK        -0.5000 
     80 CA         -2.0442  -26.9303  -46.7083 C.3       14 UNK         0.1400 
     81 CB         -0.5635  -26.5241  -46.6572 C.3       14 UNK        -0.1800 
     82 C          -2.4947  -27.1462  -48.1664 C.2       14 UNK         0.5000 
     83 O          -2.3773  -28.2593  -48.6814 O.2       14 UNK        -0.5000 
     84 N          -3.0064  -26.0781  -48.7931 N.am      15 UNK        -0.5000 
     85 CA         -3.5876  -25.9657  -50.1332 C.3       15 UNK         0.1400 
     86 CB         -4.7772  -26.9243  -50.3266 C.3       15 UNK        -0.1800 
     87 C          -2.5655  -26.0988  -51.2743 C.2       15 UNK         0.5000 
     88 O          -2.5458  -25.2531  -52.1711 O.2       15 UNK        -0.5000 
     89 N          -1.7582  -27.1685  -51.2445 N.am      16 UNK        -0.5000 
     90 CA         -0.6499  -27.5008  -52.1542 C.3       16 UNK         0.1400 
     91 CB          0.5064  -26.5030  -51.9363 C.3       16 UNK        -0.1800 
     92 C          -1.0272  -27.6066  -53.6519 C.2       16 UNK         0.5000 
     93 O          -0.1332  -27.6525  -54.4981 O.2       16 UNK        -0.5000 
     94 N          -2.3356  -27.6079  -53.9524 N.am      17 UNK        -0.5000 
     95 CA         -2.9547  -27.4318  -55.2707 C.3       17 UNK         0.1400 
     96 CB         -2.6868  -28.6575  -56.1690 C.3       17 UNK        -0.1800 
     97 C          -2.5731  -26.0916  -55.9459 C.2       17 UNK         0.5000 
     98 O          -2.5329  -26.0210  -57.1760 O.2       17 UNK        -0.5000 
     99 N          -2.2840  -25.0582  -55.1389 N.am      18 UNK        -0.5000 
    100 CA        -1.7424  -23.7793  -55.6065 C.3       18 UNK         0.1400 
    101 CB        -0.2059  -23.8601  -55.6252 C.3       18 UNK        -0.1800 
    102 C         -2.2053  -22.5661  -54.7819 C.2       18 UNK         0.5000 
    103 O         -2.1752  -21.4507  -55.3024 O.2       18 UNK        -0.5000 
    104 N         -2.6297  -22.7695  -53.5268 N.am      19 UNK        -0.5000 
    105 CA        -2.9726  -21.7024  -52.5801 C.3       19 UNK         0.1400 
    106 CB        -2.7871  -22.2304  -51.1504 C.3       19 UNK        -0.1800 
    107 C         -4.3912  -21.1226  -52.7555 C.2       19 UNK         0.5000 
    108 O         -4.8739  -20.4433  -51.8485 O.2       19 UNK        -0.5000 
    109 N         -5.0453  -21.3874  -53.8945 N.am      20 UNK        -0.5000 
    110 CA        -6.4301  -21.0163  -54.2134 C.3       20 UNK         0.1400 
    111 CB        -6.7718  -21.5526  -55.6121 C.3       20 UNK        -0.1800 
    112 C         -6.7530  -19.5089  -54.1209 C.2       20 UNK         0.5000 
    113 O         -7.9169  -19.1529  -53.9337 O.2       20 UNK        -0.5000 
    114 N         -5.7266  -18.6544  -54.2305 N.am      21 UNK        -0.5000 
    115 CA        -5.8180  -17.2078  -54.0251 C.3       21 UNK         0.1400 
    116 CB        -4.5454  -16.5480  -54.5793 C.3       21 UNK        -0.1800 
    117 C         -6.0368  -16.8048  -52.5503 C.2       21 UNK         0.5000 
    118 O         -6.5631  -15.7190  -52.3025 O.2       21 UNK        -0.5000 
    119 N         -5.6309  -17.6690  -51.6110 N.am      22 UNK        -0.5000 
    120 CA        -5.7649  -17.4781  -50.1573 C.3       22 UNK         0.1400 
    121 C         -6.7493  -18.4940  -49.5178 C.2       22 UNK         0.5000 
    122 N         -6.8816  -19.7076  -50.0385 N.am      22 UNK        -0.7600 
    123 O         -7.4180  -18.1689  -48.5409 O.2       22 UNK        -0.5000 
    124 C124       -4.3871  -17.5277  -49.4453 C.3       23 UNK        -0.0398 
    125 S125       -3.3624  -16.0775  -49.8596 S.3       23 UNK        -0.2404 
    126 C126       -2.3159  -16.7195  -51.2014 C.3       23 UNK        -0.0205 
    127 H127       -1.2812  -14.1224  -48.5130 H         1 UNK         0.0600 
    128 H128       -2.2430  -13.0213  -49.4973 H         1 UNK         0.0600 
    129 H129       -1.9850  -12.6778  -47.7839 H         1 UNK         0.0600 
    130 H130        0.8987  -13.9161  -48.9172 H         1 UNK         0.3000 
    131 H131        2.0740  -11.8050  -50.3559 H         1 UNK         0.0600 
    132 H132        4.1871  -12.9270  -50.0424 H         1 UNK         0.0800 
    133 H133        3.6542  -13.7753  -48.6249 H         1 UNK         0.0800 
    134 H134        3.2299  -16.5780  -49.0716 H         1 UNK         0.0800 
    135 H135        1.9779  -15.5223  -48.4716 H         1 UNK         0.0800 
    136 H136       -0.1512  -15.3832  -50.2820 H         1 UNK         0.1150 
    137 H137       -1.5926  -19.3440  -50.9942 H         1 UNK         0.1150 
    138 H138        2.4052  -18.7481  -49.5578 H         1 UNK         0.1150 
    139 H139       -0.2935  -21.2429  -50.4572 H         1 UNK         0.0800 
    140 H140        1.2798  -20.9659  -51.1569 H         1 UNK         0.0800 
    141 H141        0.8571  -20.3142  -46.7805 H         1 UNK         0.0800 
    142 H142       -0.4704  -20.1607  -47.8826 H         1 UNK         0.0800 
    143 H143        0.2156  -22.9408  -46.8455 H         1 UNK         0.0600 
    144 H144       -0.3680  -20.8721  -45.0325 H         1 UNK         0.3000 
    145 H145       -2.0750  -22.7644  -42.5575 H         1 UNK         0.0600 
    146 H146       -0.2352  -21.7449  -41.1927 H         1 UNK         0.0600 
    147 H147        0.3009  -23.1734  -42.0643 H         1 UNK         0.0600 
    148 H148        0.7484  -21.5791  -42.6477 H         1 UNK         0.0600 
    149 H149       -1.2139  -20.0096  -42.9354 H         1 UNK         0.3000 
    150 H150       -4.3182  -18.8887  -44.3083 H         1 UNK         0.0600 
    151 H151       -4.7239  -18.9568  -41.8439 H         1 UNK         0.0600 
    152 H152       -4.2200  -17.3564  -42.3626 H         1 UNK         0.0600 
    153 H153       -3.0755  -18.4195  -41.5434 H         1 UNK         0.0600 
    154 H154       -1.9126  -17.5293  -43.5385 H         1 UNK         0.3000 
    155 H155       -0.1158  -17.9713  -46.5542 H         1 UNK         0.0600 
    156 H156       -0.1835  -15.4944  -46.6475 H         1 UNK         0.0600 
    157 H157       -1.6088  -15.4726  -45.6082 H         1 UNK         0.0600 
    158 H158       -1.6981  -16.1823  -47.2164 H         1 UNK         0.0600 
    159 H159        0.4726  -16.2861  -44.3915 H         1 UNK         0.3000 
    160 H160        1.2642  -17.5223  -42.0300 H         1 UNK         0.0600 
    161 H161        3.3454  -19.4167  -43.2404 H         1 UNK         0.0600 
    162 H162        2.1876  -19.7873  -41.9706 H         1 UNK         0.0600 
    163 H163        3.4856  -18.6492  -41.6587 H         1 UNK         0.0600 
    164 H164        2.5063  -15.8353  -42.6978 H         1 UNK         0.3000 
    165 H165        5.1727  -15.2381  -44.6332 H         1 UNK         0.0600 
    166 H166        2.4944  -14.4558  -45.9032 H         1 UNK         0.0600 
    167 H167        4.0538  -13.6624  -46.1671 H         1 UNK         0.0600 
    168 H168        3.8033  -15.3059  -46.7176 H         1 UNK         0.0600 
    169 H169        2.8134  -13.7657  -43.5740 H         1 UNK         0.3000 
    170 H170        4.1835  -13.4222  -40.3713 H         1 UNK         0.0600 
    171 H171        5.4047  -11.5317  -41.3617 H         1 UNK         0.0600 
    172 H172        4.0672  -11.1671  -42.4376 H         1 UNK         0.0600 
    173 H173        3.8819  -10.9612  -40.6968 H         1 UNK         0.0600 
    174 H174        1.8992  -12.2986  -41.7641 H         1 UNK         0.3000 
    175 H175       -0.2253  -15.0942  -41.2667 H         1 UNK         0.0600 
    176 H176       -0.2120  -12.5905  -39.4976 H         1 UNK         0.0600 
    177 H177       -1.5938  -13.6469  -39.7928 H         1 UNK         0.0600 
    178 H178       -0.1988  -14.2503  -38.9135 H         1 UNK         0.0600 
    179 H179       -0.8560  -12.3963  -41.8766 H         1 UNK         0.3000 
    180 H180       -1.3387  -12.9333  -45.1192 H         1 UNK         0.0600 
    181 H181       -0.9587  -10.6675  -43.0807 H         1 UNK         0.0600 
    182 H182       -2.3830  -11.7015  -43.2211 H         1 UNK         0.0600 
    183 H183       -1.9609  -10.6087  -44.5229 H         1 UNK         0.0600 
    184 H184        0.2022  -11.8045  -46.2521 H         1 UNK         0.3000 
    185 H185        2.1660   -9.7047  -46.2037 H         1 UNK         0.0600 
    186 H186        4.6129  -10.3716  -46.2295 H         1 UNK         0.0600 
    187 H187        4.2639  -11.6251  -45.0404 H         1 UNK         0.0600 
    188 H188        4.0482   -9.9304  -44.6291 H         1 UNK         0.0600 
    189 H189        1.9294  -12.4861  -46.9016 H         1 UNK         0.3000 
    190 H190       -2.6915  -20.8468  -46.6124 H         1 UNK         0.3000 
    191 H191       -4.2317  -22.0231  -48.6604 H         1 UNK         0.0600 
    192 H192       -4.7617  -19.8523  -47.5995 H         1 UNK         0.0600 
    193 H193       -6.1372  -20.9395  -47.4830 H         1 UNK         0.0600 
    194 H194       -5.1276  -20.6498  -46.0748 H         1 UNK         0.0600 
    195 H195       -3.9659  -22.9097  -45.1909 H         1 UNK         0.3000 
    196 H196       -5.9237  -24.9770  -45.2328 H         1 UNK         0.0600 
    197 H197       -4.9309  -25.6205  -43.0551 H         1 UNK         0.0600 
    198 H198       -5.1306  -23.8770  -43.1468 H         1 UNK         0.0600 
    199 H199       -3.5348  -24.5961  -43.3536 H         1 UNK         0.0600 
    200 H200       -2.3787  -25.0527  -45.7707 H         1 UNK         0.3000 
    201 H201       -2.1571  -27.8799  -46.1813 H         1 UNK         0.0600 
    202 H202       -0.2163  -26.4297  -45.6281 H         1 UNK         0.0600 
    203 H203       -0.3898  -25.5703  -47.1565 H         1 UNK         0.0600 
    204 H204        0.0640  -27.2703  -47.1461 H         1 UNK         0.0600 
    205 H205       -2.9367  -25.1943  -48.2997 H         1 UNK         0.3000 
    206 H206       -3.9894  -24.9552  -50.1826 H         1 UNK         0.0600 
    207 H207       -5.5254  -26.7792  -49.5468 H         1 UNK         0.0600 
    208 H208       -5.2676  -26.7451  -51.2842 H         1 UNK         0.0600 
    209 H209       -4.4727  -27.9708  -50.3080 H         1 UNK         0.0600 
    210 H210       -1.8847  -27.8002  -50.4571 H         1 UNK         0.3000 
    211 H211       -0.2993  -28.4905  -51.8590 H         1 UNK         0.0600 
    212 H212        0.2383  -25.4979  -52.2642 H         1 UNK         0.0600 
    213 H213        1.3969  -26.8014  -52.4907 H         1 UNK         0.0600 
    214 H214        0.7861  -26.4476  -50.8841 H         1 UNK         0.0600 
    215 H215       -2.9728  -27.5697  -53.1702 H         1 UNK         0.3000 
    216 H216       -4.0303  -27.3819  -55.0960 H         1 UNK         0.0600 
    217 H217       -2.9647  -29.5834  -55.6656 H         1 UNK         0.0600 
    218 H218       -1.6365  -28.7315  -56.4519 H         1 UNK         0.0600 
    219 H219       -3.2693  -28.6035  -57.0894 H         1 UNK         0.0600 
    220 H220       -2.3464  -25.1946  -54.1352 H         1 UNK         0.3000 
    221 H221       -2.0871  -23.5922  -56.6257 H         1 UNK         0.0600 
    222 H222        0.1943  -24.0728  -54.6330 H         1 UNK         0.0600 
    223 H223        0.1402  -24.6442  -56.2990 H         1 UNK         0.0600 
    224 H224        0.2349  -22.9223  -55.9659 H         1 UNK         0.0600 
    225 H225       -2.6352  -23.7087  -53.1380 H         1 UNK         0.3000 
    226 H226       -2.2698  -20.8798  -52.7249 H         1 UNK         0.0600 
    227 H227       -1.8619  -22.7956  -51.0405 H         1 UNK         0.0600 
    228 H228       -2.7602  -21.4113  -50.4315 H         1 UNK         0.0600 
    229 H229       -3.6094  -22.8833  -50.8646 H         1 UNK         0.0600 
    230 H230       -4.5564  -21.9292  -54.5915 H         1 UNK         0.3000 
    231 H231       -7.0719  -21.5213  -53.4889 H         1 UNK         0.0600 
    232 H232       -7.8051  -21.3255  -55.8782 H         1 UNK         0.0600 
    233 H233       -6.6572  -22.6357  -55.6591 H         1 UNK         0.0600 
    234 H234       -6.1311  -21.1126  -56.3773 H         1 UNK         0.0600 
    235 H235       -4.8071  -19.0345  -54.4000 H         1 UNK         0.3000 
    236 H236       -6.6706  -16.8342  -54.5961 H         1 UNK         0.0600 
    237 H237       -4.4340  -16.7422  -55.6462 H         1 UNK         0.0600 
    238 H238       -4.5769  -15.4654  -54.4490 H         1 UNK         0.0600 
    239 H239       -3.6494  -16.9130  -54.0768 H         1 UNK         0.0600 
    240 H240       -5.2637  -18.5695  -51.8987 H         1 UNK         0.3000 
    241 H241       -6.1962  -16.4950  -49.9586 H         1 UNK         0.0600 
    242 H242       -7.5399  -20.3508  -49.6309 H         1 UNK         0.3800 
    243 H243       -6.2656  -20.0197  -50.7847 H         1 UNK         0.3800 
    244 H244       -3.8524  -18.4491  -49.6831 H         1 UNK         0.0800 
    245 H245       -4.5132  -17.5216  -48.3610 H         1 UNK         0.0800 
    246 H246       -2.0916  -15.9007  -51.8864 H         1 UNK         0.0800 
    247 H247       -2.8643  -17.4580  -51.7864 H         1 UNK         0.0800 
@<TRIPOS>BOND
     1    1    2 1    
     2    1  127 1    
     3    1  128 1    
     4    1  129 1    
     5    2    3 2    
     6    2    4 am   BACKBONE|DICT|INTERRES
     7    4    5 1    
     8    4  130 1    
     9    5    6 1    
    10    5   65 1    
    11    5  131 1    
    12    6    7 1    
    13    6  132 1    
    14    6  133 1    
    15    7    8 1    
    16    8    9 1    
    17    8  134 1    
    18    8  135 1    
    19    9   10 ar   
    20    9   14 ar   
    21   10   11 ar   
    22   10  136 1    
    23   11   12 ar   
    24   11  126 1    
    25   12   13 ar   
    26   12  137 1    
    27   13   14 ar   
    28   13   15 1    
    29   14  138 1    
    30   15   16 1    
    31   15  139 1    
    32   15  140 1    
    33   16   17 1    
    34   17   18 1    
    35   17  141 1    
    36   17  142 1    
    37   18   19 1    
    38   18   67 1    
    39   18  143 1    
    40   19   20 am   BACKBONE|DICT|INTERRES
    41   19  144 1    
    42   20   21 2    
    43   20   22 1    
    44   22   23 1    
    45   22   24 1    
    46   22  145 1    
    47   23  146 1    
    48   23  147 1    
    49   23  148 1    
    50   24   25 am   BACKBONE|DICT|INTERRES
    51   24  149 1    
    52   25   26 2    
    53   25   27 1    
    54   27   28 1    
    55   27   29 1    
    56   27  150 1    
    57   28  151 1    
    58   28  152 1    
    59   28  153 1    
    60   29   30 am   BACKBONE|DICT|INTERRES
    61   29  154 1    
    62   30   31 2    
    63   30   32 1    
    64   32   33 1    
    65   32   34 1    
    66   32  155 1    
    67   33  156 1    
    68   33  157 1    
    69   33  158 1    
    70   34   35 am   BACKBONE|DICT|INTERRES
    71   34  159 1    
    72   35   36 2    
    73   35   37 1    
    74   37   38 1    
    75   37   39 1    
    76   37  160 1    
    77   38  161 1    
    78   38  162 1    
    79   38  163 1    
    80   39   40 am   BACKBONE|DICT|INTERRES
    81   39  164 1    
    82   40   41 2    
    83   40   42 1    
    84   42   43 1    
    85   42   44 1    
    86   42  165 1    
    87   43  166 1    
    88   43  167 1    
    89   43  168 1    
    90   44   45 am   BACKBONE|DICT|INTERRES
    91   44  169 1    
    92   45   46 2    
    93   45   47 1    
    94   47   48 1    
    95   47   49 1    
    96   47  170 1    
    97   48  171 1    
    98   48  172 1    
    99   48  173 1    
   100   49   50 am   BACKBONE|DICT|INTERRES
   101   49  174 1    
   102   50   51 2    
   103   50   52 1    
   104   52   53 1    
   105   52   54 1    
   106   52  175 1    
   107   53  176 1    
   108   53  177 1    
   109   53  178 1    
   110   54   55 am   BACKBONE|DICT|INTERRES
   111   54  179 1    
   112   55   56 2    
   113   55   57 1    
   114   57   58 1    
   115   57   59 1    
   116   57  180 1    
   117   58  181 1    
   118   58  182 1    
   119   58  183 1    
   120   59   60 am   BACKBONE|DICT|INTERRES
   121   59  184 1    
   122   60   61 2    
   123   60   62 1    
   124   62   63 1    
   125   62   64 1    
   126   62  185 1    
   127   63  186 1    
   128   63  187 1    
   129   63  188 1    
   130   64   65 am   BACKBONE|DICT|INTERRES
   131   64  189 1    
   132   65   66 2    
   133   67   68 2    
   134   67   69 am   BACKBONE|DICT|INTERRES
   135   69   70 1    
   136   69  190 1    
   137   70   71 1    
   138   70   72 1    
   139   70  191 1    
   140   71  192 1    
   141   71  193 1    
   142   71  194 1    
   143   72   73 2    
   144   72   74 am   BACKBONE|DICT|INTERRES
   145   74   75 1    
   146   74  195 1    
   147   75   76 1    
   148   75   77 1    
   149   75  196 1    
   150   76  197 1    
   151   76  198 1    
   152   76  199 1    
   153   77   78 2    
   154   77   79 am   BACKBONE|DICT|INTERRES
   155   79   80 1    
   156   79  200 1    
   157   80   81 1    
   158   80   82 1    
   159   80  201 1    
   160   81  202 1    
   161   81  203 1    
   162   81  204 1    
   163   82   83 2    
   164   82   84 am   BACKBONE|DICT|INTERRES
   165   84   85 1    
   166   84  205 1    
   167   85   86 1    
   168   85   87 1    
   169   85  206 1    
   170   86  207 1    
   171   86  208 1    
   172   86  209 1    
   173   87   88 2    
   174   87   89 am   BACKBONE|DICT|INTERRES
   175   89   90 1    
   176   89  210 1    
   177   90   91 1    
   178   90   92 1    
   179   90  211 1    
   180   91  212 1    
   181   91  213 1    
   182   91  214 1    
   183   92   93 2    
   184   92   94 am   BACKBONE|DICT|INTERRES
   185   94   95 1    
   186   94  215 1    
   187   95   96 1    
   188   95   97 1    
   189   95  216 1    
   190   96  217 1    
   191   96  218 1    
   192   96  219 1    
   193   97   98 2    
   194   97   99 am   BACKBONE|DICT|INTERRES
   195   99  100 1    
   196   99  220 1    
   197  100  101 1    
   198  100  102 1    
   199  100  221 1    
   200  101  222 1    
   201  101  223 1    
   202  101  224 1    
   203  102  103 2    
   204  102  104 am   BACKBONE|DICT|INTERRES
   205  104  105 1    
   206  104  225 1    
   207  105  106 1    
   208  105  107 1    
   209  105  226 1    
   210  106  227 1    
   211  106  228 1    
   212  106  229 1    
   213  107  108 2    
   214  107  109 am   BACKBONE|DICT|INTERRES
   215  109  110 1    
   216  109  230 1    
   217  110  111 1    
   218  110  112 1    
   219  110  231 1    
   220  111  232 1    
   221  111  233 1    
   222  111  234 1    
   223  112  113 2    
   224  112  114 am   BACKBONE|DICT|INTERRES
   225  114  115 1    
   226  114  235 1    
   227  115  116 1    
   228  115  117 1    
   229  115  236 1    
   230  116  237 1    
   231  116  238 1    
   232  116  239 1    
   233  117  118 2    
   234  117  119 am   BACKBONE|DICT|INTERRES
   235  119  120 1    
   236  119  240 1    
   237  120  121 1    
   238  120  124 1    
   239  120  241 1    
   240  121  122 am   BACKBONE|DICT|INTERRES
   241  121  123 2    
   242  122  242 1    
   243  122  243 1    
   244  124  125 1    
   245  124  244 1    
   246  124  245 1    
   247  125  126 1    
   248  126  246 1    
   249  126  247 1    
@<TRIPOS>SUBSTRUCTURE
     1 UNK         1 GROUP             0       ****    0 ROOT    
