@<TRIPOS>MOLECULE
3R540
247   249    1
SMALL
USER_CHARGES


@<TRIPOS>ATOM
      1 CA         -3.2705  -17.2136  -46.2193 C.3       0 UNK        -0.1800 
      2 C          -2.7716  -15.7825  -46.3665 C.2       0 UNK         0.5000 
      3 O          -3.3781  -14.8641  -45.8159 O.2       0 UNK        -0.5000 
      4 N          -1.6782  -15.5883  -47.1148 N.am      1 UNK        -0.5000 
      5 CA         -1.0374  -14.2901  -47.3405 C.3       1 UNK         0.1400 
      6 C6         -0.1066  -14.3037  -48.5822 C.3       23 UNK        -0.0398 
      7 S7         -0.9978  -14.0348  -50.1575 S.3       23 UNK        -0.2404 
      8 C8         -1.8674  -15.6042  -50.4826 C.3       23 UNK        -0.0205 
      9 C9         -0.9582  -16.7007  -51.0190 C.ar      23 UNK        -0.0193 
     10 C10        -0.9221  -16.9772  -52.3881 C.ar      23 UNK        -0.1150 
     11 C11        -0.1560  -18.0387  -52.8760 C.ar      23 UNK        -0.0193 
     12 C12         0.5937  -18.8116  -51.9856 C.ar      23 UNK        -0.1150 
     13 C13         0.5862  -18.5414  -50.6144 C.ar      23 UNK        -0.0193 
     14 C14        -0.1983  -17.4800  -50.1432 C.ar      23 UNK        -0.1150 
     15 C15         1.4294  -19.4396  -49.7039 C.3       23 UNK        -0.0205 
     16 S16         1.4934  -18.9937  -47.9318 S.3       23 UNK        -0.2404 
     17 C17        -0.1749  -19.4720  -47.3748 C.3       23 UNK        -0.0398 
     18 CA         -0.2654  -20.9545  -46.9561 C.3       11 UNK         0.1400 
     19 N           0.4421  -21.2471  -45.7059 N.am      11 UNK        -0.5000 
     20 C           0.6077  -22.4724  -45.1869 C.2       10 UNK         0.5000 
     21 O           0.1640  -23.4983  -45.7047 O.2       10 UNK        -0.5000 
     22 CA          1.3447  -22.5644  -43.8403 C.3       10 UNK         0.1400 
     23 CB          2.8527  -22.3296  -44.0150 C.3       10 UNK        -0.1800 
     24 N           0.8008  -21.6282  -42.8574 N.am      10 UNK        -0.5000 
     25 C          -0.4241  -21.7284  -42.3212 C.2       9 UNK         0.5000 
     26 O          -1.1903  -22.6670  -42.5405 O.2       9 UNK        -0.5000 
     27 CA         -0.8872  -20.5757  -41.4100 C.3       9 UNK         0.1400 
     28 CB         -0.3746  -20.7769  -39.9764 C.3       9 UNK        -0.1800 
     29 N          -0.4823  -19.2552  -41.8963 N.am      9 UNK        -0.5000 
     30 C          -0.8783  -18.7202  -43.0609 C.2       8 UNK         0.5000 
     31 O          -1.6498  -19.2744  -43.8426 O.2       8 UNK        -0.5000 
     32 CA         -0.2627  -17.3641  -43.4478 C.3       8 UNK         0.1400 
     33 CB         -0.9484  -16.2144  -42.6966 C.3       8 UNK        -0.1800 
     34 N           1.1795  -17.3188  -43.2129 N.am      8 UNK        -0.5000 
     35 C           2.0680  -18.1302  -43.8037 C.2       7 UNK         0.5000 
     36 O           1.7664  -18.9925  -44.6255 O.2       7 UNK        -0.5000 
     37 CA          3.5289  -18.0106  -43.3456 C.3       7 UNK         0.1400 
     38 CB          4.2066  -16.7809  -43.9685 C.3       7 UNK        -0.1800 
     39 N           3.6331  -17.9651  -41.8871 N.am      7 UNK        -0.5000 
     40 C           3.3318  -18.9922  -41.0783 C.2       6 UNK         0.5000 
     41 O           2.9734  -20.0985  -41.4808 O.2       6 UNK        -0.5000 
     42 CA          3.4118  -18.7280  -39.5642 C.3       6 UNK         0.1400 
     43 CB          4.8452  -18.9373  -39.0538 C.3       6 UNK        -0.1800 
     44 N           2.9606  -17.3837  -39.2039 N.am      6 UNK        -0.5000 
     45 C           1.6950  -16.9542  -39.3092 C.2       5 UNK         0.5000 
     46 O           0.7613  -17.6557  -39.6990 O.2       5 UNK        -0.5000 
     47 CA          1.4528  -15.4691  -38.9793 C.3       5 UNK         0.1400 
     48 CB          1.3466  -15.2565  -37.4618 C.3       5 UNK        -0.1800 
     49 N           2.4943  -14.5928  -39.5283 N.am      5 UNK        -0.5000 
     50 C           2.7275  -14.4515  -40.8385 C.2       4 UNK         0.5000 
     51 O           2.0780  -15.0390  -41.7098 O.2       4 UNK        -0.5000 
     52 CA          3.8910  -13.5401  -41.2547 C.3       4 UNK         0.1400 
     53 CB          5.2438  -14.2509  -41.0629 C.3       4 UNK        -0.1800 
     54 N           3.6716  -13.2202  -42.6569 N.am      4 UNK        -0.5000 
     55 C           4.2710  -12.2954  -43.4116 C.2       3 UNK         0.5000 
     56 O           5.2008  -11.5837  -43.0309 O.2       3 UNK        -0.5000 
     57 CA          3.6915  -12.1234  -44.8312 C.3       3 UNK         0.1400 
     58 CB          4.4034  -13.0536  -45.8252 C.3       3 UNK        -0.1800 
     59 N           2.2513  -12.3987  -44.8651 N.am      3 UNK        -0.5000 
     60 C           1.3150  -11.6090  -44.3244 C.2       2 UNK         0.5000 
     61 O           1.5550  -10.4829  -43.8850 O.2       2 UNK        -0.5000 
     62 CA         -0.1144  -12.1868  -44.2415 C.3       2 UNK         0.1400 
     63 CB         -1.1371  -11.1698  -43.7029 C.3       2 UNK        -0.1800 
     64 N          -0.6102  -12.7154  -45.5136 N.am      2 UNK        -0.5000 
     65 C          -0.2726  -13.8871  -46.0652 C.2       1 UNK         0.5000 
     66 O           0.5957  -14.6349  -45.6099 O.2       1 UNK        -0.5000 
     67 C          -1.7375  -21.4007  -46.9297 C.2       11 UNK         0.5000 
     68 O          -2.2209  -21.8901  -47.9468 O.2       11 UNK        -0.5000 
     69 N          -2.4100  -21.2811  -45.7768 N.am      12 UNK        -0.5000 
     70 CA         -3.7856  -21.7406  -45.5669 C.3       12 UNK         0.1400 
     71 CB         -4.2487  -21.3345  -44.1600 C.3       12 UNK        -0.1800 
     72 C          -3.9905  -23.2540  -45.7940 C.2       12 UNK         0.5000 
     73 O          -5.1113  -23.6626  -46.0975 O.2       12 UNK        -0.5000 
     74 N          -2.9174  -24.0467  -45.6691 N.am      13 UNK        -0.5000 
     75 CA         -2.8901  -25.4634  -46.0193 C.3       13 UNK         0.1400 
     76 CB         -2.0778  -26.2297  -44.9628 C.3       13 UNK        -0.1800 
     77 C          -2.2976  -25.6754  -47.4239 C.2       13 UNK         0.5000 
     78 O          -2.8914  -26.3935  -48.2288 O.2       13 UNK        -0.5000 
     79 N          -1.1312  -25.0681  -47.6881 N.am      14 UNK        -0.5000 
     80 CA         -0.3222  -25.2964  -48.8888 C.3       14 UNK         0.1400 
     81 CB          1.0809  -24.7106  -48.6664 C.3       14 UNK        -0.1800 
     82 C          -0.9298  -24.7455  -50.1924 C.2       14 UNK         0.5000 
     83 O          -0.7110  -25.3342  -51.2517 O.2       14 UNK        -0.5000 
     84 N          -1.6685  -23.6362  -50.1004 N.am      15 UNK        -0.5000 
     85 CA         -2.3189  -22.9533  -51.2137 C.3       15 UNK         0.1400 
     86 CB         -1.3903  -21.8562  -51.7684 C.3       15 UNK        -0.1800 
     87 C          -3.6653  -22.4110  -50.7136 C.2       15 UNK         0.5000 
     88 O          -3.9056  -21.2040  -50.7617 O.2       15 UNK        -0.5000 
     89 N          -4.4955  -23.3221  -50.1859 N.am      16 UNK        -0.5000 
     90 CA         -5.7794  -23.0551  -49.5350 C.3       16 UNK         0.1400 
     91 CB         -6.4416  -24.3952  -49.1774 C.3       16 UNK        -0.1800 
     92 C          -6.7238  -22.1785  -50.3821 C.2       16 UNK         0.5000 
     93 O          -7.1632  -22.6102  -51.4485 O.2       16 UNK        -0.5000 
     94 N          -6.9841  -20.9594  -49.8878 N.am      17 UNK        -0.5000 
     95 CA         -7.7815  -19.8868  -50.4992 C.3       17 UNK         0.1400 
     96 CB         -9.2360  -20.3401  -50.7482 C.3       17 UNK        -0.1800 
     97 C          -7.1447  -19.2353  -51.7491 C.2       17 UNK         0.5000 
     98 O          -7.8143  -18.4400  -52.4113 O.2       17 UNK        -0.5000 
     99 N          -5.8660  -19.5371  -52.0243 N.am      18 UNK        -0.5000 
    100 CA        -5.0491  -19.0461  -53.1377 C.3       18 UNK         0.1400 
    101 CB        -4.6706  -17.5660  -52.9059 C.3       18 UNK        -0.1800 
    102 C         -5.6818  -19.3316  -54.5199 C.2       18 UNK         0.5000 
    103 O         -6.3043  -20.3821  -54.6969 O.2       18 UNK        -0.5000 
    104 N         -5.4977  -18.4115  -55.4792 N.am      19 UNK        -0.5000 
    105 CA        -6.0056  -18.4536  -56.8542 C.3       19 UNK         0.1400 
    106 CB        -7.5348  -18.2304  -56.8667 C.3       19 UNK        -0.1800 
    107 C         -5.5484  -19.7316  -57.5866 C.2       19 UNK         0.5000 
    108 O         -4.3532  -19.8796  -57.8418 O.2       19 UNK        -0.5000 
    109 N         -6.4825  -20.6479  -57.8743 N.am      20 UNK        -0.5000 
    110 CA        -6.2238  -21.9475  -58.4977 C.3       20 UNK         0.1400 
    111 CB        -7.5635  -22.6427  -58.7825 C.3       20 UNK        -0.1800 
    112 C         -5.3056  -22.8656  -57.6658 C.2       20 UNK         0.5000 
    113 O         -4.5700  -23.6657  -58.2460 O.2       20 UNK        -0.5000 
    114 N         -5.3216  -22.7131  -56.3323 N.am      21 UNK        -0.5000 
    115 CA        -4.4681  -23.4637  -55.4070 C.3       21 UNK         0.1400 
    116 CB        -5.0054  -23.3111  -53.9772 C.3       21 UNK        -0.1800 
    117 C         -2.9808  -23.0609  -55.4819 C.2       21 UNK         0.5000 
    118 O         -2.1324  -23.8193  -55.0127 O.2       21 UNK        -0.5000 
    119 N         -2.6870  -21.9011  -56.0847 N.am      22 UNK        -0.5000 
    120 CA        -1.3265  -21.4452  -56.4103 C.3       22 UNK         0.1400 
    121 C         -0.7516  -22.0802  -57.7124 C.2       22 UNK         0.5000 
    122 N         -1.5083  -22.8607  -58.4775 N.am      22 UNK        -0.7600 
    123 O          0.4153  -21.8701  -58.0317 O.2       22 UNK        -0.5000 
    124 C124       -1.2354  -19.8979  -56.4588 C.3       23 UNK        -0.0398 
    125 S125       -1.7128  -19.1322  -54.8730 S.3       23 UNK        -0.2404 
    126 C126       -0.1467  -18.3626  -54.3607 C.3       23 UNK        -0.0205 
    127 H127       -4.3069  -17.2842  -46.5493 H         1 UNK         0.0600 
    128 H128       -3.2260  -17.5209  -45.1749 H         1 UNK         0.0600 
    129 H129       -2.6826  -17.9159  -46.8088 H         1 UNK         0.0600 
    130 H130       -1.1915  -16.3839  -47.4948 H         1 UNK         0.3000 
    131 H131       -1.8205  -13.5479  -47.5125 H         1 UNK         0.0600 
    132 H132        0.6142  -13.4860  -48.5194 H         1 UNK         0.0800 
    133 H133        0.4993  -15.2079  -48.6262 H         1 UNK         0.0800 
    134 H134       -2.3903  -15.9503  -49.5930 H         1 UNK         0.0800 
    135 H135       -2.6537  -15.4005  -51.2110 H         1 UNK         0.0800 
    136 H136       -1.5122  -16.3860  -53.0743 H         1 UNK         0.1150 
    137 H137        1.1829  -19.6365  -52.3614 H         1 UNK         0.1150 
    138 H138       -0.2378  -17.2575  -49.0910 H         1 UNK         0.1150 
    139 H139        1.0772  -20.4678  -49.7966 H         1 UNK         0.0800 
    140 H140        2.4543  -19.4350  -50.0776 H         1 UNK         0.0800 
    141 H141       -0.4537  -18.8276  -46.5399 H         1 UNK         0.0800 
    142 H142       -0.8824  -19.2586  -48.1773 H         1 UNK         0.0800 
    143 H143        0.2153  -21.5501  -47.7337 H         1 UNK         0.0600 
    144 H144        0.8642  -20.4491  -45.2328 H         1 UNK         0.3000 
    145 H145        1.2066  -23.5769  -43.4552 H         1 UNK         0.0600 
    146 H146        3.3834  -22.4711  -43.0734 H         1 UNK         0.0600 
    147 H147        3.2753  -23.0307  -44.7358 H         1 UNK         0.0600 
    148 H148        3.0699  -21.3225  -44.3707 H         1 UNK         0.0600 
    149 H149        1.3945  -20.8506  -42.5901 H         1 UNK         0.3000 
    150 H150       -1.9788  -20.5958  -41.3853 H         1 UNK         0.0600 
    151 H151       -0.6814  -21.7471  -39.5838 H         1 UNK         0.0600 
    152 H152       -0.7711  -20.0146  -39.3055 H         1 UNK         0.0600 
    153 H153        0.7135  -20.7317  -39.9284 H         1 UNK         0.0600 
    154 H154        0.1290  -18.7157  -41.2913 H         1 UNK         0.3000 
    155 H155       -0.4261  -17.2149  -44.5170 H         1 UNK         0.0600 
    156 H156       -0.7967  -16.2877  -41.6192 H         1 UNK         0.0600 
    157 H157       -2.0231  -16.2118  -42.8822 H         1 UNK         0.0600 
    158 H158       -0.5602  -15.2506  -43.0225 H         1 UNK         0.0600 
    159 H159        1.5124  -16.6099  -42.5647 H         1 UNK         0.3000 
    160 H160        4.0610  -18.8987  -43.6934 H         1 UNK         0.0600 
    161 H161        3.7170  -15.8543  -43.6734 H         1 UNK         0.0600 
    162 H162        4.1727  -16.8318  -45.0576 H         1 UNK         0.0600 
    163 H163        5.2554  -16.7168  -43.6792 H         1 UNK         0.0600 
    164 H164        3.8775  -17.0797  -41.4727 H         1 UNK         0.3000 
    165 H165        2.7626  -19.4504  -39.0650 H         1 UNK         0.0600 
    166 H166        4.8981  -18.8257  -37.9707 H         1 UNK         0.0600 
    167 H167        5.2017  -19.9399  -39.2938 H         1 UNK         0.0600 
    168 H168        5.5413  -18.2257  -39.4997 H         1 UNK         0.0600 
    169 H169        3.6634  -16.7377  -38.8768 H         1 UNK         0.3000 
    170 H170        0.5000  -15.1829  -39.4301 H         1 UNK         0.0600 
    171 H171        0.5687  -15.8898  -37.0331 H         1 UNK         0.0600 
    172 H172        2.2814  -15.4946  -36.9529 H         1 UNK         0.0600 
    173 H173        1.0894  -14.2238  -37.2259 H         1 UNK         0.0600 
    174 H174        3.0599  -14.0840  -38.8640 H         1 UNK         0.3000 
    175 H175        3.8564  -12.6217  -40.6657 H         1 UNK         0.0600 
    176 H176        5.3086  -15.1630  -41.6561 H         1 UNK         0.0600 
    177 H177        6.0752  -13.6081  -41.3516 H         1 UNK         0.0600 
    178 H178        5.3997  -14.5251  -40.0190 H         1 UNK         0.0600 
    179 H179        2.8995  -13.7435  -43.0524 H         1 UNK         0.3000 
    180 H180        3.8597  -11.0904  -45.1426 H         1 UNK         0.0600 
    181 H181        4.2516  -14.1041  -45.5749 H         1 UNK         0.0600 
    182 H182        5.4783  -12.8687  -45.8316 H         1 UNK         0.0600 
    183 H183        4.0402  -12.8958  -46.8409 H         1 UNK         0.0600 
    184 H184        1.9557  -13.3081  -45.2086 H         1 UNK         0.3000 
    185 H185       -0.0691  -13.0083  -43.5244 H         1 UNK         0.0600 
    186 H186       -0.8434  -10.7990  -42.7200 H         1 UNK         0.0600 
    187 H187       -1.2352  -10.3086  -44.3649 H         1 UNK         0.0600 
    188 H188       -2.1226  -11.6229  -43.5925 H         1 UNK         0.0600 
    189 H189       -1.3155  -12.1551  -45.9702 H         1 UNK         0.3000 
    190 H190       -1.9674  -20.8057  -44.9949 H         1 UNK         0.3000 
    191 H191       -4.4148  -21.2213  -46.2925 H         1 UNK         0.0600 
    192 H192       -3.6244  -21.7831  -43.3872 H         1 UNK         0.0600 
    193 H193       -5.2763  -21.6516  -43.9781 H         1 UNK         0.0600 
    194 H194       -4.2167  -20.2525  -44.0314 H         1 UNK         0.0600 
    195 H195       -2.0297  -23.6237  -45.4283 H         1 UNK         0.3000 
    196 H196       -3.9025  -25.8729  -46.0187 H         1 UNK         0.0600 
    197 H197       -2.0344  -27.2935  -45.1997 H         1 UNK         0.0600 
    198 H198       -2.5310  -26.1342  -43.9760 H         1 UNK         0.0600 
    199 H199       -1.0520  -25.8658  -44.8935 H         1 UNK         0.0600 
    200 H200       -0.7013  -24.4964  -46.9643 H         1 UNK         0.3000 
    201 H201       -0.2169  -26.3762  -49.0131 H         1 UNK         0.0600 
    202 H202        1.5577  -25.1492  -47.7895 H         1 UNK         0.0600 
    203 H203        1.0478  -23.6306  -48.5237 H         1 UNK         0.0600 
    204 H204        1.7281  -24.9087  -49.5216 H         1 UNK         0.0600 
    205 H205       -1.8266  -23.2087  -49.1892 H         1 UNK         0.3000 
    206 H206       -2.5329  -23.6625  -52.0152 H         1 UNK         0.0600 
    207 H207       -0.4512  -22.2760  -52.1283 H         1 UNK         0.0600 
    208 H208       -1.8561  -21.3382  -52.6077 H         1 UNK         0.0600 
    209 H209       -1.1567  -21.1096  -51.0086 H         1 UNK         0.0600 
    210 H210       -4.1931  -24.2852  -50.1794 H         1 UNK         0.3000 
    211 H211       -5.5586  -22.5313  -48.6032 H         1 UNK         0.0600 
    212 H212       -6.6460  -24.9937  -50.0660 H         1 UNK         0.0600 
    213 H213       -7.3892  -24.2360  -48.6614 H         1 UNK         0.0600 
    214 H214       -5.8073  -24.9845  -48.5145 H         1 UNK         0.0600 
    215 H215       -6.5381  -20.7044  -49.0178 H         1 UNK         0.3000 
    216 H216       -7.8191  -19.0945  -49.7503 H         1 UNK         0.0600 
    217 H217       -9.8680  -19.4937  -51.0194 H         1 UNK         0.0600 
    218 H218       -9.6683  -20.7921  -49.8556 H         1 UNK         0.0600 
    219 H219       -9.3024  -21.0650  -51.5597 H         1 UNK         0.0600 
    220 H220       -5.3906  -20.2069  -51.4255 H         1 UNK         0.3000 
    221 H221       -4.1286  -19.6300  -53.1056 H         1 UNK         0.0600 
    222 H222       -5.5356  -16.9070  -52.9890 H         1 UNK         0.0600 
    223 H223       -4.2413  -17.4272  -51.9135 H         1 UNK         0.0600 
    224 H224       -3.9201  -17.2278  -53.6208 H         1 UNK         0.0600 
    225 H225       -4.9372  -17.6031  -55.2511 H         1 UNK         0.3000 
    226 H226       -5.5456  -17.6182  -57.3839 H         1 UNK         0.0600 
    227 H227       -7.7878  -17.2684  -56.4208 H         1 UNK         0.0600 
    228 H228       -7.9240  -18.2218  -57.8857 H         1 UNK         0.0600 
    229 H229       -8.0718  -18.9983  -56.3087 H         1 UNK         0.0600 
    230 H230       -7.4350  -20.4616  -57.5965 H         1 UNK         0.3000 
    231 H231       -5.7240  -21.7639  -59.4510 H         1 UNK         0.0600 
    232 H232       -7.4080  -23.6052  -59.2718 H         1 UNK         0.0600 
    233 H233       -8.1883  -22.0413  -59.4430 H         1 UNK         0.0600 
    234 H234       -8.1235  -22.8274  -57.8648 H         1 UNK         0.0600 
    235 H235       -5.9083  -21.9934  -55.9210 H         1 UNK         0.3000 
    236 H236       -4.5337  -24.5198  -55.6769 H         1 UNK         0.0600 
    237 H237       -6.0752  -23.5154  -53.9293 H         1 UNK         0.0600 
    238 H238       -4.5154  -24.0134  -53.3034 H         1 UNK         0.0600 
    239 H239       -4.8393  -22.3074  -53.5854 H         1 UNK         0.0600 
    240 H240       -3.4378  -21.3380  -56.4640 H         1 UNK         0.3000 
    241 H241       -0.6626  -21.7766  -55.6094 H         1 UNK         0.0600 
    242 H242       -1.1117  -23.2644  -59.3115 H         1 UNK         0.3800 
    243 H243       -2.4719  -23.0570  -58.2399 H         1 UNK         0.3800 
    244 H244       -0.2240  -19.5812  -56.7185 H         1 UNK         0.0800 
    245 H245       -1.8781  -19.4985  -57.2432 H         1 UNK         0.0800 
    246 H246        0.6834  -19.0322  -54.5916 H         1 UNK         0.0800 
    247 H247        0.0173  -17.4517  -54.9381 H         1 UNK         0.0800 
@<TRIPOS>BOND
     1    1    2 1    
     2    1  127 1    
     3    1  128 1    
     4    1  129 1    
     5    2    3 2    
     6    2    4 am   BACKBONE|DICT|INTERRES
     7    4    5 1    
     8    4  130 1    
     9    5    6 1    
    10    5   65 1    
    11    5  131 1    
    12    6    7 1    
    13    6  132 1    
    14    6  133 1    
    15    7    8 1    
    16    8    9 1    
    17    8  134 1    
    18    8  135 1    
    19    9   10 ar   
    20    9   14 ar   
    21   10   11 ar   
    22   10  136 1    
    23   11   12 ar   
    24   11  126 1    
    25   12   13 ar   
    26   12  137 1    
    27   13   14 ar   
    28   13   15 1    
    29   14  138 1    
    30   15   16 1    
    31   15  139 1    
    32   15  140 1    
    33   16   17 1    
    34   17   18 1    
    35   17  141 1    
    36   17  142 1    
    37   18   19 1    
    38   18   67 1    
    39   18  143 1    
    40   19   20 am   BACKBONE|DICT|INTERRES
    41   19  144 1    
    42   20   21 2    
    43   20   22 1    
    44   22   23 1    
    45   22   24 1    
    46   22  145 1    
    47   23  146 1    
    48   23  147 1    
    49   23  148 1    
    50   24   25 am   BACKBONE|DICT|INTERRES
    51   24  149 1    
    52   25   26 2    
    53   25   27 1    
    54   27   28 1    
    55   27   29 1    
    56   27  150 1    
    57   28  151 1    
    58   28  152 1    
    59   28  153 1    
    60   29   30 am   BACKBONE|DICT|INTERRES
    61   29  154 1    
    62   30   31 2    
    63   30   32 1    
    64   32   33 1    
    65   32   34 1    
    66   32  155 1    
    67   33  156 1    
    68   33  157 1    
    69   33  158 1    
    70   34   35 am   BACKBONE|DICT|INTERRES
    71   34  159 1    
    72   35   36 2    
    73   35   37 1    
    74   37   38 1    
    75   37   39 1    
    76   37  160 1    
    77   38  161 1    
    78   38  162 1    
    79   38  163 1    
    80   39   40 am   BACKBONE|DICT|INTERRES
    81   39  164 1    
    82   40   41 2    
    83   40   42 1    
    84   42   43 1    
    85   42   44 1    
    86   42  165 1    
    87   43  166 1    
    88   43  167 1    
    89   43  168 1    
    90   44   45 am   BACKBONE|DICT|INTERRES
    91   44  169 1    
    92   45   46 2    
    93   45   47 1    
    94   47   48 1    
    95   47   49 1    
    96   47  170 1    
    97   48  171 1    
    98   48  172 1    
    99   48  173 1    
   100   49   50 am   BACKBONE|DICT|INTERRES
   101   49  174 1    
   102   50   51 2    
   103   50   52 1    
   104   52   53 1    
   105   52   54 1    
   106   52  175 1    
   107   53  176 1    
   108   53  177 1    
   109   53  178 1    
   110   54   55 am   BACKBONE|DICT|INTERRES
   111   54  179 1    
   112   55   56 2    
   113   55   57 1    
   114   57   58 1    
   115   57   59 1    
   116   57  180 1    
   117   58  181 1    
   118   58  182 1    
   119   58  183 1    
   120   59   60 am   BACKBONE|DICT|INTERRES
   121   59  184 1    
   122   60   61 2    
   123   60   62 1    
   124   62   63 1    
   125   62   64 1    
   126   62  185 1    
   127   63  186 1    
   128   63  187 1    
   129   63  188 1    
   130   64   65 am   BACKBONE|DICT|INTERRES
   131   64  189 1    
   132   65   66 2    
   133   67   68 2    
   134   67   69 am   BACKBONE|DICT|INTERRES
   135   69   70 1    
   136   69  190 1    
   137   70   71 1    
   138   70   72 1    
   139   70  191 1    
   140   71  192 1    
   141   71  193 1    
   142   71  194 1    
   143   72   73 2    
   144   72   74 am   BACKBONE|DICT|INTERRES
   145   74   75 1    
   146   74  195 1    
   147   75   76 1    
   148   75   77 1    
   149   75  196 1    
   150   76  197 1    
   151   76  198 1    
   152   76  199 1    
   153   77   78 2    
   154   77   79 am   BACKBONE|DICT|INTERRES
   155   79   80 1    
   156   79  200 1    
   157   80   81 1    
   158   80   82 1    
   159   80  201 1    
   160   81  202 1    
   161   81  203 1    
   162   81  204 1    
   163   82   83 2    
   164   82   84 am   BACKBONE|DICT|INTERRES
   165   84   85 1    
   166   84  205 1    
   167   85   86 1    
   168   85   87 1    
   169   85  206 1    
   170   86  207 1    
   171   86  208 1    
   172   86  209 1    
   173   87   88 2    
   174   87   89 am   BACKBONE|DICT|INTERRES
   175   89   90 1    
   176   89  210 1    
   177   90   91 1    
   178   90   92 1    
   179   90  211 1    
   180   91  212 1    
   181   91  213 1    
   182   91  214 1    
   183   92   93 2    
   184   92   94 am   BACKBONE|DICT|INTERRES
   185   94   95 1    
   186   94  215 1    
   187   95   96 1    
   188   95   97 1    
   189   95  216 1    
   190   96  217 1    
   191   96  218 1    
   192   96  219 1    
   193   97   98 2    
   194   97   99 am   BACKBONE|DICT|INTERRES
   195   99  100 1    
   196   99  220 1    
   197  100  101 1    
   198  100  102 1    
   199  100  221 1    
   200  101  222 1    
   201  101  223 1    
   202  101  224 1    
   203  102  103 2    
   204  102  104 am   BACKBONE|DICT|INTERRES
   205  104  105 1    
   206  104  225 1    
   207  105  106 1    
   208  105  107 1    
   209  105  226 1    
   210  106  227 1    
   211  106  228 1    
   212  106  229 1    
   213  107  108 2    
   214  107  109 am   BACKBONE|DICT|INTERRES
   215  109  110 1    
   216  109  230 1    
   217  110  111 1    
   218  110  112 1    
   219  110  231 1    
   220  111  232 1    
   221  111  233 1    
   222  111  234 1    
   223  112  113 2    
   224  112  114 am   BACKBONE|DICT|INTERRES
   225  114  115 1    
   226  114  235 1    
   227  115  116 1    
   228  115  117 1    
   229  115  236 1    
   230  116  237 1    
   231  116  238 1    
   232  116  239 1    
   233  117  118 2    
   234  117  119 am   BACKBONE|DICT|INTERRES
   235  119  120 1    
   236  119  240 1    
   237  120  121 1    
   238  120  124 1    
   239  120  241 1    
   240  121  122 am   BACKBONE|DICT|INTERRES
   241  121  123 2    
   242  122  242 1    
   243  122  243 1    
   244  124  125 1    
   245  124  244 1    
   246  124  245 1    
   247  125  126 1    
   248  126  246 1    
   249  126  247 1    
@<TRIPOS>SUBSTRUCTURE
     1 UNK         1 GROUP             0       ****    0 ROOT    
