@<TRIPOS>MOLECULE
3R540
247   249    1
SMALL
USER_CHARGES


@<TRIPOS>ATOM
      1 CA          4.5377  -12.8784  -47.3655 C.3       0 UNK        -0.1800 
      2 C           3.0846  -13.3189  -47.4567 C.2       0 UNK         0.5000 
      3 O           2.4422  -13.5193  -46.4267 O.2       0 UNK        -0.5000 
      4 N           2.5616  -13.4491  -48.6849 N.am      1 UNK        -0.5000 
      5 CA          1.2108  -13.9298  -49.0255 C.3       1 UNK         0.1400 
      6 C6          0.9595  -13.9384  -50.5586 C.3       23 UNK        -0.0398 
      7 S7          2.3457  -14.6067  -51.5477 S.3       23 UNK        -0.2404 
      8 C8          1.5738  -16.0051  -52.4343 C.3       23 UNK        -0.0205 
      9 C9          1.3646  -17.2864  -51.6252 C.ar      23 UNK        -0.0193 
     10 C10         0.5937  -18.3058  -52.1933 C.ar      23 UNK        -0.1150 
     11 C11         0.3818  -19.5094  -51.5158 C.ar      23 UNK        -0.0193 
     12 C12         0.9435  -19.6912  -50.2522 C.ar      23 UNK        -0.1150 
     13 C13         1.7299  -18.6942  -49.6745 C.ar      23 UNK        -0.0193 
     14 C14         1.9389  -17.4968  -50.3637 C.ar      23 UNK        -0.1150 
     15 C15         2.3251  -18.8964  -48.2918 C.3       23 UNK        -0.0205 
     16 S16         3.7407  -20.0415  -48.2845 S.3       23 UNK        -0.2404 
     17 C17         2.9250  -21.6668  -48.1162 C.3       23 UNK        -0.0398 
     18 CA          3.6508  -22.5940  -47.1092 C.3       11 UNK         0.1400 
     19 N           3.6223  -22.0634  -45.7385 N.am      11 UNK        -0.5000 
     20 C           4.4398  -22.4644  -44.7538 C.2       10 UNK         0.5000 
     21 O           5.3066  -23.3278  -44.8942 O.2       10 UNK        -0.5000 
     22 CA          4.2487  -21.8043  -43.3779 C.3       10 UNK         0.1400 
     23 CB          4.9414  -20.4332  -43.3252 C.3       10 UNK        -0.1800 
     24 N           2.8317  -21.6523  -43.0496 N.am      10 UNK        -0.5000 
     25 C           2.0818  -22.6066  -42.4802 C.2       9 UNK         0.5000 
     26 O           2.5227  -23.7015  -42.1295 O.2       9 UNK        -0.5000 
     27 CA          0.5842  -22.2999  -42.2727 C.3       9 UNK         0.1400 
     28 CB          0.3515  -21.6725  -40.8899 C.3       9 UNK        -0.1800 
     29 N           0.0208  -21.4168  -43.2922 N.am      9 UNK        -0.5000 
     30 C          -0.0761  -21.7095  -44.5953 C.2       8 UNK         0.5000 
     31 O           0.2413  -22.7907  -45.0886 O.2       8 UNK        -0.5000 
     32 CA         -0.5670  -20.5855  -45.5178 C.3       8 UNK         0.1400 
     33 CB         -2.0944  -20.6052  -45.5920 C.3       8 UNK        -0.1800 
     34 N          -0.1261  -19.2492  -45.1185 N.am      8 UNK        -0.5000 
     35 C           1.1426  -18.8559  -44.9386 C.2       7 UNK         0.5000 
     36 O           2.1142  -19.6015  -45.0585 O.2       7 UNK        -0.5000 
     37 CA          1.3418  -17.3879  -44.5328 C.3       7 UNK         0.1400 
     38 CB          1.0661  -16.4519  -45.7245 C.3       7 UNK        -0.1800 
     39 N           0.4576  -17.0577  -43.4157 N.am      7 UNK        -0.5000 
     40 C           0.6646  -17.4608  -42.1527 C.2       6 UNK         0.5000 
     41 O           1.6845  -18.0414  -41.7813 O.2       6 UNK        -0.5000 
     42 CA         -0.4688  -17.2139  -41.1392 C.3       6 UNK         0.1400 
     43 CB         -0.2150  -15.9415  -40.3186 C.3       6 UNK        -0.1800 
     44 N          -1.7832  -17.1322  -41.7781 N.am      6 UNK        -0.5000 
     45 C          -2.4541  -18.1993  -42.2353 C.2       5 UNK         0.5000 
     46 O          -2.0443  -19.3558  -42.1312 O.2       5 UNK        -0.5000 
     47 CA         -3.7793  -17.9284  -42.9745 C.3       5 UNK         0.1400 
     48 CB         -4.9553  -17.8957  -41.9885 C.3       5 UNK        -0.1800 
     49 N          -3.7705  -16.6895  -43.7552 N.am      5 UNK        -0.5000 
     50 C          -2.9421  -16.4330  -44.7763 C.2       4 UNK         0.5000 
     51 O          -2.0952  -17.2320  -45.1726 O.2       4 UNK        -0.5000 
     52 CA         -3.0497  -15.0570  -45.4578 C.3       4 UNK         0.1400 
     53 CB         -4.3522  -14.2929  -45.1330 C.3       4 UNK        -0.1800 
     54 N          -1.8908  -14.2058  -45.1826 N.am      4 UNK        -0.5000 
     55 C          -1.4326  -13.8027  -43.9855 C.2       3 UNK         0.5000 
     56 O          -1.8527  -14.2430  -42.9143 O.2       3 UNK        -0.5000 
     57 CA         -0.3493  -12.6985  -43.9699 C.3       3 UNK         0.1400 
     58 CB          0.9640  -13.1743  -43.3277 C.3       3 UNK        -0.1800 
     59 N          -0.0730  -12.1378  -45.2963 N.am      3 UNK        -0.5000 
     60 C          -0.8826  -11.2726  -45.9283 C.2       2 UNK         0.5000 
     61 O          -1.8890  -10.7873  -45.4103 O.2       2 UNK        -0.5000 
     62 CA         -0.5452  -10.8988  -47.3863 C.3       2 UNK         0.1400 
     63 CB          0.0866   -9.4996  -47.4480 C.3       2 UNK        -0.1800 
     64 N           0.3403  -11.8428  -48.0700 N.am      2 UNK        -0.5000 
     65 C           0.0839  -13.1343  -48.3269 C.2       1 UNK         0.5000 
     66 O          -0.9639  -13.6988  -48.0126 O.2       1 UNK        -0.5000 
     67 C           3.0887  -24.0307  -47.2132 C.2       11 UNK         0.5000 
     68 O           3.4058  -24.7224  -48.1815 O.2       11 UNK        -0.5000 
     69 N           2.2567  -24.4392  -46.2419 N.am      12 UNK        -0.5000 
     70 CA          1.4627  -25.6739  -46.2019 C.3       12 UNK         0.1400 
     71 CB          2.3654  -26.9238  -46.1388 C.3       12 UNK        -0.1800 
     72 C           0.4265  -25.7134  -47.3456 C.2       12 UNK         0.5000 
     73 O           0.2903  -26.7233  -48.0395 O.2       12 UNK        -0.5000 
     74 N          -0.2555  -24.5782  -47.5394 N.am      13 UNK        -0.5000 
     75 CA         -1.2267  -24.3516  -48.6079 C.3       13 UNK         0.1400 
     76 CB         -1.3114  -22.8416  -48.8594 C.3       13 UNK        -0.1800 
     77 C          -2.6120  -24.9396  -48.2776 C.2       13 UNK         0.5000 
     78 O          -2.9040  -25.2323  -47.1155 O.2       13 UNK        -0.5000 
     79 N          -3.4501  -25.0885  -49.3124 N.am      14 UNK        -0.5000 
     80 CA         -4.7903  -25.6795  -49.2205 C.3       14 UNK         0.1400 
     81 CB         -5.1963  -26.1953  -50.6108 C.3       14 UNK        -0.1800 
     82 C          -5.8671  -24.7214  -48.6684 C.2       14 UNK         0.5000 
     83 O          -6.9629  -25.1749  -48.3356 O.2       14 UNK        -0.5000 
     84 N          -5.5520  -23.4255  -48.5898 N.am      15 UNK        -0.5000 
     85 CA         -6.4009  -22.3469  -48.0929 C.3       15 UNK         0.1400 
     86 CB         -7.4552  -21.9594  -49.1506 C.3       15 UNK        -0.1800 
     87 C          -5.4911  -21.1722  -47.6946 C.2       15 UNK         0.5000 
     88 O          -4.2672  -21.3082  -47.7591 O.2       15 UNK        -0.5000 
     89 N          -6.0853  -20.0432  -47.2895 N.am      16 UNK        -0.5000 
     90 CA         -5.4187  -18.8480  -46.7564 C.3       16 UNK         0.1400 
     91 CB         -6.4684  -18.0087  -46.0049 C.3       16 UNK        -0.1800 
     92 C          -4.6186  -18.0185  -47.7944 C.2       16 UNK         0.5000 
     93 O          -4.8214  -16.8075  -47.8953 O.2       16 UNK        -0.5000 
     94 N          -3.7014  -18.6882  -48.5051 N.am      17 UNK        -0.5000 
     95 CA         -2.7352  -18.1856  -49.4901 C.3       17 UNK         0.1400 
     96 CB         -1.7756  -17.1670  -48.8405 C.3       17 UNK        -0.1800 
     97 C          -3.3603  -17.6408  -50.7946 C.2       17 UNK         0.5000 
     98 O          -4.5784  -17.4911  -50.9042 O.2       17 UNK        -0.5000 
     99 N          -2.4857  -17.3921  -51.7802 N.am      18 UNK        -0.5000 
    100 CA        -2.7774  -16.9190  -53.1371 C.3       18 UNK         0.1400 
    101 CB        -3.3649  -15.4893  -53.1048 C.3       18 UNK        -0.1800 
    102 C         -3.5948  -17.9370  -53.9673 C.2       18 UNK         0.5000 
    103 O         -3.2406  -19.1206  -54.0002 O.2       18 UNK        -0.5000 
    104 N         -4.6300  -17.4602  -54.6723 N.am      19 UNK        -0.5000 
    105 CA        -5.5067  -18.2486  -55.5400 C.3       19 UNK         0.1400 
    106 CB        -6.4775  -17.3020  -56.2618 C.3       19 UNK        -0.1800 
    107 C         -6.2829  -19.3287  -54.7653 C.2       19 UNK         0.5000 
    108 O         -6.6687  -19.1007  -53.6172 O.2       19 UNK        -0.5000 
    109 N         -6.4740  -20.4919  -55.4032 N.am      20 UNK        -0.5000 
    110 CA        -7.1024  -21.7267  -54.9020 C.3       20 UNK         0.1400 
    111 CB        -8.5599  -21.4881  -54.4627 C.3       20 UNK        -0.1800 
    112 C         -6.2996  -22.4526  -53.8013 C.2       20 UNK         0.5000 
    113 O         -6.2985  -23.6833  -53.7704 O.2       20 UNK        -0.5000 
    114 N         -5.6097  -21.6920  -52.9433 N.am      21 UNK        -0.5000 
    115 CA        -4.6878  -22.1711  -51.9172 C.3       21 UNK         0.1400 
    116 CB        -4.2489  -20.9761  -51.0688 C.3       21 UNK        -0.1800 
    117 C         -3.4493  -22.8601  -52.5108 C.2       21 UNK         0.5000 
    118 O         -3.0060  -23.8788  -51.9781 O.2       21 UNK        -0.5000 
    119 N         -2.9345  -22.2824  -53.6012 N.am      22 UNK        -0.5000 
    120 CA        -1.8780  -22.8348  -54.4553 C.3       22 UNK         0.1400 
    121 C         -1.8179  -22.1561  -55.8529 C.2       22 UNK         0.5000 
    122 N         -2.3229  -20.9386  -56.0331 N.am      22 UNK        -0.7600 
    123 O         -1.3292  -22.7601  -56.8037 O.2       22 UNK        -0.5000 
    124 C124       -0.4880  -22.9355  -53.7630 C.3       23 UNK        -0.0398 
    125 S125        0.4233  -21.3653  -53.5538 S.3       23 UNK        -0.2404 
    126 C126       -0.4464  -20.6153  -52.1471 C.3       23 UNK        -0.0205 
    127 H127        5.1238  -13.6315  -46.8390 H         1 UNK         0.0600 
    128 H128        4.6109  -11.9409  -46.8143 H         1 UNK         0.0600 
    129 H129        4.9796  -12.7303  -48.3512 H         1 UNK         0.0600 
    130 H130        3.1531  -13.2718  -49.4851 H         1 UNK         0.3000 
    131 H131        1.1456  -14.9585  -48.6651 H         1 UNK         0.0600 
    132 H132        0.0507  -14.5009  -50.7808 H         1 UNK         0.0800 
    133 H133        0.7800  -12.9246  -50.9221 H         1 UNK         0.0800 
    134 H134        2.2115  -16.2502  -53.2847 H         1 UNK         0.0800 
    135 H135        0.6223  -15.6744  -52.8536 H         1 UNK         0.0800 
    136 H136        0.1721  -18.1748  -53.1803 H         1 UNK         0.1150 
    137 H137        0.7814  -20.6152  -49.7215 H         1 UNK         0.1150 
    138 H138        2.5557  -16.7375  -49.9070 H         1 UNK         0.1150 
    139 H139        2.6644  -17.9440  -47.8864 H         1 UNK         0.0800 
    140 H140        1.5422  -19.2548  -47.6283 H         1 UNK         0.0800 
    141 H141        1.8854  -21.5370  -47.8138 H         1 UNK         0.0800 
    142 H142        2.9010  -22.1160  -49.1111 H         1 UNK         0.0800 
    143 H143        4.6975  -22.6543  -47.4157 H         1 UNK         0.0600 
    144 H144        2.9845  -21.2943  -45.5561 H         1 UNK         0.3000 
    145 H145        4.7239  -22.4426  -42.6297 H         1 UNK         0.0600 
    146 H146        4.8188  -19.9676  -42.3472 H         1 UNK         0.0600 
    147 H147        4.5472  -19.7459  -44.0738 H         1 UNK         0.0600 
    148 H148        6.0121  -20.5329  -43.5069 H         1 UNK         0.0600 
    149 H149        2.3876  -20.7982  -43.3649 H         1 UNK         0.3000 
    150 H150        0.0436  -23.2476  -42.3164 H         1 UNK         0.0600 
    151 H151        0.7390  -22.3144  -40.0978 H         1 UNK         0.0600 
    152 H152       -0.7115  -21.5248  -40.6979 H         1 UNK         0.0600 
    153 H153        0.8450  -20.7037  -40.8008 H         1 UNK         0.0600 
    154 H154       -0.3277  -20.5202  -42.9756 H         1 UNK         0.3000 
    155 H155       -0.1710  -20.7793  -46.5160 H         1 UNK         0.0600 
    156 H156       -2.4620  -21.5913  -45.8766 H         1 UNK         0.0600 
    157 H157       -2.4502  -19.8894  -46.3300 H         1 UNK         0.0600 
    158 H158       -2.5475  -20.3583  -44.6334 H         1 UNK         0.0600 
    159 H159       -0.8583  -18.5460  -45.0368 H         1 UNK         0.3000 
    160 H160        2.3764  -17.2446  -44.2139 H         1 UNK         0.0600 
    161 H161        0.2199  -16.7754  -46.3293 H         1 UNK         0.0600 
    162 H162        1.9332  -16.4006  -46.3811 H         1 UNK         0.0600 
    163 H163        0.8532  -15.4357  -45.4060 H         1 UNK         0.0600 
    164 H164       -0.4327  -16.6415  -43.6497 H         1 UNK         0.3000 
    165 H165       -0.4726  -18.0587  -40.4467 H         1 UNK         0.0600 
    166 H166       -0.9630  -15.8252  -39.5342 H         1 UNK         0.0600 
    167 H167        0.7616  -15.9761  -39.8340 H         1 UNK         0.0600 
    168 H168       -0.2427  -15.0479  -40.9392 H         1 UNK         0.0600 
    169 H169       -2.1500  -16.2032  -41.9517 H         1 UNK         0.3000 
    170 H170       -3.9457  -18.7541  -43.6675 H         1 UNK         0.0600 
    171 H171       -4.8683  -17.0667  -41.2851 H         1 UNK         0.0600 
    172 H172       -5.9062  -17.7950  -42.5122 H         1 UNK         0.0600 
    173 H173       -5.0022  -18.8172  -41.4065 H         1 UNK         0.0600 
    174 H174       -4.4138  -15.9670  -43.4664 H         1 UNK         0.3000 
    175 H175       -3.0386  -15.2469  -46.5312 H         1 UNK         0.0600 
    176 H176       -4.4258  -14.0244  -44.0787 H         1 UNK         0.0600 
    177 H177       -4.4091  -13.3691  -45.7091 H         1 UNK         0.0600 
    178 H178       -5.2313  -14.8827  -45.3935 H         1 UNK         0.0600 
    179 H179       -1.4419  -13.8339  -46.0127 H         1 UNK         0.3000 
    180 H180       -0.7394  -11.8977  -43.3382 H         1 UNK         0.0600 
    181 H181        1.6860  -12.3598  -43.2699 H         1 UNK         0.0600 
    182 H182        1.4306  -13.9858  -43.8814 H         1 UNK         0.0600 
    183 H183        0.7984  -13.5251  -42.3100 H         1 UNK         0.0600 
    184 H184        0.7403  -12.5035  -45.7818 H         1 UNK         0.3000 
    185 H185       -1.4872  -10.8745  -47.9378 H         1 UNK         0.0600 
    186 H186        0.2455   -9.1823  -48.4788 H         1 UNK         0.0600 
    187 H187       -0.5591   -8.7566  -46.9777 H         1 UNK         0.0600 
    188 H188        1.0484   -9.4707  -46.9343 H         1 UNK         0.0600 
    189 H189        1.2430  -11.4843  -48.3455 H         1 UNK         0.3000 
    190 H190        2.0039  -23.7586  -45.5346 H         1 UNK         0.3000 
    191 H191        0.8905  -25.6372  -45.2737 H         1 UNK         0.0600 
    192 H192        1.7710  -27.8227  -45.9719 H         1 UNK         0.0600 
    193 H193        3.0809  -26.8508  -45.3198 H         1 UNK         0.0600 
    194 H194        2.9256  -27.0721  -47.0620 H         1 UNK         0.0600 
    195 H195       -0.1341  -23.8341  -46.8623 H         1 UNK         0.3000 
    196 H196       -0.8607  -24.8305  -49.5189 H         1 UNK         0.0600 
    197 H197       -1.9141  -22.6328  -49.7401 H         1 UNK         0.0600 
    198 H198       -0.3227  -22.4241  -49.0380 H         1 UNK         0.0600 
    199 H199       -1.7545  -22.3125  -48.0169 H         1 UNK         0.0600 
    200 H200       -3.1559  -24.7948  -50.2404 H         1 UNK         0.3000 
    201 H201       -4.7449  -26.5366  -48.5452 H         1 UNK         0.0600 
    202 H202       -4.4677  -26.9089  -50.9958 H         1 UNK         0.0600 
    203 H203       -5.2847  -25.3841  -51.3341 H         1 UNK         0.0600 
    204 H204       -6.1598  -26.7052  -50.5736 H         1 UNK         0.0600 
    205 H205       -4.5993  -23.1402  -48.7760 H         1 UNK         0.3000 
    206 H206       -6.9066  -22.6869  -47.1871 H         1 UNK         0.0600 
    207 H207       -8.0817  -22.8117  -49.4136 H         1 UNK         0.0600 
    208 H208       -8.1230  -21.1806  -48.7823 H         1 UNK         0.0600 
    209 H209       -6.9997  -21.5931  -50.0691 H         1 UNK         0.0600 
    210 H210       -7.0938  -20.0037  -47.3060 H         1 UNK         0.3000 
    211 H211       -4.6938  -19.1826  -46.0130 H         1 UNK         0.0600 
    212 H212       -7.2429  -17.6389  -46.6778 H         1 UNK         0.0600 
    213 H213       -6.0123  -17.1450  -45.5225 H         1 UNK         0.0600 
    214 H214       -6.9525  -18.5910  -45.2208 H         1 UNK         0.0600 
    215 H215       -3.6760  -19.6925  -48.3439 H         1 UNK         0.3000 
    216 H216       -2.1427  -19.0568  -49.7731 H         1 UNK         0.0600 
    217 H217       -0.9404  -16.9275  -49.4986 H         1 UNK         0.0600 
    218 H218       -1.3528  -17.5636  -47.9180 H         1 UNK         0.0600 
    219 H219       -2.2787  -16.2295  -48.6042 H         1 UNK         0.0600 
    220 H220       -1.5109  -17.5899  -51.6034 H         1 UNK         0.3000 
    221 H221       -1.8125  -16.8506  -53.6402 H         1 UNK         0.0600 
    222 H222       -4.3635  -15.4644  -52.6671 H         1 UNK         0.0600 
    223 H223       -2.7323  -14.8235  -52.5174 H         1 UNK         0.0600 
    224 H224       -3.4275  -15.0626  -54.1065 H         1 UNK         0.0600 
    225 H225       -4.8692  -16.4859  -54.5656 H         1 UNK         0.3000 
    226 H226       -4.8778  -18.7375  -56.2870 H         1 UNK         0.0600 
    227 H227       -5.9406  -16.5641  -56.8582 H         1 UNK         0.0600 
    228 H228       -7.1304  -17.8532  -56.9399 H         1 UNK         0.0600 
    229 H229       -7.1144  -16.7661  -55.5567 H         1 UNK         0.0600 
    230 H230       -6.0985  -20.5726  -56.3383 H         1 UNK         0.3000 
    231 H231       -7.1298  -22.4045  -55.7567 H         1 UNK         0.0600 
    232 H232       -9.0515  -22.4325  -54.2259 H         1 UNK         0.0600 
    233 H233       -9.1377  -21.0104  -55.2539 H         1 UNK         0.0600 
    234 H234       -8.6234  -20.8606  -53.5735 H         1 UNK         0.0600 
    235 H235       -5.7292  -20.6864  -53.0207 H         1 UNK         0.3000 
    236 H236       -5.2175  -22.8881  -51.2895 H         1 UNK         0.0600 
    237 H237       -3.6760  -20.2699  -51.6651 H         1 UNK         0.0600 
    238 H238       -5.0982  -20.4367  -50.6515 H         1 UNK         0.0600 
    239 H239       -3.6153  -21.2886  -50.2432 H         1 UNK         0.0600 
    240 H240       -3.3698  -21.4369  -53.9431 H         1 UNK         0.3000 
    241 H241       -2.1917  -23.8594  -54.6646 H         1 UNK         0.0600 
    242 H242       -2.2724  -20.5367  -56.9554 H         1 UNK         0.3800 
    243 H243       -2.6256  -20.3548  -55.2592 H         1 UNK         0.3800 
    244 H244        0.1509  -23.5928  -54.3546 H         1 UNK         0.0800 
    245 H245       -0.5703  -23.4265  -52.7934 H         1 UNK         0.0800 
    246 H246       -1.3960  -20.2061  -52.4877 H         1 UNK         0.0800 
    247 H247       -0.6822  -21.3855  -51.4131 H         1 UNK         0.0800 
@<TRIPOS>BOND
     1    1    2 1    
     2    1  127 1    
     3    1  128 1    
     4    1  129 1    
     5    2    3 2    
     6    2    4 am   BACKBONE|DICT|INTERRES
     7    4    5 1    
     8    4  130 1    
     9    5    6 1    
    10    5   65 1    
    11    5  131 1    
    12    6    7 1    
    13    6  132 1    
    14    6  133 1    
    15    7    8 1    
    16    8    9 1    
    17    8  134 1    
    18    8  135 1    
    19    9   10 ar   
    20    9   14 ar   
    21   10   11 ar   
    22   10  136 1    
    23   11   12 ar   
    24   11  126 1    
    25   12   13 ar   
    26   12  137 1    
    27   13   14 ar   
    28   13   15 1    
    29   14  138 1    
    30   15   16 1    
    31   15  139 1    
    32   15  140 1    
    33   16   17 1    
    34   17   18 1    
    35   17  141 1    
    36   17  142 1    
    37   18   19 1    
    38   18   67 1    
    39   18  143 1    
    40   19   20 am   BACKBONE|DICT|INTERRES
    41   19  144 1    
    42   20   21 2    
    43   20   22 1    
    44   22   23 1    
    45   22   24 1    
    46   22  145 1    
    47   23  146 1    
    48   23  147 1    
    49   23  148 1    
    50   24   25 am   BACKBONE|DICT|INTERRES
    51   24  149 1    
    52   25   26 2    
    53   25   27 1    
    54   27   28 1    
    55   27   29 1    
    56   27  150 1    
    57   28  151 1    
    58   28  152 1    
    59   28  153 1    
    60   29   30 am   BACKBONE|DICT|INTERRES
    61   29  154 1    
    62   30   31 2    
    63   30   32 1    
    64   32   33 1    
    65   32   34 1    
    66   32  155 1    
    67   33  156 1    
    68   33  157 1    
    69   33  158 1    
    70   34   35 am   BACKBONE|DICT|INTERRES
    71   34  159 1    
    72   35   36 2    
    73   35   37 1    
    74   37   38 1    
    75   37   39 1    
    76   37  160 1    
    77   38  161 1    
    78   38  162 1    
    79   38  163 1    
    80   39   40 am   BACKBONE|DICT|INTERRES
    81   39  164 1    
    82   40   41 2    
    83   40   42 1    
    84   42   43 1    
    85   42   44 1    
    86   42  165 1    
    87   43  166 1    
    88   43  167 1    
    89   43  168 1    
    90   44   45 am   BACKBONE|DICT|INTERRES
    91   44  169 1    
    92   45   46 2    
    93   45   47 1    
    94   47   48 1    
    95   47   49 1    
    96   47  170 1    
    97   48  171 1    
    98   48  172 1    
    99   48  173 1    
   100   49   50 am   BACKBONE|DICT|INTERRES
   101   49  174 1    
   102   50   51 2    
   103   50   52 1    
   104   52   53 1    
   105   52   54 1    
   106   52  175 1    
   107   53  176 1    
   108   53  177 1    
   109   53  178 1    
   110   54   55 am   BACKBONE|DICT|INTERRES
   111   54  179 1    
   112   55   56 2    
   113   55   57 1    
   114   57   58 1    
   115   57   59 1    
   116   57  180 1    
   117   58  181 1    
   118   58  182 1    
   119   58  183 1    
   120   59   60 am   BACKBONE|DICT|INTERRES
   121   59  184 1    
   122   60   61 2    
   123   60   62 1    
   124   62   63 1    
   125   62   64 1    
   126   62  185 1    
   127   63  186 1    
   128   63  187 1    
   129   63  188 1    
   130   64   65 am   BACKBONE|DICT|INTERRES
   131   64  189 1    
   132   65   66 2    
   133   67   68 2    
   134   67   69 am   BACKBONE|DICT|INTERRES
   135   69   70 1    
   136   69  190 1    
   137   70   71 1    
   138   70   72 1    
   139   70  191 1    
   140   71  192 1    
   141   71  193 1    
   142   71  194 1    
   143   72   73 2    
   144   72   74 am   BACKBONE|DICT|INTERRES
   145   74   75 1    
   146   74  195 1    
   147   75   76 1    
   148   75   77 1    
   149   75  196 1    
   150   76  197 1    
   151   76  198 1    
   152   76  199 1    
   153   77   78 2    
   154   77   79 am   BACKBONE|DICT|INTERRES
   155   79   80 1    
   156   79  200 1    
   157   80   81 1    
   158   80   82 1    
   159   80  201 1    
   160   81  202 1    
   161   81  203 1    
   162   81  204 1    
   163   82   83 2    
   164   82   84 am   BACKBONE|DICT|INTERRES
   165   84   85 1    
   166   84  205 1    
   167   85   86 1    
   168   85   87 1    
   169   85  206 1    
   170   86  207 1    
   171   86  208 1    
   172   86  209 1    
   173   87   88 2    
   174   87   89 am   BACKBONE|DICT|INTERRES
   175   89   90 1    
   176   89  210 1    
   177   90   91 1    
   178   90   92 1    
   179   90  211 1    
   180   91  212 1    
   181   91  213 1    
   182   91  214 1    
   183   92   93 2    
   184   92   94 am   BACKBONE|DICT|INTERRES
   185   94   95 1    
   186   94  215 1    
   187   95   96 1    
   188   95   97 1    
   189   95  216 1    
   190   96  217 1    
   191   96  218 1    
   192   96  219 1    
   193   97   98 2    
   194   97   99 am   BACKBONE|DICT|INTERRES
   195   99  100 1    
   196   99  220 1    
   197  100  101 1    
   198  100  102 1    
   199  100  221 1    
   200  101  222 1    
   201  101  223 1    
   202  101  224 1    
   203  102  103 2    
   204  102  104 am   BACKBONE|DICT|INTERRES
   205  104  105 1    
   206  104  225 1    
   207  105  106 1    
   208  105  107 1    
   209  105  226 1    
   210  106  227 1    
   211  106  228 1    
   212  106  229 1    
   213  107  108 2    
   214  107  109 am   BACKBONE|DICT|INTERRES
   215  109  110 1    
   216  109  230 1    
   217  110  111 1    
   218  110  112 1    
   219  110  231 1    
   220  111  232 1    
   221  111  233 1    
   222  111  234 1    
   223  112  113 2    
   224  112  114 am   BACKBONE|DICT|INTERRES
   225  114  115 1    
   226  114  235 1    
   227  115  116 1    
   228  115  117 1    
   229  115  236 1    
   230  116  237 1    
   231  116  238 1    
   232  116  239 1    
   233  117  118 2    
   234  117  119 am   BACKBONE|DICT|INTERRES
   235  119  120 1    
   236  119  240 1    
   237  120  121 1    
   238  120  124 1    
   239  120  241 1    
   240  121  122 am   BACKBONE|DICT|INTERRES
   241  121  123 2    
   242  122  242 1    
   243  122  243 1    
   244  124  125 1    
   245  124  244 1    
   246  124  245 1    
   247  125  126 1    
   248  126  246 1    
   249  126  247 1    
@<TRIPOS>SUBSTRUCTURE
     1 UNK         1 GROUP             0       ****    0 ROOT    
