@<TRIPOS>MOLECULE
3R540
247   249    1
SMALL
USER_CHARGES


@<TRIPOS>ATOM
      1 CA         -2.6435  -13.6814  -48.4868 C.3       0 UNK        -0.1800 
      2 C          -1.4825  -12.7241  -48.7162 C.2       0 UNK         0.5000 
      3 O          -1.6986  -11.5690  -49.0828 O.2       0 UNK        -0.5000 
      4 N          -0.2504  -13.1946  -48.4931 N.am      1 UNK        -0.5000 
      5 CA          1.0251  -12.4845  -48.6724 C.3       1 UNK         0.1400 
      6 C6          2.2170  -13.4497  -48.9887 C.3       23 UNK        -0.0398 
      7 S7          1.9887  -15.1982  -48.4786 S.3       23 UNK        -0.2404 
      8 C8          1.6428  -15.9366  -50.1067 C.3       23 UNK        -0.0205 
      9 C9          0.8047  -17.2013  -50.0192 C.ar      23 UNK        -0.0193 
     10 C10        -0.5832  -17.1052  -49.8987 C.ar      23 UNK        -0.1150 
     11 C11        -1.3801  -18.2513  -49.9399 C.ar      23 UNK        -0.0193 
     12 C12        -0.7750  -19.5017  -50.0891 C.ar      23 UNK        -0.1150 
     13 C13         0.6180  -19.6204  -50.1811 C.ar      23 UNK        -0.0193 
     14 C14         1.3993  -18.4602  -50.1424 C.ar      23 UNK        -0.1150 
     15 C15         1.3097  -20.9707  -50.3842 C.3       23 UNK        -0.0205 
     16 S16         0.4558  -22.4136  -49.6601 S.3       23 UNK        -0.2404 
     17 C17         0.3896  -21.9313  -47.9053 C.3       23 UNK        -0.0398 
     18 CA         -0.0878  -23.0533  -46.9551 C.3       11 UNK         0.1400 
     19 N           0.1043  -22.6591  -45.5591 N.am      11 UNK        -0.5000 
     20 C          -0.0746  -23.4458  -44.4908 C.2       10 UNK         0.5000 
     21 O          -0.3762  -24.6357  -44.5591 O.2       10 UNK        -0.5000 
     22 CA          0.0398  -22.7700  -43.1131 C.3       10 UNK         0.1400 
     23 CB          1.5098  -22.5924  -42.7063 C.3       10 UNK        -0.1800 
     24 N          -0.6503  -21.4790  -43.0754 N.am      10 UNK        -0.5000 
     25 C          -1.9739  -21.3323  -43.2344 C.2       9 UNK         0.5000 
     26 O          -2.7519  -22.2790  -43.3563 O.2       9 UNK        -0.5000 
     27 CA         -2.5162  -19.8934  -43.3097 C.3       9 UNK         0.1400 
     28 CB         -2.6886  -19.3033  -41.9025 C.3       9 UNK        -0.1800 
     29 N          -1.6756  -19.0081  -44.1182 N.am      9 UNK        -0.5000 
     30 C          -1.4758  -19.1377  -45.4380 C.2       8 UNK         0.5000 
     31 O          -2.0155  -20.0019  -46.1256 O.2       8 UNK        -0.5000 
     32 CA         -0.4632  -18.1783  -46.0923 C.3       8 UNK         0.1400 
     33 CB         -1.1013  -16.8087  -46.3641 C.3       8 UNK        -0.1800 
     34 N           0.7476  -18.0136  -45.2874 N.am      8 UNK        -0.5000 
     35 C           1.5894  -19.0098  -44.9756 C.2       7 UNK         0.5000 
     36 O           1.4686  -20.1630  -45.3859 O.2       7 UNK        -0.5000 
     37 CA          2.7188  -18.6797  -43.9877 C.3       7 UNK         0.1400 
     38 CB          3.9113  -18.0349  -44.7094 C.3       7 UNK        -0.1800 
     39 N           2.2474  -17.8096  -42.9101 N.am      7 UNK        -0.5000 
     40 C           1.4267  -18.2103  -41.9278 C.2       6 UNK         0.5000 
     41 O           1.0240  -19.3670  -41.8058 O.2       6 UNK        -0.5000 
     42 CA          0.9417  -17.1312  -40.9411 C.3       6 UNK         0.1400 
     43 CB          1.9741  -16.9143  -39.8251 C.3       6 UNK        -0.1800 
     44 N           0.6608  -15.8536  -41.5972 N.am      6 UNK        -0.5000 
     45 C          -0.3281  -15.6578  -42.4812 C.2       5 UNK         0.5000 
     46 O          -1.1482  -16.5216  -42.7857 O.2       5 UNK        -0.5000 
     47 CA         -0.3810  -14.2856  -43.1798 C.3       5 UNK         0.1400 
     48 CB         -1.2652  -13.3140  -42.3854 C.3       5 UNK        -0.1800 
     49 N           0.9383  -13.6834  -43.3864 N.am      5 UNK        -0.5000 
     50 C           1.9407  -14.2293  -44.0895 C.2       4 UNK         0.5000 
     51 O           1.8409  -15.3184  -44.6558 O.2       4 UNK        -0.5000 
     52 CA          3.2729  -13.4508  -44.1386 C.3       4 UNK         0.1400 
     53 CB          4.1429  -13.8475  -45.3432 C.3       4 UNK        -0.1800 
     54 N           3.0622  -12.0023  -44.1527 N.am      4 UNK        -0.5000 
     55 C           2.9476  -11.2268  -43.0654 C.2       3 UNK         0.5000 
     56 O           3.0325  -11.6595  -41.9159 O.2       3 UNK        -0.5000 
     57 CA          2.6528   -9.7292  -43.2830 C.3       3 UNK         0.1400 
     58 CB          3.9425   -8.9045  -43.1549 C.3       3 UNK        -0.1800 
     59 N           2.0265   -9.4309  -44.5717 N.am      3 UNK        -0.5000 
     60 C           0.7973   -9.8111  -44.9465 C.2       2 UNK         0.5000 
     61 O           0.0293  -10.4469  -44.2240 O.2       2 UNK        -0.5000 
     62 CA          0.3520   -9.4327  -46.3746 C.3       2 UNK         0.1400 
     63 CB          1.1830   -8.2926  -47.0048 C.3       2 UNK        -0.1800 
     64 N           0.3225  -10.5837  -47.2820 N.am      2 UNK        -0.5000 
     65 C           1.3057  -11.4572  -47.5452 C.2       1 UNK         0.5000 
     66 O           2.3909  -11.4464  -46.9618 O.2       1 UNK        -0.5000 
     67 C          -1.5457  -23.4837  -47.2331 C.2       11 UNK         0.5000 
     68 O          -1.7617  -24.5179  -47.8669 O.2       11 UNK        -0.5000 
     69 N          -2.5226  -22.7179  -46.7249 N.am      12 UNK        -0.5000 
     70 CA         -3.9534  -23.0222  -46.8059 C.3       12 UNK         0.1400 
     71 CB         -4.7755  -21.8663  -46.2184 C.3       12 UNK        -0.1800 
     72 C          -4.3283  -24.3627  -46.1498 C.2       12 UNK         0.5000 
     73 O          -5.1566  -25.0912  -46.6959 O.2       12 UNK        -0.5000 
     74 N          -3.6920  -24.6746  -45.0148 N.am      13 UNK        -0.5000 
     75 CA         -3.8595  -25.9353  -44.3001 C.3       13 UNK         0.1400 
     76 CB         -3.3811  -25.7634  -42.8492 C.3       13 UNK        -0.1800 
     77 C          -3.1345  -27.1084  -44.9869 C.2       13 UNK         0.5000 
     78 O          -3.7575  -28.1394  -45.2432 O.2       13 UNK        -0.5000 
     79 N          -1.8284  -26.9499  -45.2374 N.am      14 UNK        -0.5000 
     80 CA         -0.9349  -28.0424  -45.6264 C.3       14 UNK         0.1400 
     81 CB          0.4919  -27.7113  -45.1614 C.3       14 UNK        -0.1800 
     82 C          -0.9344  -28.3554  -47.1313 C.2       14 UNK         0.5000 
     83 O          -0.7843  -29.5222  -47.4967 O.2       14 UNK        -0.5000 
     84 N          -1.0654  -27.3242  -47.9741 N.am      15 UNK        -0.5000 
     85 CA         -0.9061  -27.4131  -49.4293 C.3       15 UNK         0.1400 
     86 CB          0.2664  -26.5068  -49.8468 C.3       15 UNK        -0.1800 
     87 C          -2.1914  -27.0324  -50.1842 C.2       15 UNK         0.5000 
     88 O          -2.1464  -26.8722  -51.4051 O.2       15 UNK        -0.5000 
     89 N          -3.3048  -26.8525  -49.4558 N.am      16 UNK        -0.5000 
     90 CA         -4.6110  -26.3919  -49.9471 C.3       16 UNK         0.1400 
     91 CB         -5.2662  -27.4664  -50.8397 C.3       16 UNK        -0.1800 
     92 C          -4.5367  -25.0066  -50.6292 C.2       16 UNK         0.5000 
     93 O          -5.2667  -24.7470  -51.5862 O.2       16 UNK        -0.5000 
     94 N          -3.6182  -24.1635  -50.1334 N.am      17 UNK        -0.5000 
     95 CA         -3.2490  -22.8234  -50.6024 C.3       17 UNK         0.1400 
     96 CB         -4.4705  -21.8836  -50.6670 C.3       17 UNK        -0.1800 
     97 C          -2.4416  -22.8114  -51.9157 C.2       17 UNK         0.5000 
     98 O          -2.1039  -21.7293  -52.3927 O.2       17 UNK        -0.5000 
     99 N          -2.1355  -23.9907  -52.4782 N.am      18 UNK        -0.5000 
    100 CA        -1.4295  -24.2590  -53.7385 C.3       18 UNK         0.1400 
    101 CB         0.0053  -23.6980  -53.7105 C.3       18 UNK        -0.1800 
    102 C         -2.1873  -23.8141  -55.0093 C.2       18 UNK         0.5000 
    103 O         -2.2081  -24.5615  -55.9882 O.2       18 UNK        -0.5000 
    104 N         -2.8127  -22.6346  -54.9747 N.am      19 UNK        -0.5000 
    105 CA        -3.6617  -22.0627  -56.0109 C.3       19 UNK         0.1400 
    106 CB        -2.7921  -21.3362  -57.0528 C.3       19 UNK        -0.1800 
    107 C         -4.6590  -21.0959  -55.3544 C.2       19 UNK         0.5000 
    108 O         -4.4225  -20.6231  -54.2416 O.2       19 UNK        -0.5000 
    109 N         -5.7473  -20.7861  -56.0685 N.am      20 UNK        -0.5000 
    110 CA        -6.7922  -19.8562  -55.6234 C.3       20 UNK         0.1400 
    111 CB        -8.0596  -20.1091  -56.4555 C.3       20 UNK        -0.1800 
    112 C         -6.3820  -18.3693  -55.7044 C.2       20 UNK         0.5000 
    113 O         -7.1018  -17.5160  -55.1832 O.2       20 UNK        -0.5000 
    114 N         -5.2491  -18.0821  -56.3625 N.am      21 UNK        -0.5000 
    115 CA        -4.7286  -16.7474  -56.6720 C.3       21 UNK         0.1400 
    116 CB        -3.4226  -16.9021  -57.4669 C.3       21 UNK        -0.1800 
    117 C         -4.5106  -15.8220  -55.4579 C.2       21 UNK         0.5000 
    118 O         -4.6073  -14.6037  -55.6130 O.2       21 UNK        -0.5000 
    119 N         -4.2353  -16.4000  -54.2814 N.am      22 UNK        -0.5000 
    120 CA        -4.1268  -15.6697  -53.0080 C.3       22 UNK         0.1400 
    121 C         -5.4897  -15.3034  -52.3445 C.2       22 UNK         0.5000 
    122 N         -6.6326  -15.7363  -52.8658 N.am      22 UNK        -0.7600 
    123 O         -5.5114  -14.5917  -51.3441 O.2       22 UNK        -0.5000 
    124 C124       -3.1496  -16.3621  -52.0245 C.3       23 UNK        -0.0398 
    125 S125       -3.6670  -18.0314  -51.4932 S.3       23 UNK        -0.2404 
    126 C126       -2.8948  -18.1395  -49.8458 C.3       23 UNK        -0.0205 
    127 H127       -2.3008  -14.6715  -48.1873 H         1 UNK         0.0600 
    128 H128       -3.2299  -13.7868  -49.3998 H         1 UNK         0.0600 
    129 H129       -3.2971  -13.2971  -47.7038 H         1 UNK         0.0600 
    130 H130       -0.1372  -14.1456  -48.1707 H         1 UNK         0.3000 
    131 H131        0.9076  -11.8638  -49.5636 H         1 UNK         0.0600 
    132 H132        2.3965  -13.4299  -50.0641 H         1 UNK         0.0800 
    133 H133        3.1643  -13.1043  -48.5744 H         1 UNK         0.0800 
    134 H134        1.1082  -15.2200  -50.7323 H         1 UNK         0.0800 
    135 H135        2.5876  -16.1360  -50.6147 H         1 UNK         0.0800 
    136 H136       -1.0433  -16.1325  -49.8057 H         1 UNK         0.1150 
    137 H137       -1.3985  -20.3803  -50.1485 H         1 UNK         0.1150 
    138 H138        2.4730  -18.5335  -50.2445 H         1 UNK         0.1150 
    139 H139        1.4150  -21.1406  -51.4564 H         1 UNK         0.0800 
    140 H140        2.3210  -20.9356  -49.9761 H         1 UNK         0.0800 
    141 H141       -0.2416  -21.0490  -47.8011 H         1 UNK         0.0800 
    142 H142        1.3946  -21.6175  -47.6205 H         1 UNK         0.0800 
    143 H143        0.5435  -23.9281  -47.1251 H         1 UNK         0.0600 
    144 H144        0.4014  -21.6983  -45.4053 H         1 UNK         0.3000 
    145 H145       -0.4368  -23.4257  -42.3813 H         1 UNK         0.0600 
    146 H146        1.5925  -22.1741  -41.7031 H         1 UNK         0.0600 
    147 H147        2.0318  -23.5500  -42.7040 H         1 UNK         0.0600 
    148 H148        2.0420  -21.9302  -43.3890 H         1 UNK         0.0600 
    149 H149       -0.0766  -20.6564  -42.9204 H         1 UNK         0.3000 
    150 H150       -3.5007  -19.9352  -43.7798 H         1 UNK         0.0600 
    151 H151       -3.3236  -19.9410  -41.2862 H         1 UNK         0.0600 
    152 H152       -3.1573  -18.3199  -41.9429 H         1 UNK         0.0600 
    153 H153       -1.7324  -19.1969  -41.3899 H         1 UNK         0.0600 
    154 H154       -1.2480  -18.2235  -43.6338 H         1 UNK         0.3000 
    155 H155       -0.1643  -18.6075  -47.0510 H         1 UNK         0.0600 
    156 H156       -1.4618  -16.3403  -45.4495 H         1 UNK         0.0600 
    157 H157       -0.3914  -16.1286  -46.8332 H         1 UNK         0.0600 
    158 H158       -1.9539  -16.9082  -47.0360 H         1 UNK         0.0600 
    159 H159        0.9574  -17.0796  -44.9490 H         1 UNK         0.3000 
    160 H160        3.0630  -19.6157  -43.5429 H         1 UNK         0.0600 
    161 H161        3.6203  -17.1377  -45.2547 H         1 UNK         0.0600 
    162 H162        4.3412  -18.7266  -45.4347 H         1 UNK         0.0600 
    163 H163        4.7015  -17.7644  -44.0090 H         1 UNK         0.0600 
    164 H164        2.4697  -16.8282  -42.9929 H         1 UNK         0.3000 
    165 H165        0.0163  -17.4892  -40.4850 H         1 UNK         0.0600 
    166 H166        1.6067  -16.2083  -39.0801 H         1 UNK         0.0600 
    167 H167        2.1896  -17.8495  -39.3065 H         1 UNK         0.0600 
    168 H168        2.9174  -16.5304  -40.2157 H         1 UNK         0.0600 
    169 H169        1.2870  -15.0874  -41.3984 H         1 UNK         0.3000 
    170 H170       -0.8320  -14.4311  -44.1628 H         1 UNK         0.0600 
    171 H171       -2.2571  -13.7360  -42.2175 H         1 UNK         0.0600 
    172 H172       -0.8356  -13.0837  -41.4097 H         1 UNK         0.0600 
    173 H173       -1.4014  -12.3755  -42.9225 H         1 UNK         0.0600 
    174 H174        1.0939  -12.7810  -42.9599 H         1 UNK         0.3000 
    175 H175        3.8275  -13.7224  -43.2384 H         1 UNK         0.0600 
    176 H176        5.0540  -13.2510  -45.3884 H         1 UNK         0.0600 
    177 H177        3.6091  -13.7174  -46.2832 H         1 UNK         0.0600 
    178 H178        4.4447  -14.8929  -45.2821 H         1 UNK         0.0600 
    179 H179        2.9151  -11.5889  -45.0697 H         1 UNK         0.3000 
    180 H180        1.9654   -9.4144  -42.4952 H         1 UNK         0.0600 
    181 H181        4.6631   -9.1621  -43.9322 H         1 UNK         0.0600 
    182 H182        4.4234   -9.0775  -42.1911 H         1 UNK         0.0600 
    183 H183        3.7372   -7.8362  -43.2264 H         1 UNK         0.0600 
    184 H184        2.5960   -8.9383  -45.2443 H         1 UNK         0.3000 
    185 H185       -0.6767   -9.0799  -46.2879 H         1 UNK         0.0600 
    186 H186        1.2028   -7.4140  -46.3585 H         1 UNK         0.0600 
    187 H187        2.2142   -8.5899  -47.1993 H         1 UNK         0.0600 
    188 H188        0.7500   -7.9789  -47.9548 H         1 UNK         0.0600 
    189 H189       -0.5379  -10.7055  -47.8091 H         1 UNK         0.3000 
    190 H190       -2.2746  -21.8397  -46.2750 H         1 UNK         0.3000 
    191 H191       -4.2177  -23.0947  -47.8572 H         1 UNK         0.0600 
    192 H192       -4.5654  -20.9303  -46.7363 H         1 UNK         0.0600 
    193 H193       -5.8441  -22.0593  -46.3189 H         1 UNK         0.0600 
    194 H194       -4.5695  -21.7183  -45.1595 H         1 UNK         0.0600 
    195 H195       -3.0543  -23.9968  -44.6125 H         1 UNK         0.3000 
    196 H196       -4.9246  -26.1752  -44.2699 H         1 UNK         0.0600 
    197 H197       -3.5015  -26.6892  -42.2853 H         1 UNK         0.0600 
    198 H198       -3.9557  -24.9921  -42.3360 H         1 UNK         0.0600 
    199 H199       -2.3291  -25.4811  -42.7980 H         1 UNK         0.0600 
    200 H200       -1.3813  -26.0645  -45.0028 H         1 UNK         0.3000 
    201 H201       -1.2473  -28.9491  -45.1034 H         1 UNK         0.0600 
    202 H202        0.5261  -27.5355  -44.0861 H         1 UNK         0.0600 
    203 H203        0.8806  -26.8214  -45.6584 H         1 UNK         0.0600 
    204 H204        1.1754  -28.5331  -45.3789 H         1 UNK         0.0600 
    205 H205       -1.2250  -26.3902  -47.6075 H         1 UNK         0.3000 
    206 H206       -0.6642  -28.4335  -49.7320 H         1 UNK         0.0600 
    207 H207        1.1813  -26.7780  -49.3201 H         1 UNK         0.0600 
    208 H208        0.4717  -26.5912  -50.9147 H         1 UNK         0.0600 
    209 H209        0.0583  -25.4577  -49.6369 H         1 UNK         0.0600 
    210 H210       -3.2332  -26.9905  -48.4574 H         1 UNK         0.3000 
    211 H211       -5.2454  -26.2658  -49.0697 H         1 UNK         0.0600 
    212 H212       -4.7244  -27.6028  -51.7761 H         1 UNK         0.0600 
    213 H213       -6.2910  -27.1925  -51.0927 H         1 UNK         0.0600 
    214 H214       -5.3058  -28.4298  -50.3315 H         1 UNK         0.0600 
    215 H215       -3.0440  -24.5069  -49.3680 H         1 UNK         0.3000 
    216 H216       -2.5803  -22.4246  -49.8404 H         1 UNK         0.0600 
    217 H217       -4.1541  -20.8553  -50.8353 H         1 UNK         0.0600 
    218 H218       -5.0422  -21.8975  -49.7398 H         1 UNK         0.0600 
    219 H219       -5.1429  -22.1436  -51.4845 H         1 UNK         0.0600 
    220 H220       -2.4541  -24.8262  -52.0011 H         1 UNK         0.3000 
    221 H221       -1.3490  -25.3459  -53.7922 H         1 UNK         0.0600 
    222 H222        0.0191  -22.6080  -53.6902 H         1 UNK         0.0600 
    223 H223        0.5505  -24.0557  -52.8367 H         1 UNK         0.0600 
    224 H224        0.5615  -24.0127  -54.5942 H         1 UNK         0.0600 
    225 H225       -2.7546  -22.0818  -54.1197 H         1 UNK         0.3000 
    226 H226       -4.2270  -22.8619  -56.4947 H         1 UNK         0.0600 
    227 H227       -2.0879  -22.0204  -57.5264 H         1 UNK         0.0600 
    228 H228       -3.4034  -20.9038  -57.8456 H         1 UNK         0.0600 
    229 H229       -2.2178  -20.5268  -56.6000 H         1 UNK         0.0600 
    230 H230       -5.8770  -21.2049  -56.9787 H         1 UNK         0.3000 
    231 H231       -7.0250  -20.0693  -54.5778 H         1 UNK         0.0600 
    232 H232       -7.8908  -19.9141  -57.5153 H         1 UNK         0.0600 
    233 H233       -8.8779  -19.4653  -56.1298 H         1 UNK         0.0600 
    234 H234       -8.4003  -21.1395  -56.3526 H         1 UNK         0.0600 
    235 H235       -4.7283  -18.8583  -56.7408 H         1 UNK         0.3000 
    236 H236       -5.4628  -16.2597  -57.3162 H         1 UNK         0.0600 
    237 H237       -3.5850  -17.4565  -58.3914 H         1 UNK         0.0600 
    238 H238       -3.0131  -15.9290  -57.7420 H         1 UNK         0.0600 
    239 H239       -2.6612  -17.4273  -56.8887 H         1 UNK         0.0600 
    240 H240       -4.1924  -17.4078  -54.2240 H         1 UNK         0.3000 
    241 H241       -3.6711  -14.7038  -53.2346 H         1 UNK         0.0600 
    242 H242       -7.5012  -15.4804  -52.4246 H         1 UNK         0.3800 
    243 H243       -6.6495  -16.3232  -53.6941 H         1 UNK         0.3800 
    244 H244       -2.1648  -16.4473  -52.4858 H         1 UNK         0.0800 
    245 H245       -3.0094  -15.7321  -51.1452 H         1 UNK         0.0800 
    246 H246       -3.2930  -19.0109  -49.3237 H         1 UNK         0.0800 
    247 H247       -3.1803  -17.2731  -49.2474 H         1 UNK         0.0800 
@<TRIPOS>BOND
     1    1    2 1    
     2    1  127 1    
     3    1  128 1    
     4    1  129 1    
     5    2    3 2    
     6    2    4 am   BACKBONE|DICT|INTERRES
     7    4    5 1    
     8    4  130 1    
     9    5    6 1    
    10    5   65 1    
    11    5  131 1    
    12    6    7 1    
    13    6  132 1    
    14    6  133 1    
    15    7    8 1    
    16    8    9 1    
    17    8  134 1    
    18    8  135 1    
    19    9   10 ar   
    20    9   14 ar   
    21   10   11 ar   
    22   10  136 1    
    23   11   12 ar   
    24   11  126 1    
    25   12   13 ar   
    26   12  137 1    
    27   13   14 ar   
    28   13   15 1    
    29   14  138 1    
    30   15   16 1    
    31   15  139 1    
    32   15  140 1    
    33   16   17 1    
    34   17   18 1    
    35   17  141 1    
    36   17  142 1    
    37   18   19 1    
    38   18   67 1    
    39   18  143 1    
    40   19   20 am   BACKBONE|DICT|INTERRES
    41   19  144 1    
    42   20   21 2    
    43   20   22 1    
    44   22   23 1    
    45   22   24 1    
    46   22  145 1    
    47   23  146 1    
    48   23  147 1    
    49   23  148 1    
    50   24   25 am   BACKBONE|DICT|INTERRES
    51   24  149 1    
    52   25   26 2    
    53   25   27 1    
    54   27   28 1    
    55   27   29 1    
    56   27  150 1    
    57   28  151 1    
    58   28  152 1    
    59   28  153 1    
    60   29   30 am   BACKBONE|DICT|INTERRES
    61   29  154 1    
    62   30   31 2    
    63   30   32 1    
    64   32   33 1    
    65   32   34 1    
    66   32  155 1    
    67   33  156 1    
    68   33  157 1    
    69   33  158 1    
    70   34   35 am   BACKBONE|DICT|INTERRES
    71   34  159 1    
    72   35   36 2    
    73   35   37 1    
    74   37   38 1    
    75   37   39 1    
    76   37  160 1    
    77   38  161 1    
    78   38  162 1    
    79   38  163 1    
    80   39   40 am   BACKBONE|DICT|INTERRES
    81   39  164 1    
    82   40   41 2    
    83   40   42 1    
    84   42   43 1    
    85   42   44 1    
    86   42  165 1    
    87   43  166 1    
    88   43  167 1    
    89   43  168 1    
    90   44   45 am   BACKBONE|DICT|INTERRES
    91   44  169 1    
    92   45   46 2    
    93   45   47 1    
    94   47   48 1    
    95   47   49 1    
    96   47  170 1    
    97   48  171 1    
    98   48  172 1    
    99   48  173 1    
   100   49   50 am   BACKBONE|DICT|INTERRES
   101   49  174 1    
   102   50   51 2    
   103   50   52 1    
   104   52   53 1    
   105   52   54 1    
   106   52  175 1    
   107   53  176 1    
   108   53  177 1    
   109   53  178 1    
   110   54   55 am   BACKBONE|DICT|INTERRES
   111   54  179 1    
   112   55   56 2    
   113   55   57 1    
   114   57   58 1    
   115   57   59 1    
   116   57  180 1    
   117   58  181 1    
   118   58  182 1    
   119   58  183 1    
   120   59   60 am   BACKBONE|DICT|INTERRES
   121   59  184 1    
   122   60   61 2    
   123   60   62 1    
   124   62   63 1    
   125   62   64 1    
   126   62  185 1    
   127   63  186 1    
   128   63  187 1    
   129   63  188 1    
   130   64   65 am   BACKBONE|DICT|INTERRES
   131   64  189 1    
   132   65   66 2    
   133   67   68 2    
   134   67   69 am   BACKBONE|DICT|INTERRES
   135   69   70 1    
   136   69  190 1    
   137   70   71 1    
   138   70   72 1    
   139   70  191 1    
   140   71  192 1    
   141   71  193 1    
   142   71  194 1    
   143   72   73 2    
   144   72   74 am   BACKBONE|DICT|INTERRES
   145   74   75 1    
   146   74  195 1    
   147   75   76 1    
   148   75   77 1    
   149   75  196 1    
   150   76  197 1    
   151   76  198 1    
   152   76  199 1    
   153   77   78 2    
   154   77   79 am   BACKBONE|DICT|INTERRES
   155   79   80 1    
   156   79  200 1    
   157   80   81 1    
   158   80   82 1    
   159   80  201 1    
   160   81  202 1    
   161   81  203 1    
   162   81  204 1    
   163   82   83 2    
   164   82   84 am   BACKBONE|DICT|INTERRES
   165   84   85 1    
   166   84  205 1    
   167   85   86 1    
   168   85   87 1    
   169   85  206 1    
   170   86  207 1    
   171   86  208 1    
   172   86  209 1    
   173   87   88 2    
   174   87   89 am   BACKBONE|DICT|INTERRES
   175   89   90 1    
   176   89  210 1    
   177   90   91 1    
   178   90   92 1    
   179   90  211 1    
   180   91  212 1    
   181   91  213 1    
   182   91  214 1    
   183   92   93 2    
   184   92   94 am   BACKBONE|DICT|INTERRES
   185   94   95 1    
   186   94  215 1    
   187   95   96 1    
   188   95   97 1    
   189   95  216 1    
   190   96  217 1    
   191   96  218 1    
   192   96  219 1    
   193   97   98 2    
   194   97   99 am   BACKBONE|DICT|INTERRES
   195   99  100 1    
   196   99  220 1    
   197  100  101 1    
   198  100  102 1    
   199  100  221 1    
   200  101  222 1    
   201  101  223 1    
   202  101  224 1    
   203  102  103 2    
   204  102  104 am   BACKBONE|DICT|INTERRES
   205  104  105 1    
   206  104  225 1    
   207  105  106 1    
   208  105  107 1    
   209  105  226 1    
   210  106  227 1    
   211  106  228 1    
   212  106  229 1    
   213  107  108 2    
   214  107  109 am   BACKBONE|DICT|INTERRES
   215  109  110 1    
   216  109  230 1    
   217  110  111 1    
   218  110  112 1    
   219  110  231 1    
   220  111  232 1    
   221  111  233 1    
   222  111  234 1    
   223  112  113 2    
   224  112  114 am   BACKBONE|DICT|INTERRES
   225  114  115 1    
   226  114  235 1    
   227  115  116 1    
   228  115  117 1    
   229  115  236 1    
   230  116  237 1    
   231  116  238 1    
   232  116  239 1    
   233  117  118 2    
   234  117  119 am   BACKBONE|DICT|INTERRES
   235  119  120 1    
   236  119  240 1    
   237  120  121 1    
   238  120  124 1    
   239  120  241 1    
   240  121  122 am   BACKBONE|DICT|INTERRES
   241  121  123 2    
   242  122  242 1    
   243  122  243 1    
   244  124  125 1    
   245  124  244 1    
   246  124  245 1    
   247  125  126 1    
   248  126  246 1    
   249  126  247 1    
@<TRIPOS>SUBSTRUCTURE
     1 UNK         1 GROUP             0       ****    0 ROOT    
