@<TRIPOS>MOLECULE
3R540
247   249    1
SMALL
USER_CHARGES


@<TRIPOS>ATOM
      1 CA          2.1279  -12.5756  -44.8252 C.3       0 UNK        -0.1800 
      2 C           1.1466  -13.5551  -45.4501 C.2       0 UNK         0.5000 
      3 O           0.2041  -13.9884  -44.7875 O.2       0 UNK        -0.5000 
      4 N           1.3486  -13.8838  -46.7334 N.am      1 UNK        -0.5000 
      5 CA          0.5641  -14.8472  -47.5235 C.3       1 UNK         0.1400 
      6 C6          1.1831  -15.0377  -48.9322 C.3       23 UNK        -0.0398 
      7 S7          0.8927  -16.6977  -49.6303 S.3       23 UNK        -0.2404 
      8 C8          2.4435  -16.9408  -50.5526 C.3       23 UNK        -0.0205 
      9 C9          2.4376  -18.2501  -51.3252 C.ar      23 UNK        -0.0193 
     10 C10         1.9833  -18.2883  -52.6475 C.ar      23 UNK        -0.1150 
     11 C11         1.9732  -19.4924  -53.3583 C.ar      23 UNK        -0.0193 
     12 C12         2.4288  -20.6600  -52.7417 C.ar      23 UNK        -0.1150 
     13 C13         2.8833  -20.6345  -51.4209 C.ar      23 UNK        -0.0193 
     14 C14         2.8900  -19.4253  -50.7186 C.ar      23 UNK        -0.1150 
     15 C15         3.3518  -21.9189  -50.7533 C.3       23 UNK        -0.0205 
     16 S16         1.9622  -23.0476  -50.4216 S.3       23 UNK        -0.2404 
     17 C17         0.9738  -22.0637  -49.2446 C.3       23 UNK        -0.0398 
     18 CA          0.5317  -22.8765  -48.0045 C.3       11 UNK         0.1400 
     19 N           1.6863  -23.4143  -47.2779 N.am      11 UNK        -0.5000 
     20 C           1.6740  -24.4252  -46.4006 C.2       10 UNK         0.5000 
     21 O           0.6556  -25.0471  -46.0960 O.2       10 UNK        -0.5000 
     22 CA          3.0150  -24.8053  -45.7407 C.3       10 UNK         0.1400 
     23 CB          3.4230  -26.2300  -46.1482 C.3       10 UNK        -0.1800 
     24 N           4.1222  -23.8981  -46.0719 N.am      10 UNK        -0.5000 
     25 C           4.3995  -22.6894  -45.5600 C.2       9 UNK         0.5000 
     26 O           5.3733  -22.0454  -45.9546 O.2       9 UNK        -0.5000 
     27 CA          3.5101  -22.0834  -44.4554 C.3       9 UNK         0.1400 
     28 CB          3.9173  -22.5967  -43.0624 C.3       9 UNK        -0.1800 
     29 N           3.6772  -20.6332  -44.4785 N.am      9 UNK        -0.5000 
     30 C           2.7150  -19.7337  -44.2663 C.2       8 UNK         0.5000 
     31 O           1.5349  -20.0198  -44.0597 O.2       8 UNK        -0.5000 
     32 CA          3.1352  -18.2598  -44.3018 C.3       8 UNK         0.1400 
     33 CB          2.6850  -17.5980  -45.6205 C.3       8 UNK        -0.1800 
     34 N           2.5560  -17.5896  -43.1378 N.am      8 UNK        -0.5000 
     35 C           2.9260  -16.3907  -42.6677 C.2       7 UNK         0.5000 
     36 O           3.7873  -15.6916  -43.2019 O.2       7 UNK        -0.5000 
     37 CA          2.2413  -15.8728  -41.3863 C.3       7 UNK         0.1400 
     38 CB          1.2268  -14.7667  -41.7106 C.3       7 UNK        -0.1800 
     39 N           1.5584  -16.9165  -40.6212 N.am      7 UNK        -0.5000 
     40 C           2.1396  -17.6661  -39.6736 C.2       6 UNK         0.5000 
     41 O           3.3356  -17.6010  -39.3879 O.2       6 UNK        -0.5000 
     42 CA          1.2303  -18.6488  -38.9094 C.3       6 UNK         0.1400 
     43 CB          0.6605  -17.9839  -37.6472 C.3       6 UNK        -0.1800 
     44 N           0.1240  -19.1306  -39.7354 N.am      6 UNK        -0.5000 
     45 C           0.2616  -20.0303  -40.7154 C.2       5 UNK         0.5000 
     46 O           1.3088  -20.6364  -40.9389 O.2       5 UNK        -0.5000 
     47 CA         -0.9548  -20.2587  -41.6291 C.3       5 UNK         0.1400 
     48 CB         -2.3062  -20.2494  -40.8833 C.3       5 UNK        -0.1800 
     49 N          -0.9542  -19.3212  -42.7555 N.am      5 UNK        -0.5000 
     50 C          -1.0742  -17.9864  -42.7311 C.2       4 UNK         0.5000 
     51 O          -1.2161  -17.3311  -41.6958 O.2       4 UNK        -0.5000 
     52 CA         -0.9347  -17.2547  -44.0852 C.3       4 UNK         0.1400 
     53 CB         -1.3184  -18.1159  -45.3016 C.3       4 UNK        -0.1800 
     54 N          -1.6373  -15.9743  -44.1236 N.am      4 UNK        -0.5000 
     55 C          -2.9427  -15.7429  -43.9262 C.2       3 UNK         0.5000 
     56 O          -3.7869  -16.6201  -43.7398 O.2       3 UNK        -0.5000 
     57 CA         -3.3743  -14.2684  -43.9690 C.3       3 UNK         0.1400 
     58 CB         -2.9317  -13.5385  -42.6903 C.3       3 UNK        -0.1800 
     59 N          -2.7884  -13.6006  -45.1313 N.am      3 UNK        -0.5000 
     60 C          -3.4681  -13.2329  -46.2253 C.2       2 UNK         0.5000 
     61 O          -4.6900  -13.3205  -46.3351 O.2       2 UNK        -0.5000 
     62 CA         -2.6504  -12.6982  -47.4196 C.3       2 UNK         0.1400 
     63 CB         -2.6075  -11.1632  -47.3961 C.3       2 UNK        -0.1800 
     64 N          -1.2802  -13.2117  -47.4754 N.am      2 UNK        -0.5000 
     65 C          -0.9410  -14.5016  -47.6164 C.2       1 UNK         0.5000 
     66 O          -1.7665  -15.4001  -47.7751 O.2       1 UNK        -0.5000 
     67 C          -0.3791  -22.0421  -47.0749 C.2       11 UNK         0.5000 
     68 O          -0.4789  -20.8265  -47.2386 O.2       11 UNK        -0.5000 
     69 N          -0.9967  -22.7094  -46.0935 N.am      12 UNK        -0.5000 
     70 CA         -1.9272  -22.1321  -45.1266 C.3       12 UNK         0.1400 
     71 CB         -2.1891  -23.1680  -44.0217 C.3       12 UNK        -0.1800 
     72 C          -3.2490  -21.6608  -45.7662 C.2       12 UNK         0.5000 
     73 O          -3.5951  -22.1038  -46.8631 O.2       12 UNK        -0.5000 
     74 N          -3.9617  -20.7975  -45.0272 N.am      13 UNK        -0.5000 
     75 CA         -5.1867  -20.0705  -45.3846 C.3       13 UNK         0.1400 
     76 CB         -6.3149  -21.0141  -45.8455 C.3       13 UNK        -0.1800 
     77 C          -4.9367  -18.9309  -46.3926 C.2       13 UNK         0.5000 
     78 O          -4.0105  -18.9976  -47.2030 O.2       13 UNK        -0.5000 
     79 N          -5.7716  -17.8887  -46.2928 N.am      14 UNK        -0.5000 
     80 CA         -5.6386  -16.5936  -46.9637 C.3       14 UNK         0.1400 
     81 CB         -6.9013  -15.7643  -46.6834 C.3       14 UNK        -0.1800 
     82 C          -5.3800  -16.6777  -48.4789 C.2       14 UNK         0.5000 
     83 O          -6.1402  -17.3352  -49.1937 O.2       14 UNK        -0.5000 
     84 N          -4.3086  -16.0080  -48.9248 N.am      15 UNK        -0.5000 
     85 CA         -3.8157  -15.9358  -50.3014 C.3       15 UNK         0.1400 
     86 CB         -4.8065  -15.1616  -51.1958 C.3       15 UNK        -0.1800 
     87 C          -3.4395  -17.3213  -50.8594 C.2       15 UNK         0.5000 
     88 O          -3.7767  -17.6306  -52.0022 O.2       15 UNK        -0.5000 
     89 N          -2.7800  -18.1394  -50.0236 N.am      16 UNK        -0.5000 
     90 CA         -2.3870  -19.5291  -50.2865 C.3       16 UNK         0.1400 
     91 CB         -1.2980  -19.5758  -51.3753 C.3       16 UNK        -0.1800 
     92 C          -3.6100  -20.4148  -50.6043 C.2       16 UNK         0.5000 
     93 O          -3.6411  -21.1046  -51.6276 O.2       16 UNK        -0.5000 
     94 N          -4.6190  -20.3185  -49.7265 N.am      17 UNK        -0.5000 
     95 CA         -5.9514  -20.9192  -49.8272 C.3       17 UNK         0.1400 
     96 CB         -5.8639  -22.4545  -49.6924 C.3       17 UNK        -0.1800 
     97 C          -6.6960  -20.4704  -51.1011 C.2       17 UNK         0.5000 
     98 O          -7.2151  -21.3081  -51.8376 O.2       17 UNK        -0.5000 
     99 N          -6.6955  -19.1549  -51.3642 N.am      18 UNK        -0.5000 
    100 CA        -7.2066  -18.5057  -52.5795 C.3       18 UNK         0.1400 
    101 CB        -8.7484  -18.5406  -52.6030 C.3       18 UNK        -0.1800 
    102 C         -6.5648  -19.0773  -53.8651 C.2       18 UNK         0.5000 
    103 O         -7.2634  -19.4008  -54.8272 O.2       18 UNK        -0.5000 
    104 N         -5.2346  -19.2235  -53.8191 N.am      19 UNK        -0.5000 
    105 CA        -4.3360  -19.8067  -54.8168 C.3       19 UNK         0.1400 
    106 CB        -4.3670  -19.0013  -56.1311 C.3       19 UNK        -0.1800 
    107 C         -4.5100  -21.3226  -55.0552 C.2       19 UNK         0.5000 
    108 O         -3.8719  -21.8577  -55.9648 O.2       19 UNK        -0.5000 
    109 N         -5.3115  -22.0205  -54.2355 N.am      20 UNK        -0.5000 
    110 CA        -5.4978  -23.4717  -54.3314 C.3       20 UNK         0.1400 
    111 CB        -6.6981  -23.9161  -53.4848 C.3       20 UNK        -0.1800 
    112 C         -4.2379  -24.2671  -53.9435 C.2       20 UNK         0.5000 
    113 O         -4.0342  -25.3584  -54.4769 O.2       20 UNK        -0.5000 
    114 N         -3.4026  -23.7076  -53.0547 N.am      21 UNK        -0.5000 
    115 CA        -2.0982  -24.2746  -52.7088 C.3       21 UNK         0.1400 
    116 CB        -1.6888  -23.8056  -51.3056 C.3       21 UNK        -0.1800 
    117 C         -1.0160  -23.9372  -53.7561 C.2       21 UNK         0.5000 
    118 O         -0.0275  -24.6664  -53.8475 O.2       21 UNK        -0.5000 
    119 N         -1.2218  -22.8676  -54.5394 N.am      22 UNK        -0.5000 
    120 CA        -0.3821  -22.5128  -55.6966 C.3       22 UNK         0.1400 
    121 C         -0.6422  -23.4474  -56.9080 C.2       22 UNK         0.5000 
    122 N         -1.8981  -23.7156  -57.2465 N.am      22 UNK        -0.7600 
    123 O          0.2939  -23.9269  -57.5415 O.2       22 UNK        -0.5000 
    124 C124       -0.5335  -21.0331  -56.1413 C.3       23 UNK        -0.0398 
    125 S125       -0.3440  -19.8360  -54.7841 S.3       23 UNK        -0.2404 
    126 C126        1.4496  -19.5444  -54.7832 C.3       23 UNK        -0.0205 
    127 H127        2.6682  -12.0091  -45.5838 H         1 UNK         0.0600 
    128 H128        1.5999  -11.8679  -44.1861 H         1 UNK         0.0600 
    129 H129        2.8551  -13.1125  -44.2166 H         1 UNK         0.0600 
    130 H130        2.1348  -13.4697  -47.2138 H         1 UNK         0.3000 
    131 H131        0.6303  -15.7945  -46.9851 H         1 UNK         0.0600 
    132 H132        0.8271  -14.2829  -49.6361 H         1 UNK         0.0800 
    133 H133        2.2635  -14.8972  -48.8765 H         1 UNK         0.0800 
    134 H134        2.5913  -16.1055  -51.2391 H         1 UNK         0.0800 
    135 H135        3.2857  -16.9241  -49.8588 H         1 UNK         0.0800 
    136 H136        1.6215  -17.3850  -53.1181 H         1 UNK         0.1150 
    137 H137        2.4093  -21.5965  -53.2817 H         1 UNK         0.1150 
    138 H138        3.2362  -19.3979  -49.6950 H         1 UNK         0.1150 
    139 H139        4.0686  -22.4215  -51.4041 H         1 UNK         0.0800 
    140 H140        3.8793  -21.7069  -49.8219 H         1 UNK         0.0800 
    141 H141        0.1047  -21.6831  -49.7805 H         1 UNK         0.0800 
    142 H142        1.5421  -21.1869  -48.9310 H         1 UNK         0.0800 
    143 H143       -0.0672  -23.7175  -48.3614 H         1 UNK         0.0600 
    144 H144        2.5736  -22.9815  -47.4859 H         1 UNK         0.3000 
    145 H145        2.8518  -24.8065  -44.6633 H         1 UNK         0.0600 
    146 H146        3.5911  -26.3088  -47.2231 H         1 UNK         0.0600 
    147 H147        4.3376  -26.5387  -45.6415 H         1 UNK         0.0600 
    148 H148        2.6497  -26.9526  -45.8836 H         1 UNK         0.0600 
    149 H149        4.7460  -24.2462  -46.7852 H         1 UNK         0.3000 
    150 H150        2.4664  -22.3335  -44.6482 H         1 UNK         0.0600 
    151 H151        3.8417  -23.6807  -42.9874 H         1 UNK         0.0600 
    152 H152        3.2755  -22.1751  -42.2884 H         1 UNK         0.0600 
    153 H153        4.9466  -22.3269  -42.8228 H         1 UNK         0.0600 
    154 H154        4.6086  -20.3299  -44.7334 H         1 UNK         0.3000 
    155 H155        4.2228  -18.1973  -44.2256 H         1 UNK         0.0600 
    156 H156        3.1936  -18.0523  -46.4715 H         1 UNK         0.0600 
    157 H157        2.9135  -16.5327  -45.6419 H         1 UNK         0.0600 
    158 H158        1.6156  -17.7156  -45.7901 H         1 UNK         0.0600 
    159 H159        1.8913  -18.1446  -42.6161 H         1 UNK         0.3000 
    160 H160        3.0215  -15.4281  -40.7647 H         1 UNK         0.0600 
    161 H161        0.4160  -15.1336  -42.3378 H         1 UNK         0.0600 
    162 H162        1.7025  -13.9391  -42.2358 H         1 UNK         0.0600 
    163 H163        0.7845  -14.3584  -40.8018 H         1 UNK         0.0600 
    164 H164        0.5659  -17.0335  -40.7994 H         1 UNK         0.3000 
    165 H165        1.8398  -19.5011  -38.6010 H         1 UNK         0.0600 
    166 H166        0.0596  -18.6860  -37.0690 H         1 UNK         0.0600 
    167 H167        1.4618  -17.6304  -36.9969 H         1 UNK         0.0600 
    168 H168        0.0329  -17.1258  -37.8916 H         1 UNK         0.0600 
    169 H169       -0.7573  -18.6428  -39.6529 H         1 UNK         0.3000 
    170 H170       -0.8292  -21.2534  -42.0590 H         1 UNK         0.0600 
    171 H171       -2.5562  -19.2705  -40.4744 H         1 UNK         0.0600 
    172 H172       -3.1183  -20.5433  -41.5481 H         1 UNK         0.0600 
    173 H173       -2.2965  -20.9579  -40.0541 H         1 UNK         0.0600 
    174 H174       -0.6337  -19.7242  -43.6270 H         1 UNK         0.3000 
    175 H175        0.1177  -16.9967  -44.1821 H         1 UNK         0.0600 
    176 H176       -0.6346  -18.9543  -45.4253 H         1 UNK         0.0600 
    177 H177       -2.3245  -18.5154  -45.2000 H         1 UNK         0.0600 
    178 H178       -1.2810  -17.5424  -46.2270 H         1 UNK         0.0600 
    179 H179       -1.0269  -15.1721  -44.2640 H         1 UNK         0.3000 
    180 H180       -4.4651  -14.2412  -44.0140 H         1 UNK         0.0600 
    181 H181       -3.2892  -12.5088  -42.6836 H         1 UNK         0.0600 
    182 H182       -1.8455  -13.5152  -42.5907 H         1 UNK         0.0600 
    183 H183       -3.3326  -14.0290  -41.8024 H         1 UNK         0.0600 
    184 H184       -1.7777  -13.5246  -45.1433 H         1 UNK         0.3000 
    185 H185       -3.1609  -13.0129  -48.3323 H         1 UNK         0.0600 
    186 H186       -2.0834  -10.7892  -46.5156 H         1 UNK         0.0600 
    187 H187       -2.1061  -10.7683  -48.2799 H         1 UNK         0.0600 
    188 H188       -3.6146  -10.7443  -47.3814 H         1 UNK         0.0600 
    189 H189       -0.5402  -12.5387  -47.3388 H         1 UNK         0.3000 
    190 H190       -0.8139  -23.7041  -46.0153 H         1 UNK         0.3000 
    191 H191       -1.4377  -21.2650  -44.6829 H         1 UNK         0.0600 
    192 H192       -2.6699  -24.0628  -44.4190 H         1 UNK         0.0600 
    193 H193       -2.8388  -22.7641  -43.2444 H         1 UNK         0.0600 
    194 H194       -1.2601  -23.4734  -43.5393 H         1 UNK         0.0600 
    195 H195       -3.5729  -20.5228  -44.1374 H         1 UNK         0.3000 
    196 H196       -5.5145  -19.6031  -44.4544 H         1 UNK         0.0600 
    197 H197       -7.2511  -20.4695  -45.9726 H         1 UNK         0.0600 
    198 H198       -6.4940  -21.8008  -45.1128 H         1 UNK         0.0600 
    199 H199       -6.0896  -21.4902  -46.7981 H         1 UNK         0.0600 
    200 H200       -6.5172  -17.9436  -45.6152 H         1 UNK         0.3000 
    201 H201       -4.7900  -16.0893  -46.4981 H         1 UNK         0.0600 
    202 H202       -7.0187  -15.5718  -45.6168 H         1 UNK         0.0600 
    203 H203       -7.8003  -16.2695  -47.0385 H         1 UNK         0.0600 
    204 H204       -6.8528  -14.7954  -47.1822 H         1 UNK         0.0600 
    205 H205       -3.6765  -15.5994  -48.2437 H         1 UNK         0.3000 
    206 H206       -2.8881  -15.3628  -50.2699 H         1 UNK         0.0600 
    207 H207       -4.3998  -15.0188  -52.1976 H         1 UNK         0.0600 
    208 H208       -5.7563  -15.6854  -51.3001 H         1 UNK         0.0600 
    209 H209       -5.0136  -14.1728  -50.7868 H         1 UNK         0.0600 
    210 H210       -2.5968  -17.8070  -49.0856 H         1 UNK         0.3000 
    211 H211       -1.9553  -19.9160  -49.3627 H         1 UNK         0.0600 
    212 H212       -0.9716  -20.5918  -51.5870 H         1 UNK         0.0600 
    213 H213       -0.4165  -19.0151  -51.0695 H         1 UNK         0.0600 
    214 H214       -1.6527  -19.1520  -52.3133 H         1 UNK         0.0600 
    215 H215       -4.4618  -19.7366  -48.9070 H         1 UNK         0.3000 
    216 H216       -6.5288  -20.5377  -48.9846 H         1 UNK         0.0600 
    217 H217       -6.8571  -22.9044  -49.6826 H         1 UNK         0.0600 
    218 H218       -5.3693  -22.7432  -48.7662 H         1 UNK         0.0600 
    219 H219       -5.3079  -22.9037  -50.5154 H         1 UNK         0.0600 
    220 H220       -6.2830  -18.5312  -50.6739 H         1 UNK         0.3000 
    221 H221       -6.9001  -17.4608  -52.5230 H         1 UNK         0.0600 
    222 H222       -9.1300  -19.5581  -52.6930 H         1 UNK         0.0600 
    223 H223       -9.1650  -18.1052  -51.6947 H         1 UNK         0.0600 
    224 H224       -9.1388  -17.9688  -53.4455 H         1 UNK         0.0600 
    225 H225       -4.7590  -18.8744  -52.9889 H         1 UNK         0.3000 
    226 H226       -3.3383  -19.6948  -54.3915 H         1 UNK         0.0600 
    227 H227       -5.3168  -19.1143  -56.6541 H         1 UNK         0.0600 
    228 H228       -4.2079  -17.9391  -55.9454 H         1 UNK         0.0600 
    229 H229       -3.5804  -19.3300  -56.8110 H         1 UNK         0.0600 
    230 H230       -5.7997  -21.5427  -53.4868 H         1 UNK         0.3000 
    231 H231       -5.7250  -23.7067  -55.3735 H         1 UNK         0.0600 
    232 H232       -6.9157  -24.9727  -53.6452 H         1 UNK         0.0600 
    233 H233       -7.5964  -23.3558  -53.7445 H         1 UNK         0.0600 
    234 H234       -6.5115  -23.7825  -52.4196 H         1 UNK         0.0600 
    235 H235       -3.6328  -22.8050  -52.6461 H         1 UNK         0.3000 
    236 H236       -2.1875  -25.3625  -52.6727 H         1 UNK         0.0600 
    237 H237       -1.5094  -22.7339  -51.2790 H         1 UNK         0.0600 
    238 H238       -2.4588  -24.0351  -50.5688 H         1 UNK         0.0600 
    239 H239       -0.7719  -24.3005  -50.9850 H         1 UNK         0.0600 
    240 H240       -2.0709  -22.3361  -54.4237 H         1 UNK         0.3000 
    241 H241        0.6595  -22.6513  -55.3996 H         1 UNK         0.0600 
    242 H242       -2.0866  -24.3230  -58.0278 H         1 UNK         0.3800 
    243 H243       -2.6658  -23.2596  -56.7641 H         1 UNK         0.3800 
    244 H244       -1.5158  -20.8643  -56.5834 H         1 UNK         0.0800 
    245 H245        0.1864  -20.7945  -56.9262 H         1 UNK         0.0800 
    246 H246        1.6652  -18.6105  -55.3040 H         1 UNK         0.0800 
    247 H247        1.9654  -20.3319  -55.3345 H         1 UNK         0.0800 
@<TRIPOS>BOND
     1    1    2 1    
     2    1  127 1    
     3    1  128 1    
     4    1  129 1    
     5    2    3 2    
     6    2    4 am   BACKBONE|DICT|INTERRES
     7    4    5 1    
     8    4  130 1    
     9    5    6 1    
    10    5   65 1    
    11    5  131 1    
    12    6    7 1    
    13    6  132 1    
    14    6  133 1    
    15    7    8 1    
    16    8    9 1    
    17    8  134 1    
    18    8  135 1    
    19    9   10 ar   
    20    9   14 ar   
    21   10   11 ar   
    22   10  136 1    
    23   11   12 ar   
    24   11  126 1    
    25   12   13 ar   
    26   12  137 1    
    27   13   14 ar   
    28   13   15 1    
    29   14  138 1    
    30   15   16 1    
    31   15  139 1    
    32   15  140 1    
    33   16   17 1    
    34   17   18 1    
    35   17  141 1    
    36   17  142 1    
    37   18   19 1    
    38   18   67 1    
    39   18  143 1    
    40   19   20 am   BACKBONE|DICT|INTERRES
    41   19  144 1    
    42   20   21 2    
    43   20   22 1    
    44   22   23 1    
    45   22   24 1    
    46   22  145 1    
    47   23  146 1    
    48   23  147 1    
    49   23  148 1    
    50   24   25 am   BACKBONE|DICT|INTERRES
    51   24  149 1    
    52   25   26 2    
    53   25   27 1    
    54   27   28 1    
    55   27   29 1    
    56   27  150 1    
    57   28  151 1    
    58   28  152 1    
    59   28  153 1    
    60   29   30 am   BACKBONE|DICT|INTERRES
    61   29  154 1    
    62   30   31 2    
    63   30   32 1    
    64   32   33 1    
    65   32   34 1    
    66   32  155 1    
    67   33  156 1    
    68   33  157 1    
    69   33  158 1    
    70   34   35 am   BACKBONE|DICT|INTERRES
    71   34  159 1    
    72   35   36 2    
    73   35   37 1    
    74   37   38 1    
    75   37   39 1    
    76   37  160 1    
    77   38  161 1    
    78   38  162 1    
    79   38  163 1    
    80   39   40 am   BACKBONE|DICT|INTERRES
    81   39  164 1    
    82   40   41 2    
    83   40   42 1    
    84   42   43 1    
    85   42   44 1    
    86   42  165 1    
    87   43  166 1    
    88   43  167 1    
    89   43  168 1    
    90   44   45 am   BACKBONE|DICT|INTERRES
    91   44  169 1    
    92   45   46 2    
    93   45   47 1    
    94   47   48 1    
    95   47   49 1    
    96   47  170 1    
    97   48  171 1    
    98   48  172 1    
    99   48  173 1    
   100   49   50 am   BACKBONE|DICT|INTERRES
   101   49  174 1    
   102   50   51 2    
   103   50   52 1    
   104   52   53 1    
   105   52   54 1    
   106   52  175 1    
   107   53  176 1    
   108   53  177 1    
   109   53  178 1    
   110   54   55 am   BACKBONE|DICT|INTERRES
   111   54  179 1    
   112   55   56 2    
   113   55   57 1    
   114   57   58 1    
   115   57   59 1    
   116   57  180 1    
   117   58  181 1    
   118   58  182 1    
   119   58  183 1    
   120   59   60 am   BACKBONE|DICT|INTERRES
   121   59  184 1    
   122   60   61 2    
   123   60   62 1    
   124   62   63 1    
   125   62   64 1    
   126   62  185 1    
   127   63  186 1    
   128   63  187 1    
   129   63  188 1    
   130   64   65 am   BACKBONE|DICT|INTERRES
   131   64  189 1    
   132   65   66 2    
   133   67   68 2    
   134   67   69 am   BACKBONE|DICT|INTERRES
   135   69   70 1    
   136   69  190 1    
   137   70   71 1    
   138   70   72 1    
   139   70  191 1    
   140   71  192 1    
   141   71  193 1    
   142   71  194 1    
   143   72   73 2    
   144   72   74 am   BACKBONE|DICT|INTERRES
   145   74   75 1    
   146   74  195 1    
   147   75   76 1    
   148   75   77 1    
   149   75  196 1    
   150   76  197 1    
   151   76  198 1    
   152   76  199 1    
   153   77   78 2    
   154   77   79 am   BACKBONE|DICT|INTERRES
   155   79   80 1    
   156   79  200 1    
   157   80   81 1    
   158   80   82 1    
   159   80  201 1    
   160   81  202 1    
   161   81  203 1    
   162   81  204 1    
   163   82   83 2    
   164   82   84 am   BACKBONE|DICT|INTERRES
   165   84   85 1    
   166   84  205 1    
   167   85   86 1    
   168   85   87 1    
   169   85  206 1    
   170   86  207 1    
   171   86  208 1    
   172   86  209 1    
   173   87   88 2    
   174   87   89 am   BACKBONE|DICT|INTERRES
   175   89   90 1    
   176   89  210 1    
   177   90   91 1    
   178   90   92 1    
   179   90  211 1    
   180   91  212 1    
   181   91  213 1    
   182   91  214 1    
   183   92   93 2    
   184   92   94 am   BACKBONE|DICT|INTERRES
   185   94   95 1    
   186   94  215 1    
   187   95   96 1    
   188   95   97 1    
   189   95  216 1    
   190   96  217 1    
   191   96  218 1    
   192   96  219 1    
   193   97   98 2    
   194   97   99 am   BACKBONE|DICT|INTERRES
   195   99  100 1    
   196   99  220 1    
   197  100  101 1    
   198  100  102 1    
   199  100  221 1    
   200  101  222 1    
   201  101  223 1    
   202  101  224 1    
   203  102  103 2    
   204  102  104 am   BACKBONE|DICT|INTERRES
   205  104  105 1    
   206  104  225 1    
   207  105  106 1    
   208  105  107 1    
   209  105  226 1    
   210  106  227 1    
   211  106  228 1    
   212  106  229 1    
   213  107  108 2    
   214  107  109 am   BACKBONE|DICT|INTERRES
   215  109  110 1    
   216  109  230 1    
   217  110  111 1    
   218  110  112 1    
   219  110  231 1    
   220  111  232 1    
   221  111  233 1    
   222  111  234 1    
   223  112  113 2    
   224  112  114 am   BACKBONE|DICT|INTERRES
   225  114  115 1    
   226  114  235 1    
   227  115  116 1    
   228  115  117 1    
   229  115  236 1    
   230  116  237 1    
   231  116  238 1    
   232  116  239 1    
   233  117  118 2    
   234  117  119 am   BACKBONE|DICT|INTERRES
   235  119  120 1    
   236  119  240 1    
   237  120  121 1    
   238  120  124 1    
   239  120  241 1    
   240  121  122 am   BACKBONE|DICT|INTERRES
   241  121  123 2    
   242  122  242 1    
   243  122  243 1    
   244  124  125 1    
   245  124  244 1    
   246  124  245 1    
   247  125  126 1    
   248  126  246 1    
   249  126  247 1    
@<TRIPOS>SUBSTRUCTURE
     1 UNK         1 GROUP             0       ****    0 ROOT    
