@<TRIPOS>MOLECULE
3R540
247   249    1
SMALL
USER_CHARGES


@<TRIPOS>ATOM
      1 CA          6.7669  -10.8868  -51.9698 C.3       0 UNK        -0.1800 
      2 C           6.1122  -11.8761  -51.0158 C.2       0 UNK         0.5000 
      3 O           6.7344  -12.2869  -50.0364 O.2       0 UNK        -0.5000 
      4 N           4.8631  -12.2570  -51.2964 N.am      1 UNK        -0.5000 
      5 CA          4.0510  -13.1735  -50.4992 C.3       1 UNK         0.1400 
      6 C6          4.4196  -14.6652  -50.7547 C.3       23 UNK        -0.0398 
      7 S7          4.7546  -15.5983  -49.2199 S.3       23 UNK        -0.2404 
      8 C8          3.1329  -16.2904  -48.7706 C.3       23 UNK        -0.0205 
      9 C9          2.7213  -17.4780  -49.6251 C.ar      23 UNK        -0.0193 
     10 C10         2.0334  -17.2746  -50.8223 C.ar      23 UNK        -0.1150 
     11 C11         1.6282  -18.3551  -51.6154 C.ar      23 UNK        -0.0193 
     12 C12         1.8758  -19.6546  -51.1580 C.ar      23 UNK        -0.1150 
     13 C13         2.5452  -19.8743  -49.9499 C.ar      23 UNK        -0.0193 
     14 C14         2.9787  -18.7813  -49.1954 C.ar      23 UNK        -0.1150 
     15 C15         2.8316  -21.2870  -49.4669 C.3       23 UNK        -0.0205 
     16 S16         1.6055  -21.8539  -48.2458 S.3       23 UNK        -0.2404 
     17 C17         2.5306  -23.2672  -47.5451 C.3       23 UNK        -0.0398 
     18 CA          1.7662  -24.1066  -46.4898 C.3       11 UNK         0.1400 
     19 N           1.2960  -23.2769  -45.3791 N.am      11 UNK        -0.5000 
     20 C           0.8731  -23.7372  -44.1943 C.2       10 UNK         0.5000 
     21 O           0.9140  -24.9250  -43.8658 O.2       10 UNK        -0.5000 
     22 CA          0.3348  -22.6716  -43.2190 C.3       10 UNK         0.1400 
     23 CB          0.0875  -23.2082  -41.7941 C.3       10 UNK        -0.1800 
     24 N           1.1799  -21.4761  -43.1894 N.am      10 UNK        -0.5000 
     25 C           2.4689  -21.3912  -42.8275 C.2       9 UNK         0.5000 
     26 O           3.1453  -22.3400  -42.4284 O.2       9 UNK        -0.5000 
     27 CA          3.1109  -19.9957  -42.9263 C.3       9 UNK         0.1400 
     28 CB          3.6687  -19.7645  -44.3404 C.3       9 UNK        -0.1800 
     29 N           2.1763  -18.9205  -42.5888 N.am      9 UNK        -0.5000 
     30 C           1.6704  -18.7021  -41.3663 C.2       8 UNK         0.5000 
     31 O           1.9995  -19.3399  -40.3652 O.2       8 UNK        -0.5000 
     32 CA          0.6034  -17.5983  -41.2420 C.3       8 UNK         0.1400 
     33 CB          1.2600  -16.2139  -41.1351 C.3       8 UNK        -0.1800 
     34 N          -0.3541  -17.6101  -42.3502 N.am      8 UNK        -0.5000 
     35 C          -1.2574  -18.5802  -42.5578 C.2       7 UNK         0.5000 
     36 O          -1.4150  -19.5406  -41.8038 O.2       7 UNK        -0.5000 
     37 CA         -2.1154  -18.4798  -43.8330 C.3       7 UNK         0.1400 
     38 CB         -3.3310  -17.5696  -43.6038 C.3       7 UNK        -0.1800 
     39 N          -1.3638  -18.0017  -44.9919 N.am      7 UNK        -0.5000 
     40 C          -0.3381  -18.6510  -45.5600 C.2       6 UNK         0.5000 
     41 O           0.0677  -19.7523  -45.1887 O.2       6 UNK        -0.5000 
     42 CA          0.3910  -17.9134  -46.6954 C.3       6 UNK         0.1400 
     43 CB         -0.4201  -17.9678  -48.0012 C.3       6 UNK        -0.1800 
     44 N           0.6751  -16.5207  -46.3437 N.am      6 UNK        -0.5000 
     45 C           1.4673  -16.1335  -45.3332 C.2       5 UNK         0.5000 
     46 O           2.0835  -16.9145  -44.6117 O.2       5 UNK        -0.5000 
     47 CA          1.5562  -14.6248  -45.0498 C.3       5 UNK         0.1400 
     48 CB          2.6317  -13.9534  -45.9172 C.3       5 UNK        -0.1800 
     49 N           0.2708  -13.9585  -45.2461 N.am      5 UNK        -0.5000 
     50 C          -0.7772  -14.0904  -44.4217 C.2       4 UNK         0.5000 
     51 O          -0.7533  -14.7519  -43.3839 O.2       4 UNK        -0.5000 
     52 CA         -2.0828  -13.4008  -44.8568 C.3       4 UNK         0.1400 
     53 CB         -2.0668  -11.9138  -44.4724 C.3       4 UNK        -0.1800 
     54 N          -2.3365  -13.5293  -46.2931 N.am      4 UNK        -0.5000 
     55 C          -2.5815  -14.6928  -46.9115 C.2       3 UNK         0.5000 
     56 O          -2.6307  -15.7758  -46.3297 O.2       3 UNK        -0.5000 
     57 CA         -2.7690  -14.6389  -48.4394 C.3       3 UNK         0.1400 
     58 CB         -4.2140  -14.2299  -48.7626 C.3       3 UNK        -0.1800 
     59 N          -1.8448  -13.7422  -49.1460 N.am      3 UNK        -0.5000 
     60 C          -0.5102  -13.7423  -49.0337 C.2       2 UNK         0.5000 
     61 O           0.1120  -14.4629  -48.2509 O.2       2 UNK        -0.5000 
     62 CA          0.2579  -12.7500  -49.9183 C.3       2 UNK         0.1400 
     63 CB          0.0152  -11.3008  -49.4609 C.3       2 UNK        -0.1800 
     64 N           1.6880  -13.0451  -49.8406 N.am      2 UNK        -0.5000 
     65 C           2.5770  -12.8541  -50.8190 C.2       1 UNK         0.5000 
     66 O           2.2781  -12.4257  -51.9376 O.2       1 UNK        -0.5000 
     67 C           0.6182  -24.9302  -47.1132 C.2       11 UNK         0.5000 
     68 O          -0.5544  -24.6269  -46.8848 O.2       11 UNK        -0.5000 
     69 N           0.9675  -25.9429  -47.9197 N.am      12 UNK        -0.5000 
     70 CA          0.0253  -26.8558  -48.5808 C.3       12 UNK         0.1400 
     71 CB          0.8145  -27.8937  -49.3924 C.3       12 UNK        -0.1800 
     72 C          -1.0201  -26.1560  -49.4737 C.2       12 UNK         0.5000 
     73 O          -2.1502  -26.6335  -49.5730 O.2       12 UNK        -0.5000 
     74 N          -0.6373  -25.0182  -50.0697 N.am      13 UNK        -0.5000 
     75 CA         -1.5251  -24.1511  -50.8416 C.3       13 UNK         0.1400 
     76 CB         -0.6818  -23.1272  -51.6170 C.3       13 UNK        -0.1800 
     77 C          -2.5705  -23.4397  -49.9615 C.2       13 UNK         0.5000 
     78 O          -3.7160  -23.3009  -50.3840 O.2       13 UNK        -0.5000 
     79 N          -2.1650  -23.0163  -48.7565 N.am      14 UNK        -0.5000 
     80 CA         -3.0237  -22.3465  -47.7779 C.3       14 UNK         0.1400 
     81 CB         -2.1531  -21.5013  -46.8399 C.3       14 UNK        -0.1800 
     82 C          -3.8975  -23.3278  -46.9778 C.2       14 UNK         0.5000 
     83 O          -4.9509  -22.9372  -46.4752 O.2       14 UNK        -0.5000 
     84 N          -3.4506  -24.5853  -46.8738 N.am      15 UNK        -0.5000 
     85 CA         -4.1856  -25.6874  -46.2562 C.3       15 UNK         0.1400 
     86 CB         -3.2136  -26.8474  -45.9942 C.3       15 UNK        -0.1800 
     87 C          -5.3817  -26.1636  -47.1050 C.2       15 UNK         0.5000 
     88 O          -6.3076  -26.7645  -46.5582 O.2       15 UNK        -0.5000 
     89 N          -5.3619  -25.8821  -48.4155 N.am      16 UNK        -0.5000 
     90 CA         -6.3831  -26.2549  -49.3974 C.3       16 UNK         0.1400 
     91 CB         -5.7351  -26.2730  -50.7935 C.3       16 UNK        -0.1800 
     92 C          -7.6384  -25.3540  -49.3341 C.2       16 UNK         0.5000 
     93 O          -8.0658  -24.8142  -50.3571 O.2       16 UNK        -0.5000 
     94 N          -8.2083  -25.2168  -48.1288 N.am      17 UNK        -0.5000 
     95 CA         -9.3928  -24.4439  -47.7328 C.3       17 UNK         0.1400 
     96 CB        -10.6614  -24.9443  -48.4507 C.3       17 UNK        -0.1800 
     97 C          -9.2290  -22.9172  -47.8689 C.2       17 UNK         0.5000 
     98 O          -9.3890  -22.2007  -46.8797 O.2       17 UNK        -0.5000 
     99 N          -8.9137  -22.4464  -49.0793 N.am      18 UNK        -0.5000 
    100 CA        -8.5695  -21.0587  -49.3759 C.3       18 UNK         0.1400 
    101 CB        -8.7797  -20.8069  -50.8769 C.3       18 UNK        -0.1800 
    102 C         -7.1092  -20.7793  -48.9863 C.2       18 UNK         0.5000 
    103 O         -6.2724  -21.6789  -49.0752 O.2       18 UNK        -0.5000 
    104 N         -6.8114  -19.5292  -48.6119 N.am      19 UNK        -0.5000 
    105 CA        -5.4858  -19.0545  -48.1991 C.3       19 UNK         0.1400 
    106 CB        -5.6608  -17.7834  -47.3490 C.3       19 UNK        -0.1800 
    107 C         -4.5137  -18.8522  -49.3857 C.2       19 UNK         0.5000 
    108 O         -3.9231  -17.7809  -49.5221 O.2       19 UNK        -0.5000 
    109 N         -4.3668  -19.8993  -50.2088 N.am      20 UNK        -0.5000 
    110 CA        -3.5224  -20.0249  -51.3984 C.3       20 UNK         0.1400 
    111 CB        -2.0386  -19.8017  -51.0330 C.3       20 UNK        -0.1800 
    112 C         -3.9611  -19.1343  -52.5784 C.2       20 UNK         0.5000 
    113 O         -4.8045  -18.2454  -52.4372 O.2       20 UNK        -0.5000 
    114 N         -3.3466  -19.3787  -53.7452 N.am      21 UNK        -0.5000 
    115 CA        -3.5386  -18.6017  -54.9779 C.3       21 UNK         0.1400 
    116 CB        -2.8093  -19.3113  -56.1290 C.3       21 UNK        -0.1800 
    117 C         -3.0644  -17.1371  -54.8612 C.2       21 UNK         0.5000 
    118 O         -3.5044  -16.2851  -55.6336 O.2       21 UNK        -0.5000 
    119 N         -2.1923  -16.8814  -53.8805 N.am      22 UNK        -0.5000 
    120 CA        -1.7169  -15.5580  -53.4602 C.3       22 UNK         0.1400 
    121 C         -2.7593  -14.7433  -52.6360 C.2       22 UNK         0.5000 
    122 N         -3.9163  -15.2920  -52.2823 N.am      22 UNK        -0.7600 
    123 O         -2.5123  -13.5855  -52.3097 O.2       22 UNK        -0.5000 
    124 C124       -0.3743  -15.6683  -52.6940 C.3       23 UNK        -0.0398 
    125 S125        0.9383  -16.4865  -53.6686 S.3       23 UNK        -0.2404 
    126 C126        0.9306  -18.1767  -52.9667 C.3       23 UNK        -0.0205 
    127 H127        6.1014  -10.6124  -52.7888 H         1 UNK         0.0600 
    128 H128        7.6711  -11.3200  -52.3974 H         1 UNK         0.0600 
    129 H129        7.0425   -9.9770  -51.4365 H         1 UNK         0.0600 
    130 H130        4.3693  -11.8709  -52.0927 H         1 UNK         0.3000 
    131 H131        4.2136  -12.9218  -49.4486 H         1 UNK         0.0600 
    132 H132        3.6845  -15.1778  -51.3715 H         1 UNK         0.0800 
    133 H133        5.3392  -14.7295  -51.3381 H         1 UNK         0.0800 
    134 H134        2.3713  -15.5174  -48.8260 H         1 UNK         0.0800 
    135 H135        3.1784  -16.5961  -47.7252 H         1 UNK         0.0800 
    136 H136        1.8176  -16.2631  -51.1244 H         1 UNK         0.1150 
    137 H137        1.5553  -20.5002  -51.7504 H         1 UNK         0.1150 
    138 H138        3.5005  -18.9471  -48.2632 H         1 UNK         0.1150 
    139 H139        2.8486  -21.9818  -50.3080 H         1 UNK         0.0800 
    140 H140        3.8291  -21.3158  -49.0255 H         1 UNK         0.0800 
    141 H141        3.4351  -22.8687  -47.0831 H         1 UNK         0.0800 
    142 H142        2.8795  -23.9000  -48.3628 H         1 UNK         0.0800 
    143 H143        2.4732  -24.8274  -46.0734 H         1 UNK         0.0600 
    144 H144        1.1966  -22.2907  -45.5767 H         1 UNK         0.3000 
    145 H145       -0.6278  -22.3509  -43.6203 H         1 UNK         0.0600 
    146 H146       -0.3058  -22.4261  -41.1444 H         1 UNK         0.0600 
    147 H147       -0.6416  -24.0191  -41.8044 H         1 UNK         0.0600 
    148 H148        1.0003  -23.5946  -41.3401 H         1 UNK         0.0600 
    149 H149        0.7543  -20.6448  -43.5894 H         1 UNK         0.3000 
    150 H150        3.9422  -19.9579  -42.2194 H         1 UNK         0.0600 
    151 H151        4.3772  -20.5469  -44.6150 H         1 UNK         0.0600 
    152 H152        4.1945  -18.8118  -44.4055 H         1 UNK         0.0600 
    153 H153        2.8773  -19.7604  -45.0910 H         1 UNK         0.0600 
    154 H154        1.9113  -18.2982  -43.3484 H         1 UNK         0.3000 
    155 H155        0.0484  -17.7772  -40.3187 H         1 UNK         0.0600 
    156 H156        1.9538  -16.1755  -40.2944 H         1 UNK         0.0600 
    157 H157        0.5144  -15.4347  -40.9766 H         1 UNK         0.0600 
    158 H158        1.8216  -15.9630  -42.0346 H         1 UNK         0.0600 
    159 H159       -0.3246  -16.8229  -42.9874 H         1 UNK         0.3000 
    160 H160       -2.4803  -19.4825  -44.0645 H         1 UNK         0.0600 
    161 H161       -3.0302  -16.5393  -43.4100 H         1 UNK         0.0600 
    162 H162       -3.9192  -17.9084  -42.7501 H         1 UNK         0.0600 
    163 H163       -3.9895  -17.5667  -44.4726 H         1 UNK         0.0600 
    164 H164       -1.6622  -17.1156  -45.3927 H         1 UNK         0.3000 
    165 H165        1.3465  -18.4131  -46.8627 H         1 UNK         0.0600 
    166 H166       -0.0049  -17.3063  -48.7603 H         1 UNK         0.0600 
    167 H167       -0.4124  -18.9757  -48.4161 H         1 UNK         0.0600 
    168 H168       -1.4614  -17.6818  -47.8527 H         1 UNK         0.0600 
    169 H169        0.2426  -15.8048  -46.9206 H         1 UNK         0.3000 
    170 H170        1.8493  -14.5021  -44.0052 H         1 UNK         0.0600 
    171 H171        3.5957  -14.4499  -45.7980 H         1 UNK         0.0600 
    172 H172        2.3786  -13.9810  -46.9750 H         1 UNK         0.0600 
    173 H173        2.7672  -12.9094  -45.6347 H         1 UNK         0.0600 
    174 H174        0.1416  -13.4692  -46.1198 H         1 UNK         0.3000 
    175 H175       -2.9054  -13.8828  -44.3240 H         1 UNK         0.0600 
    176 H176       -1.8936  -11.7898  -43.4026 H         1 UNK         0.0600 
    177 H177       -1.2816  -11.3687  -44.9978 H         1 UNK         0.0600 
    178 H178       -3.0194  -11.4368  -44.7035 H         1 UNK         0.0600 
    179 H179       -2.3082  -12.6845  -46.8444 H         1 UNK         0.3000 
    180 H180       -2.5957  -15.6434  -48.8271 H         1 UNK         0.0600 
    181 H181       -4.9256  -14.9018  -48.2823 H         1 UNK         0.0600 
    182 H182       -4.4336  -13.2183  -48.4192 H         1 UNK         0.0600 
    183 H183       -4.4092  -14.2670  -49.8317 H         1 UNK         0.0600 
    184 H184       -2.2655  -13.1360  -49.8370 H         1 UNK         0.3000 
    185 H185       -0.0949  -12.8699  -50.9438 H         1 UNK         0.0600 
    186 H186       -1.0408  -11.0361  -49.5242 H         1 UNK         0.0600 
    187 H187        0.3333  -11.1467  -48.4289 H         1 UNK         0.0600 
    188 H188        0.5606  -10.5943  -50.0868 H         1 UNK         0.0600 
    189 H189        1.9739  -13.4603  -48.9647 H         1 UNK         0.3000 
    190 H190        1.9474  -26.1397  -48.0644 H         1 UNK         0.3000 
    191 H191       -0.5202  -27.3827  -47.7957 H         1 UNK         0.0600 
    192 H192        1.4149  -27.4232  -50.1721 H         1 UNK         0.0600 
    193 H193        0.1429  -28.6029  -49.8784 H         1 UNK         0.0600 
    194 H194        1.4840  -28.4697  -48.7532 H         1 UNK         0.0600 
    195 H195        0.3107  -24.7002  -49.9354 H         1 UNK         0.3000 
    196 H196       -2.0611  -24.7696  -51.5648 H         1 UNK         0.0600 
    197 H197       -1.3133  -22.5182  -52.2641 H         1 UNK         0.0600 
    198 H198        0.0512  -23.6207  -52.2553 H         1 UNK         0.0600 
    199 H199       -0.1447  -22.4537  -50.9475 H         1 UNK         0.0600 
    200 H200       -1.2281  -23.2383  -48.4468 H         1 UNK         0.3000 
    201 H201       -3.6948  -21.6744  -48.3089 H         1 UNK         0.0600 
    202 H202       -2.7671  -20.9357  -46.1385 H         1 UNK         0.0600 
    203 H203       -1.4678  -22.1166  -46.2563 H         1 UNK         0.0600 
    204 H204       -1.5582  -20.7843  -47.4035 H         1 UNK         0.0600 
    205 H205       -2.5161  -24.7874  -47.2132 H         1 UNK         0.3000 
    206 H206       -4.5752  -25.3440  -45.2958 H         1 UNK         0.0600 
    207 H207       -2.3662  -26.5254  -45.3881 H         1 UNK         0.0600 
    208 H208       -3.7092  -27.6578  -45.4584 H         1 UNK         0.0600 
    209 H209       -2.8237  -27.2606  -46.9245 H         1 UNK         0.0600 
    210 H210       -4.5769  -25.3552  -48.7724 H         1 UNK         0.3000 
    211 H211       -6.7137  -27.2721  -49.1781 H         1 UNK         0.0600 
    212 H212       -6.4361  -26.6348  -51.5466 H         1 UNK         0.0600 
    213 H213       -4.8655  -26.9303  -50.8177 H         1 UNK         0.0600 
    214 H214       -5.4104  -25.2776  -51.0980 H         1 UNK         0.0600 
    215 H215       -7.7419  -25.7010  -47.3672 H         1 UNK         0.3000 
    216 H216       -9.5264  -24.6469  -46.6690 H         1 UNK         0.0600 
    217 H217      -11.5458  -24.4226  -48.0831 H         1 UNK         0.0600 
    218 H218      -10.8171  -26.0091  -48.2771 H         1 UNK         0.0600 
    219 H219      -10.6156  -24.7843  -49.5281 H         1 UNK         0.0600 
    220 H220       -8.7015  -23.1340  -49.7975 H         1 UNK         0.3000 
    221 H221       -9.2265  -20.3946  -48.8104 H         1 UNK         0.0600 
    222 H222       -8.1450  -21.4532  -51.4850 H         1 UNK         0.0600 
    223 H223       -9.8154  -20.9872  -51.1654 H         1 UNK         0.0600 
    224 H224       -8.5437  -19.7746  -51.1385 H         1 UNK         0.0600 
    225 H225       -7.5450  -18.8354  -48.6139 H         1 UNK         0.3000 
    226 H226       -5.0380  -19.8117  -47.5525 H         1 UNK         0.0600 
    227 H227       -4.6986  -17.4172  -46.9894 H         1 UNK         0.0600 
    228 H228       -6.1281  -16.9810  -47.9201 H         1 UNK         0.0600 
    229 H229       -6.2783  -17.9765  -46.4718 H         1 UNK         0.0600 
    230 H230       -4.9310  -20.7189  -49.9963 H         1 UNK         0.3000 
    231 H231       -3.6382  -21.0556  -51.7327 H         1 UNK         0.0600 
    232 H232       -1.7579  -20.3735  -50.1485 H         1 UNK         0.0600 
    233 H233       -1.8190  -18.7526  -50.8311 H         1 UNK         0.0600 
    234 H234       -1.3821  -20.1254  -51.8390 H         1 UNK         0.0600 
    235 H235       -2.6841  -20.1385  -53.8007 H         1 UNK         0.3000 
    236 H236       -4.6067  -18.5834  -55.2039 H         1 UNK         0.0600 
    237 H237       -3.1851  -20.3249  -56.2703 H         1 UNK         0.0600 
    238 H238       -2.9539  -18.7792  -57.0702 H         1 UNK         0.0600 
    239 H239       -1.7352  -19.3716  -55.9483 H         1 UNK         0.0600 
    240 H240       -1.9059  -17.6539  -53.3021 H         1 UNK         0.3000 
    241 H241       -1.5333  -14.9740  -54.3639 H         1 UNK         0.0600 
    242 H242       -4.1293  -16.2613  -52.4861 H         1 UNK         0.3800 
    243 H243       -4.5812  -14.7421  -51.7655 H         1 UNK         0.3800 
    244 H244       -0.0027  -14.6752  -52.4397 H         1 UNK         0.0800 
    245 H245       -0.5183  -16.1919  -51.7471 H         1 UNK         0.0800 
    246 H246       -0.0961  -18.5275  -52.8902 H         1 UNK         0.0800 
    247 H247        1.4197  -18.8288  -53.6918 H         1 UNK         0.0800 
@<TRIPOS>BOND
     1    1    2 1    
     2    1  127 1    
     3    1  128 1    
     4    1  129 1    
     5    2    3 2    
     6    2    4 am   BACKBONE|DICT|INTERRES
     7    4    5 1    
     8    4  130 1    
     9    5    6 1    
    10    5   65 1    
    11    5  131 1    
    12    6    7 1    
    13    6  132 1    
    14    6  133 1    
    15    7    8 1    
    16    8    9 1    
    17    8  134 1    
    18    8  135 1    
    19    9   10 ar   
    20    9   14 ar   
    21   10   11 ar   
    22   10  136 1    
    23   11   12 ar   
    24   11  126 1    
    25   12   13 ar   
    26   12  137 1    
    27   13   14 ar   
    28   13   15 1    
    29   14  138 1    
    30   15   16 1    
    31   15  139 1    
    32   15  140 1    
    33   16   17 1    
    34   17   18 1    
    35   17  141 1    
    36   17  142 1    
    37   18   19 1    
    38   18   67 1    
    39   18  143 1    
    40   19   20 am   BACKBONE|DICT|INTERRES
    41   19  144 1    
    42   20   21 2    
    43   20   22 1    
    44   22   23 1    
    45   22   24 1    
    46   22  145 1    
    47   23  146 1    
    48   23  147 1    
    49   23  148 1    
    50   24   25 am   BACKBONE|DICT|INTERRES
    51   24  149 1    
    52   25   26 2    
    53   25   27 1    
    54   27   28 1    
    55   27   29 1    
    56   27  150 1    
    57   28  151 1    
    58   28  152 1    
    59   28  153 1    
    60   29   30 am   BACKBONE|DICT|INTERRES
    61   29  154 1    
    62   30   31 2    
    63   30   32 1    
    64   32   33 1    
    65   32   34 1    
    66   32  155 1    
    67   33  156 1    
    68   33  157 1    
    69   33  158 1    
    70   34   35 am   BACKBONE|DICT|INTERRES
    71   34  159 1    
    72   35   36 2    
    73   35   37 1    
    74   37   38 1    
    75   37   39 1    
    76   37  160 1    
    77   38  161 1    
    78   38  162 1    
    79   38  163 1    
    80   39   40 am   BACKBONE|DICT|INTERRES
    81   39  164 1    
    82   40   41 2    
    83   40   42 1    
    84   42   43 1    
    85   42   44 1    
    86   42  165 1    
    87   43  166 1    
    88   43  167 1    
    89   43  168 1    
    90   44   45 am   BACKBONE|DICT|INTERRES
    91   44  169 1    
    92   45   46 2    
    93   45   47 1    
    94   47   48 1    
    95   47   49 1    
    96   47  170 1    
    97   48  171 1    
    98   48  172 1    
    99   48  173 1    
   100   49   50 am   BACKBONE|DICT|INTERRES
   101   49  174 1    
   102   50   51 2    
   103   50   52 1    
   104   52   53 1    
   105   52   54 1    
   106   52  175 1    
   107   53  176 1    
   108   53  177 1    
   109   53  178 1    
   110   54   55 am   BACKBONE|DICT|INTERRES
   111   54  179 1    
   112   55   56 2    
   113   55   57 1    
   114   57   58 1    
   115   57   59 1    
   116   57  180 1    
   117   58  181 1    
   118   58  182 1    
   119   58  183 1    
   120   59   60 am   BACKBONE|DICT|INTERRES
   121   59  184 1    
   122   60   61 2    
   123   60   62 1    
   124   62   63 1    
   125   62   64 1    
   126   62  185 1    
   127   63  186 1    
   128   63  187 1    
   129   63  188 1    
   130   64   65 am   BACKBONE|DICT|INTERRES
   131   64  189 1    
   132   65   66 2    
   133   67   68 2    
   134   67   69 am   BACKBONE|DICT|INTERRES
   135   69   70 1    
   136   69  190 1    
   137   70   71 1    
   138   70   72 1    
   139   70  191 1    
   140   71  192 1    
   141   71  193 1    
   142   71  194 1    
   143   72   73 2    
   144   72   74 am   BACKBONE|DICT|INTERRES
   145   74   75 1    
   146   74  195 1    
   147   75   76 1    
   148   75   77 1    
   149   75  196 1    
   150   76  197 1    
   151   76  198 1    
   152   76  199 1    
   153   77   78 2    
   154   77   79 am   BACKBONE|DICT|INTERRES
   155   79   80 1    
   156   79  200 1    
   157   80   81 1    
   158   80   82 1    
   159   80  201 1    
   160   81  202 1    
   161   81  203 1    
   162   81  204 1    
   163   82   83 2    
   164   82   84 am   BACKBONE|DICT|INTERRES
   165   84   85 1    
   166   84  205 1    
   167   85   86 1    
   168   85   87 1    
   169   85  206 1    
   170   86  207 1    
   171   86  208 1    
   172   86  209 1    
   173   87   88 2    
   174   87   89 am   BACKBONE|DICT|INTERRES
   175   89   90 1    
   176   89  210 1    
   177   90   91 1    
   178   90   92 1    
   179   90  211 1    
   180   91  212 1    
   181   91  213 1    
   182   91  214 1    
   183   92   93 2    
   184   92   94 am   BACKBONE|DICT|INTERRES
   185   94   95 1    
   186   94  215 1    
   187   95   96 1    
   188   95   97 1    
   189   95  216 1    
   190   96  217 1    
   191   96  218 1    
   192   96  219 1    
   193   97   98 2    
   194   97   99 am   BACKBONE|DICT|INTERRES
   195   99  100 1    
   196   99  220 1    
   197  100  101 1    
   198  100  102 1    
   199  100  221 1    
   200  101  222 1    
   201  101  223 1    
   202  101  224 1    
   203  102  103 2    
   204  102  104 am   BACKBONE|DICT|INTERRES
   205  104  105 1    
   206  104  225 1    
   207  105  106 1    
   208  105  107 1    
   209  105  226 1    
   210  106  227 1    
   211  106  228 1    
   212  106  229 1    
   213  107  108 2    
   214  107  109 am   BACKBONE|DICT|INTERRES
   215  109  110 1    
   216  109  230 1    
   217  110  111 1    
   218  110  112 1    
   219  110  231 1    
   220  111  232 1    
   221  111  233 1    
   222  111  234 1    
   223  112  113 2    
   224  112  114 am   BACKBONE|DICT|INTERRES
   225  114  115 1    
   226  114  235 1    
   227  115  116 1    
   228  115  117 1    
   229  115  236 1    
   230  116  237 1    
   231  116  238 1    
   232  116  239 1    
   233  117  118 2    
   234  117  119 am   BACKBONE|DICT|INTERRES
   235  119  120 1    
   236  119  240 1    
   237  120  121 1    
   238  120  124 1    
   239  120  241 1    
   240  121  122 am   BACKBONE|DICT|INTERRES
   241  121  123 2    
   242  122  242 1    
   243  122  243 1    
   244  124  125 1    
   245  124  244 1    
   246  124  245 1    
   247  125  126 1    
   248  126  246 1    
   249  126  247 1    
@<TRIPOS>SUBSTRUCTURE
     1 UNK         1 GROUP             0       ****    0 ROOT    
