@<TRIPOS>MOLECULE
3R540
247   249    1
SMALL
USER_CHARGES


@<TRIPOS>ATOM
      1 CA          5.3247  -16.7157  -42.2896 C.3       0 UNK        -0.1800 
      2 C           3.9803  -16.8953  -42.9785 C.2       0 UNK         0.5000 
      3 O           3.0821  -17.5137  -42.4120 O.2       0 UNK        -0.5000 
      4 N           3.8323  -16.3698  -44.1987 N.am      1 UNK        -0.5000 
      5 CA          2.6136  -16.4914  -45.0022 C.3       1 UNK         0.1400 
      6 C6          2.8445  -16.0903  -46.4771 C.3       23 UNK        -0.0398 
      7 S7          4.0670  -17.1614  -47.3007 S.3       23 UNK        -0.2404 
      8 C8          3.8765  -16.6407  -49.0335 C.3       23 UNK        -0.0205 
      9 C9          2.7964  -17.4337  -49.7551 C.ar      23 UNK        -0.0193 
     10 C10         1.4726  -16.9864  -49.7697 C.ar      23 UNK        -0.1150 
     11 C11         0.4882  -17.6962  -50.4640 C.ar      23 UNK        -0.0193 
     12 C12         0.8391  -18.8584  -51.1583 C.ar      23 UNK        -0.1150 
     13 C13         2.1637  -19.3085  -51.1630 C.ar      23 UNK        -0.0193 
     14 C14         3.1327  -18.5992  -50.4484 C.ar      23 UNK        -0.1150 
     15 C15         2.5701  -20.5274  -51.9790 C.3       23 UNK        -0.0205 
     16 S16         2.6269  -22.0474  -50.9793 S.3       23 UNK        -0.2404 
     17 C17         0.8557  -22.4620  -50.8513 C.3       23 UNK        -0.0398 
     18 CA          0.3584  -22.5645  -49.3919 C.3       11 UNK         0.1400 
     19 N           0.6517  -21.3548  -48.6060 N.am      11 UNK        -0.5000 
     20 C           0.4302  -21.2230  -47.2914 C.2       10 UNK         0.5000 
     21 O          -0.0848  -22.1028  -46.5964 O.2       10 UNK        -0.5000 
     22 CA          0.7565  -19.8526  -46.6751 C.3       10 UNK         0.1400 
     23 CB         -0.3801  -18.8601  -46.9714 C.3       10 UNK        -0.1800 
     24 N           0.9266  -19.9686  -45.2266 N.am      10 UNK        -0.5000 
     25 C           2.0339  -20.4389  -44.6383 C.2       9 UNK         0.5000 
     26 O           3.0844  -20.6478  -45.2472 O.2       9 UNK        -0.5000 
     27 CA          1.9462  -20.7183  -43.1235 C.3       9 UNK         0.1400 
     28 CB          3.3268  -20.9539  -42.4830 C.3       9 UNK        -0.1800 
     29 N           1.2716  -19.6387  -42.3996 N.am      9 UNK        -0.5000 
     30 C          -0.0448  -19.5626  -42.1675 C.2       8 UNK         0.5000 
     31 O          -0.8502  -20.3651  -42.6397 O.2       8 UNK        -0.5000 
     32 CA         -0.5543  -18.4074  -41.2828 C.3       8 UNK         0.1400 
     33 CB         -1.6511  -18.8664  -40.3043 C.3       8 UNK        -0.1800 
     34 N           0.5227  -17.7566  -40.5337 N.am      8 UNK        -0.5000 
     35 C           0.5992  -16.4410  -40.3022 C.2       7 UNK         0.5000 
     36 O          -0.2403  -15.6309  -40.6996 O.2       7 UNK        -0.5000 
     37 CA          1.8070  -15.9133  -39.5109 C.3       7 UNK         0.1400 
     38 CB          2.8287  -16.9884  -39.0708 C.3       7 UNK        -0.1800 
     39 N           2.4162  -14.8693  -40.3273 N.am      7 UNK        -0.5000 
     40 C           3.2926  -13.9446  -39.9234 C.2       6 UNK         0.5000 
     41 O           3.8079  -13.9202  -38.8053 O.2       6 UNK        -0.5000 
     42 CA          3.6113  -12.8268  -40.9316 C.3       6 UNK         0.1400 
     43 CB          4.7506  -13.2249  -41.8804 C.3       6 UNK        -0.1800 
     44 N           2.4397  -12.4621  -41.7260 N.am      6 UNK        -0.5000 
     45 C           1.4691  -11.6354  -41.3131 C.2       5 UNK         0.5000 
     46 O           1.4582  -11.1035  -40.2015 O.2       5 UNK        -0.5000 
     47 CA          0.3264  -11.3559  -42.3139 C.3       5 UNK         0.1400 
     48 CB         -0.3403   -9.9814  -42.0999 C.3       5 UNK        -0.1800 
     49 N           0.7309  -11.5297  -43.7132 N.am      5 UNK        -0.5000 
     50 C           1.6739  -10.8557  -44.3922 C.2       4 UNK         0.5000 
     51 O           2.2976   -9.8969  -43.9366 O.2       4 UNK        -0.5000 
     52 CA          2.0097  -11.3623  -45.8097 C.3       4 UNK         0.1400 
     53 CB          3.3852  -12.0503  -45.8156 C.3       4 UNK        -0.1800 
     54 N           1.0144  -12.3078  -46.3169 N.am      4 UNK        -0.5000 
     55 C          -0.1442  -11.9616  -46.8934 C.2       3 UNK         0.5000 
     56 O          -0.4637  -10.8003  -47.1478 O.2       3 UNK        -0.5000 
     57 CA         -1.1216  -13.1092  -47.2147 C.3       3 UNK         0.1400 
     58 CB         -0.9453  -13.5763  -48.6676 C.3       3 UNK        -0.1800 
     59 N          -0.9802  -14.2619  -46.3178 N.am      3 UNK        -0.5000 
     60 C          -1.2906  -14.2570  -45.0123 C.2       2 UNK         0.5000 
     61 O          -1.7114  -13.2695  -44.4123 O.2       2 UNK        -0.5000 
     62 CA         -1.0436  -15.5665  -44.2429 C.3       2 UNK         0.1400 
     63 CB         -2.1950  -16.5533  -44.5012 C.3       2 UNK        -0.1800 
     64 N           0.2253  -16.2022  -44.6043 N.am      2 UNK        -0.5000 
     65 C           1.4443  -15.6806  -44.4070 C.2       1 UNK         0.5000 
     66 O           1.6557  -14.5995  -43.8482 O.2       1 UNK        -0.5000 
     67 C          -1.1373  -22.9534  -49.3728 C.2       11 UNK         0.5000 
     68 O          -1.4627  -24.1261  -49.5516 O.2       11 UNK        -0.5000 
     69 N          -2.0143  -21.9779  -49.0968 N.am      12 UNK        -0.5000 
     70 CA         -3.4507  -22.1427  -48.8740 C.3       12 UNK         0.1400 
     71 CB         -4.0501  -20.7604  -48.5744 C.3       12 UNK        -0.1800 
     72 C          -3.8098  -23.1282  -47.7427 C.2       12 UNK         0.5000 
     73 O          -4.8839  -23.7275  -47.7822 O.2       12 UNK        -0.5000 
     74 N          -2.9077  -23.2942  -46.7645 N.am      13 UNK        -0.5000 
     75 CA         -3.0386  -24.2774  -45.6903 C.3       13 UNK         0.1400 
     76 CB         -2.1366  -23.8565  -44.5190 C.3       13 UNK        -0.1800 
     77 C          -2.6949  -25.7104  -46.1460 C.2       13 UNK         0.5000 
     78 O          -3.1078  -26.6623  -45.4822 O.2       13 UNK        -0.5000 
     79 N          -1.9372  -25.8469  -47.2438 N.am      14 UNK        -0.5000 
     80 CA         -1.4596  -27.1244  -47.7679 C.3       14 UNK         0.1400 
     81 CB         -0.0371  -26.9459  -48.3233 C.3       14 UNK        -0.1800 
     82 C          -2.3887  -27.7069  -48.8458 C.2       14 UNK         0.5000 
     83 O          -2.4998  -28.9314  -48.9271 O.2       14 UNK        -0.5000 
     84 N          -3.0332  -26.8528  -49.6542 N.am      15 UNK        -0.5000 
     85 CA         -3.9011  -27.2771  -50.7514 C.3       15 UNK         0.1400 
     86 CB         -3.0566  -27.5207  -52.0152 C.3       15 UNK        -0.1800 
     87 C          -4.9915  -26.2369  -51.0323 C.2       15 UNK         0.5000 
     88 O          -4.7224  -25.0346  -50.9990 O.2       15 UNK        -0.5000 
     89 N          -6.1891  -26.7247  -51.3827 N.am      16 UNK        -0.5000 
     90 CA         -7.3378  -25.9101  -51.7878 C.3       16 UNK         0.1400 
     91 CB         -8.5989  -26.7859  -51.8123 C.3       16 UNK        -0.1800 
     92 C          -7.1335  -25.2203  -53.1500 C.2       16 UNK         0.5000 
     93 O          -7.6371  -24.1165  -53.3533 O.2       16 UNK        -0.5000 
     94 N          -6.3640  -25.8560  -54.0456 N.am      17 UNK        -0.5000 
     95 CA         -5.9546  -25.2856  -55.3316 C.3       17 UNK         0.1400 
     96 CB         -5.2816  -26.3733  -56.1817 C.3       17 UNK        -0.1800 
     97 C          -5.0189  -24.0758  -55.1548 C.2       17 UNK         0.5000 
     98 O          -5.1482  -23.0871  -55.8767 O.2       17 UNK        -0.5000 
     99 N          -4.1277  -24.1555  -54.1574 N.am      18 UNK        -0.5000 
    100 CA        -3.2539  -23.0572  -53.7560 C.3       18 UNK         0.1400 
    101 CB        -2.1206  -23.5923  -52.8754 C.3       18 UNK        -0.1800 
    102 C         -4.0285  -21.9321  -53.0485 C.2       18 UNK         0.5000 
    103 O         -3.7048  -20.7662  -53.2596 O.2       18 UNK        -0.5000 
    104 N         -5.0639  -22.2883  -52.2734 N.am      19 UNK        -0.5000 
    105 CA        -5.9837  -21.3412  -51.6350 C.3       19 UNK         0.1400 
    106 CB        -6.8782  -22.0805  -50.6276 C.3       19 UNK        -0.1800 
    107 C         -6.8419  -20.5577  -52.6463 C.2       19 UNK         0.5000 
    108 O         -7.1701  -19.3986  -52.3954 O.2       19 UNK        -0.5000 
    109 N         -7.1815  -21.1931  -53.7757 N.am      20 UNK        -0.5000 
    110 CA        -7.8569  -20.5545  -54.9041 C.3       20 UNK         0.1400 
    111 CB        -8.4326  -21.6329  -55.8344 C.3       20 UNK        -0.1800 
    112 C         -6.9232  -19.6000  -55.6736 C.2       20 UNK         0.5000 
    113 O         -7.3688  -18.5368  -56.1071 O.2       20 UNK        -0.5000 
    114 N         -5.6496  -19.9907  -55.8249 N.am      21 UNK        -0.5000 
    115 CA        -4.6139  -19.2039  -56.4964 C.3       21 UNK         0.1400 
    116 CB        -3.4310  -20.1195  -56.8476 C.3       21 UNK        -0.1800 
    117 C         -4.1365  -17.9960  -55.6665 C.2       21 UNK         0.5000 
    118 O         -3.9105  -16.9252  -56.2316 O.2       21 UNK        -0.5000 
    119 N         -3.9869  -18.1893  -54.3527 N.am      22 UNK        -0.5000 
    120 CA        -3.5138  -17.1989  -53.3842 C.3       22 UNK         0.1400 
    121 C         -4.4172  -17.2643  -52.1260 C.2       22 UNK         0.5000 
    122 N         -5.3183  -16.3075  -51.9474 N.am      22 UNK        -0.7600 
    123 O         -4.2922  -18.1614  -51.2978 O.2       22 UNK        -0.5000 
    124 C124       -2.0087  -17.4200  -53.0754 C.3       23 UNK        -0.0398 
    125 S125       -1.3018  -16.1774  -51.9348 S.3       23 UNK        -0.2404 
    126 C126       -0.9481  -17.1941  -50.4651 C.3       23 UNK        -0.0205 
    127 H127        6.0028  -16.0970  -42.8776 H         1 UNK         0.0600 
    128 H128        5.7952  -17.6863  -42.1335 H         1 UNK         0.0600 
    129 H129        5.1870  -16.2440  -41.3168 H         1 UNK         0.0600 
    130 H130        4.5967  -15.8693  -44.6275 H         1 UNK         0.3000 
    131 H131        2.3256  -17.5431  -44.9864 H         1 UNK         0.0600 
    132 H132        1.9116  -16.1543  -47.0372 H         1 UNK         0.0800 
    133 H133        3.1823  -15.0554  -46.5507 H         1 UNK         0.0800 
    134 H134        3.6635  -15.5717  -49.0838 H         1 UNK         0.0800 
    135 H135        4.8317  -16.7782  -49.5425 H         1 UNK         0.0800 
    136 H136        1.2093  -16.0751  -49.2541 H         1 UNK         0.1150 
    137 H137        0.0856  -19.3959  -51.7152 H         1 UNK         0.1150 
    138 H138        4.1579  -18.9428  -50.4524 H         1 UNK         0.1150 
    139 H139        1.8993  -20.6644  -52.8287 H         1 UNK         0.0800 
    140 H140        3.5594  -20.3594  -52.4076 H         1 UNK         0.0800 
    141 H141        0.7077  -23.4131  -51.3667 H         1 UNK         0.0800 
    142 H142        0.2685  -21.7266  -51.4008 H         1 UNK         0.0800 
    143 H143        0.8965  -23.3869  -48.9154 H         1 UNK         0.0600 
    144 H144        1.0899  -20.5979  -49.1128 H         1 UNK         0.3000 
    145 H145        1.6782  -19.4783  -47.1271 H         1 UNK         0.0600 
    146 H146       -0.0888  -17.8422  -46.7241 H         1 UNK         0.0600 
    147 H147       -0.6409  -18.8603  -48.0296 H         1 UNK         0.0600 
    148 H148       -1.2868  -19.1038  -46.4160 H         1 UNK         0.0600 
    149 H149        0.0860  -19.9405  -44.6642 H         1 UNK         0.3000 
    150 H150        1.3738  -21.6412  -43.0082 H         1 UNK         0.0600 
    151 H151        3.9810  -20.0901  -42.6045 H         1 UNK         0.0600 
    152 H152        3.8277  -21.8113  -42.9340 H         1 UNK         0.0600 
    153 H153        3.2368  -21.1578  -41.4160 H         1 UNK         0.0600 
    154 H154        1.8686  -18.8564  -42.1367 H         1 UNK         0.3000 
    155 H155       -0.9965  -17.6868  -41.9702 H         1 UNK         0.0600 
    156 H156       -1.2734  -19.6100  -39.6018 H         1 UNK         0.0600 
    157 H157       -2.4950  -19.3101  -40.8339 H         1 UNK         0.0600 
    158 H158       -2.0406  -18.0275  -39.7273 H         1 UNK         0.0600 
    159 H159        1.2610  -18.3572  -40.1943 H         1 UNK         0.3000 
    160 H160        1.4030  -15.4438  -38.6120 H         1 UNK         0.0600 
    161 H161        3.3116  -17.4778  -39.9137 H         1 UNK         0.0600 
    162 H162        2.3510  -17.7598  -38.4659 H         1 UNK         0.0600 
    163 H163        3.6161  -16.5565  -38.4541 H         1 UNK         0.0600 
    164 H164        2.0168  -14.7787  -41.2533 H         1 UNK         0.3000 
    165 H165        3.9420  -11.9554  -40.3621 H         1 UNK         0.0600 
    166 H166        5.6129  -13.6017  -41.3289 H         1 UNK         0.0600 
    167 H167        4.4360  -13.9963  -42.5813 H         1 UNK         0.0600 
    168 H168        5.0866  -12.3683  -42.4651 H         1 UNK         0.0600 
    169 H169        2.3403  -12.9037  -42.6324 H         1 UNK         0.3000 
    170 H170       -0.4284  -12.1202  -42.1233 H         1 UNK         0.0600 
    171 H171       -0.7812   -9.9110  -41.1049 H         1 UNK         0.0600 
    172 H172        0.3739   -9.1636  -42.1986 H         1 UNK         0.0600 
    173 H173       -1.1417   -9.8169  -42.8202 H         1 UNK         0.0600 
    174 H174        0.2637  -12.2893  -44.1905 H         1 UNK         0.3000 
    175 H175        2.0564  -10.4952  -46.4719 H         1 UNK         0.0600 
    176 H176        3.6494  -12.3978  -46.8145 H         1 UNK         0.0600 
    177 H177        4.1675  -11.3606  -45.4961 H         1 UNK         0.0600 
    178 H178        3.4127  -12.9071  -45.1415 H         1 UNK         0.0600 
    179 H179        1.1825  -13.2832  -46.1264 H         1 UNK         0.3000 
    180 H180       -2.1346  -12.7167  -47.1034 H         1 UNK         0.0600 
    181 H181        0.0403  -14.0104  -48.8366 H         1 UNK         0.0600 
    182 H182       -1.0580  -12.7427  -49.3621 H         1 UNK         0.0600 
    183 H183       -1.6955  -14.3198  -48.9362 H         1 UNK         0.0600 
    184 H184       -0.6572  -15.1209  -46.7343 H         1 UNK         0.3000 
    185 H185       -1.0158  -15.3314  -43.1782 H         1 UNK         0.0600 
    186 H186       -3.1416  -16.1434  -44.1469 H         1 UNK         0.0600 
    187 H187       -2.3128  -16.7708  -45.5635 H         1 UNK         0.0600 
    188 H188       -2.0421  -17.5018  -43.9883 H         1 UNK         0.0600 
    189 H189        0.1514  -17.1018  -45.0533 H         1 UNK         0.3000 
    190 H190       -1.6509  -21.0473  -48.9619 H         1 UNK         0.3000 
    191 H191       -3.8809  -22.5309  -49.7973 H         1 UNK         0.0600 
    192 H192       -3.8372  -20.0537  -49.3762 H         1 UNK         0.0600 
    193 H193       -5.1339  -20.8169  -48.4675 H         1 UNK         0.0600 
    194 H194       -3.6513  -20.3421  -47.6493 H         1 UNK         0.0600 
    195 H195       -2.0367  -22.7744  -46.7936 H         1 UNK         0.3000 
    196 H196       -4.0722  -24.2790  -45.3377 H         1 UNK         0.0600 
    197 H197       -2.2638  -24.5269  -43.6681 H         1 UNK         0.0600 
    198 H198       -2.3736  -22.8486  -44.1770 H         1 UNK         0.0600 
    199 H199       -1.0819  -23.8761  -44.7955 H         1 UNK         0.0600 
    200 H200       -1.6938  -25.0250  -47.7843 H         1 UNK         0.3000 
    201 H201       -1.4019  -27.8513  -46.9548 H         1 UNK         0.0600 
    202 H202        0.3747  -27.9024  -48.6476 H         1 UNK         0.0600 
    203 H203       -0.0146  -26.2758  -49.1827 H         1 UNK         0.0600 
    204 H204        0.6352  -26.5431  -47.5656 H         1 UNK         0.0600 
    205 H205       -2.9017  -25.8524  -49.5518 H         1 UNK         0.3000 
    206 H206       -4.3985  -28.2097  -50.4760 H         1 UNK         0.0600 
    207 H207       -2.3341  -28.3218  -51.8585 H         1 UNK         0.0600 
    208 H208       -3.6822  -27.8119  -52.8598 H         1 UNK         0.0600 
    209 H209       -2.5033  -26.6270  -52.3056 H         1 UNK         0.0600 
    210 H210       -6.3267  -27.7253  -51.3921 H         1 UNK         0.3000 
    211 H211       -7.4799  -25.1300  -51.0375 H         1 UNK         0.0600 
    212 H212       -8.5109  -27.6012  -52.5315 H         1 UNK         0.0600 
    213 H213       -9.4761  -26.1986  -52.0876 H         1 UNK         0.0600 
    214 H214       -8.7959  -27.2212  -50.8324 H         1 UNK         0.0600 
    215 H215       -6.0038  -26.7691  -53.8125 H         1 UNK         0.3000 
    216 H216       -6.8493  -24.9428  -55.8558 H         1 UNK         0.0600 
    217 H217       -4.9790  -25.9775  -57.1521 H         1 UNK         0.0600 
    218 H218       -5.9621  -27.2042  -56.3689 H         1 UNK         0.0600 
    219 H219       -4.3896  -26.7721  -55.6969 H         1 UNK         0.0600 
    220 H220       -4.1083  -24.9855  -53.5850 H         1 UNK         0.3000 
    221 H221       -2.8028  -22.6334  -54.6556 H         1 UNK         0.0600 
    222 H222       -2.5010  -24.0554  -51.9665 H         1 UNK         0.0600 
    223 H223       -1.5212  -24.3327  -53.4050 H         1 UNK         0.0600 
    224 H224       -1.4549  -22.7826  -52.5815 H         1 UNK         0.0600 
    225 H225       -5.2233  -23.2731  -52.0983 H         1 UNK         0.3000 
    226 H226       -5.3809  -20.6159  -51.0886 H         1 UNK         0.0600 
    227 H227       -7.4305  -21.3701  -50.0116 H         1 UNK         0.0600 
    228 H228       -7.6121  -22.7127  -51.1255 H         1 UNK         0.0600 
    229 H229       -6.2968  -22.7107  -49.9557 H         1 UNK         0.0600 
    230 H230       -6.9610  -22.1780  -53.8646 H         1 UNK         0.3000 
    231 H231       -8.6912  -19.9659  -54.5165 H         1 UNK         0.0600 
    232 H232       -7.6503  -22.2559  -56.2675 H         1 UNK         0.0600 
    233 H233       -8.9850  -21.1807  -56.6590 H         1 UNK         0.0600 
    234 H234       -9.1219  -22.2869  -55.2999 H         1 UNK         0.0600 
    235 H235       -5.3779  -20.9021  -55.4785 H         1 UNK         0.3000 
    236 H236       -5.0302  -18.8216  -57.4308 H         1 UNK         0.0600 
    237 H237       -3.7494  -20.9541  -57.4726 H         1 UNK         0.0600 
    238 H238       -2.6652  -19.5726  -57.3990 H         1 UNK         0.0600 
    239 H239       -2.9604  -20.5308  -55.9545 H         1 UNK         0.0600 
    240 H240       -4.1544  -19.1155  -53.9641 H         1 UNK         0.3000 
    241 H241       -3.6175  -16.1997  -53.8118 H         1 UNK         0.0600 
    242 H242       -5.4401  -15.5629  -52.6157 H         1 UNK         0.3800 
    243 H243       -5.9115  -16.3473  -51.1340 H         1 UNK         0.3800 
    244 H244       -1.4370  -17.3707  -54.0029 H         1 UNK         0.0800 
    245 H245       -1.8506  -18.4265  -52.6861 H         1 UNK         0.0800 
    246 H246       -1.6443  -18.0315  -50.3988 H         1 UNK         0.0800 
    247 H247       -1.1291  -16.5918  -49.5746 H         1 UNK         0.0800 
@<TRIPOS>BOND
     1    1    2 1    
     2    1  127 1    
     3    1  128 1    
     4    1  129 1    
     5    2    3 2    
     6    2    4 am   BACKBONE|DICT|INTERRES
     7    4    5 1    
     8    4  130 1    
     9    5    6 1    
    10    5   65 1    
    11    5  131 1    
    12    6    7 1    
    13    6  132 1    
    14    6  133 1    
    15    7    8 1    
    16    8    9 1    
    17    8  134 1    
    18    8  135 1    
    19    9   10 ar   
    20    9   14 ar   
    21   10   11 ar   
    22   10  136 1    
    23   11   12 ar   
    24   11  126 1    
    25   12   13 ar   
    26   12  137 1    
    27   13   14 ar   
    28   13   15 1    
    29   14  138 1    
    30   15   16 1    
    31   15  139 1    
    32   15  140 1    
    33   16   17 1    
    34   17   18 1    
    35   17  141 1    
    36   17  142 1    
    37   18   19 1    
    38   18   67 1    
    39   18  143 1    
    40   19   20 am   BACKBONE|DICT|INTERRES
    41   19  144 1    
    42   20   21 2    
    43   20   22 1    
    44   22   23 1    
    45   22   24 1    
    46   22  145 1    
    47   23  146 1    
    48   23  147 1    
    49   23  148 1    
    50   24   25 am   BACKBONE|DICT|INTERRES
    51   24  149 1    
    52   25   26 2    
    53   25   27 1    
    54   27   28 1    
    55   27   29 1    
    56   27  150 1    
    57   28  151 1    
    58   28  152 1    
    59   28  153 1    
    60   29   30 am   BACKBONE|DICT|INTERRES
    61   29  154 1    
    62   30   31 2    
    63   30   32 1    
    64   32   33 1    
    65   32   34 1    
    66   32  155 1    
    67   33  156 1    
    68   33  157 1    
    69   33  158 1    
    70   34   35 am   BACKBONE|DICT|INTERRES
    71   34  159 1    
    72   35   36 2    
    73   35   37 1    
    74   37   38 1    
    75   37   39 1    
    76   37  160 1    
    77   38  161 1    
    78   38  162 1    
    79   38  163 1    
    80   39   40 am   BACKBONE|DICT|INTERRES
    81   39  164 1    
    82   40   41 2    
    83   40   42 1    
    84   42   43 1    
    85   42   44 1    
    86   42  165 1    
    87   43  166 1    
    88   43  167 1    
    89   43  168 1    
    90   44   45 am   BACKBONE|DICT|INTERRES
    91   44  169 1    
    92   45   46 2    
    93   45   47 1    
    94   47   48 1    
    95   47   49 1    
    96   47  170 1    
    97   48  171 1    
    98   48  172 1    
    99   48  173 1    
   100   49   50 am   BACKBONE|DICT|INTERRES
   101   49  174 1    
   102   50   51 2    
   103   50   52 1    
   104   52   53 1    
   105   52   54 1    
   106   52  175 1    
   107   53  176 1    
   108   53  177 1    
   109   53  178 1    
   110   54   55 am   BACKBONE|DICT|INTERRES
   111   54  179 1    
   112   55   56 2    
   113   55   57 1    
   114   57   58 1    
   115   57   59 1    
   116   57  180 1    
   117   58  181 1    
   118   58  182 1    
   119   58  183 1    
   120   59   60 am   BACKBONE|DICT|INTERRES
   121   59  184 1    
   122   60   61 2    
   123   60   62 1    
   124   62   63 1    
   125   62   64 1    
   126   62  185 1    
   127   63  186 1    
   128   63  187 1    
   129   63  188 1    
   130   64   65 am   BACKBONE|DICT|INTERRES
   131   64  189 1    
   132   65   66 2    
   133   67   68 2    
   134   67   69 am   BACKBONE|DICT|INTERRES
   135   69   70 1    
   136   69  190 1    
   137   70   71 1    
   138   70   72 1    
   139   70  191 1    
   140   71  192 1    
   141   71  193 1    
   142   71  194 1    
   143   72   73 2    
   144   72   74 am   BACKBONE|DICT|INTERRES
   145   74   75 1    
   146   74  195 1    
   147   75   76 1    
   148   75   77 1    
   149   75  196 1    
   150   76  197 1    
   151   76  198 1    
   152   76  199 1    
   153   77   78 2    
   154   77   79 am   BACKBONE|DICT|INTERRES
   155   79   80 1    
   156   79  200 1    
   157   80   81 1    
   158   80   82 1    
   159   80  201 1    
   160   81  202 1    
   161   81  203 1    
   162   81  204 1    
   163   82   83 2    
   164   82   84 am   BACKBONE|DICT|INTERRES
   165   84   85 1    
   166   84  205 1    
   167   85   86 1    
   168   85   87 1    
   169   85  206 1    
   170   86  207 1    
   171   86  208 1    
   172   86  209 1    
   173   87   88 2    
   174   87   89 am   BACKBONE|DICT|INTERRES
   175   89   90 1    
   176   89  210 1    
   177   90   91 1    
   178   90   92 1    
   179   90  211 1    
   180   91  212 1    
   181   91  213 1    
   182   91  214 1    
   183   92   93 2    
   184   92   94 am   BACKBONE|DICT|INTERRES
   185   94   95 1    
   186   94  215 1    
   187   95   96 1    
   188   95   97 1    
   189   95  216 1    
   190   96  217 1    
   191   96  218 1    
   192   96  219 1    
   193   97   98 2    
   194   97   99 am   BACKBONE|DICT|INTERRES
   195   99  100 1    
   196   99  220 1    
   197  100  101 1    
   198  100  102 1    
   199  100  221 1    
   200  101  222 1    
   201  101  223 1    
   202  101  224 1    
   203  102  103 2    
   204  102  104 am   BACKBONE|DICT|INTERRES
   205  104  105 1    
   206  104  225 1    
   207  105  106 1    
   208  105  107 1    
   209  105  226 1    
   210  106  227 1    
   211  106  228 1    
   212  106  229 1    
   213  107  108 2    
   214  107  109 am   BACKBONE|DICT|INTERRES
   215  109  110 1    
   216  109  230 1    
   217  110  111 1    
   218  110  112 1    
   219  110  231 1    
   220  111  232 1    
   221  111  233 1    
   222  111  234 1    
   223  112  113 2    
   224  112  114 am   BACKBONE|DICT|INTERRES
   225  114  115 1    
   226  114  235 1    
   227  115  116 1    
   228  115  117 1    
   229  115  236 1    
   230  116  237 1    
   231  116  238 1    
   232  116  239 1    
   233  117  118 2    
   234  117  119 am   BACKBONE|DICT|INTERRES
   235  119  120 1    
   236  119  240 1    
   237  120  121 1    
   238  120  124 1    
   239  120  241 1    
   240  121  122 am   BACKBONE|DICT|INTERRES
   241  121  123 2    
   242  122  242 1    
   243  122  243 1    
   244  124  125 1    
   245  124  244 1    
   246  124  245 1    
   247  125  126 1    
   248  126  246 1    
   249  126  247 1    
@<TRIPOS>SUBSTRUCTURE
     1 UNK         1 GROUP             0       ****    0 ROOT    
