@<TRIPOS>MOLECULE
3R540
247   249    1
SMALL
USER_CHARGES


@<TRIPOS>ATOM
      1 CA          4.5310  -13.2034  -52.2888 C.3       0 UNK        -0.1800 
      2 C           4.2415  -13.9425  -50.9893 C.2       0 UNK         0.5000 
      3 O           3.5816  -13.3835  -50.1137 O.2       0 UNK        -0.5000 
      4 N           4.7376  -15.1846  -50.8824 N.am      1 UNK        -0.5000 
      5 CA          4.6151  -16.1246  -49.7568 C.3       1 UNK         0.1400 
      6 C6          3.3062  -16.9693  -49.7848 C.3       23 UNK        -0.0398 
      7 S7          1.7496  -16.0558  -49.4898 S.3       23 UNK        -0.2404 
      8 C8          0.9131  -16.2328  -51.1051 C.3       23 UNK        -0.0205 
      9 C9          0.4410  -17.6454  -51.4638 C.ar      23 UNK        -0.0193 
     10 C10         0.0472  -17.8998  -52.7818 C.ar      23 UNK        -0.1150 
     11 C11        -0.3813  -19.1729  -53.1705 C.ar      23 UNK        -0.0193 
     12 C12        -0.4069  -20.2058  -52.2316 C.ar      23 UNK        -0.1150 
     13 C13        -0.0221  -19.9708  -50.9112 C.ar      23 UNK        -0.0193 
     14 C14         0.3853  -18.6902  -50.5307 C.ar      23 UNK        -0.1150 
     15 C15        -0.0329  -21.1017  -49.8982 C.3       23 UNK        -0.0205 
     16 S16         1.6629  -21.6684  -49.5311 S.3       23 UNK        -0.2404 
     17 C17         1.7413  -21.4132  -47.7226 C.3       23 UNK        -0.0398 
     18 CA          1.4701  -22.6712  -46.8548 C.3       11 UNK         0.1400 
     19 N           1.3897  -22.3260  -45.4339 N.am      11 UNK        -0.5000 
     20 C           1.4134  -23.2050  -44.4230 C.2       10 UNK         0.5000 
     21 O           1.5644  -24.4174  -44.5710 O.2       10 UNK        -0.5000 
     22 CA          1.1753  -22.6301  -43.0143 C.3       10 UNK         0.1400 
     23 CB          2.4550  -21.9808  -42.4661 C.3       10 UNK        -0.1800 
     24 N           0.0828  -21.6545  -42.9859 N.am      10 UNK        -0.5000 
     25 C          -1.2028  -21.9588  -43.2135 C.2       9 UNK         0.5000 
     26 O          -1.6021  -23.1020  -43.4339 O.2       9 UNK        -0.5000 
     27 CA         -2.2083  -20.7899  -43.2332 C.3       9 UNK         0.1400 
     28 CB         -2.7103  -20.4921  -41.8127 C.3       9 UNK        -0.1800 
     29 N          -1.7111  -19.5479  -43.8334 N.am      9 UNK        -0.5000 
     30 C          -1.1520  -19.4201  -45.0456 C.2       8 UNK         0.5000 
     31 O          -0.8963  -20.3675  -45.7887 O.2       8 UNK        -0.5000 
     32 CA         -0.8603  -17.9775  -45.4951 C.3       8 UNK         0.1400 
     33 CB         -0.2246  -17.8867  -46.8936 C.3       8 UNK        -0.1800 
     34 N          -2.0564  -17.1371  -45.4060 N.am      8 UNK        -0.5000 
     35 C          -3.2231  -17.3185  -46.0441 C.2       7 UNK         0.5000 
     36 O          -3.3997  -18.1765  -46.9102 O.2       7 UNK        -0.5000 
     37 CA         -4.3817  -16.3595  -45.6984 C.3       7 UNK         0.1400 
     38 CB         -5.7390  -17.0891  -45.6273 C.3       7 UNK        -0.1800 
     39 N          -4.1551  -15.5425  -44.5005 N.am      7 UNK        -0.5000 
     40 C          -4.0575  -15.9465  -43.2232 C.2       6 UNK         0.5000 
     41 O          -4.1541  -17.1230  -42.8723 O.2       6 UNK        -0.5000 
     42 CA         -3.7622  -14.8554  -42.1712 C.3       6 UNK         0.1400 
     43 CB         -2.8733  -15.3851  -41.0313 C.3       6 UNK        -0.1800 
     44 N          -3.0947  -13.7082  -42.7873 N.am      6 UNK        -0.5000 
     45 C          -3.6556  -12.5239  -43.0662 C.2       5 UNK         0.5000 
     46 O          -4.8056  -12.2204  -42.7487 O.2       5 UNK        -0.5000 
     47 CA         -2.7996  -11.5162  -43.8646 C.3       5 UNK         0.1400 
     48 CB         -2.1549  -10.4928  -42.9176 C.3       5 UNK        -0.1800 
     49 N          -1.7475  -12.1469  -44.6683 N.am      5 UNK        -0.5000 
     50 C          -1.9557  -12.9643  -45.7108 C.2       4 UNK         0.5000 
     51 O          -3.0719  -13.2240  -46.1596 O.2       4 UNK        -0.5000 
     52 CA         -0.7190  -13.6654  -46.3074 C.3       4 UNK         0.1400 
     53 CB         -0.1958  -12.9007  -47.5314 C.3       4 UNK        -0.1800 
     54 N           0.3809  -13.8655  -45.3568 N.am      4 UNK        -0.5000 
     55 C           0.3109  -14.5779  -44.2221 C.2       3 UNK         0.5000 
     56 O          -0.7354  -15.0807  -43.8076 O.2       3 UNK        -0.5000 
     57 CA          1.6190  -14.7385  -43.4162 C.3       3 UNK         0.1400 
     58 CB          1.5898  -15.9644  -42.4784 C.3       3 UNK        -0.1800 
     59 N           2.8292  -14.7459  -44.2515 N.am      3 UNK        -0.5000 
     60 C           3.1316  -15.6266  -45.2161 C.2       2 UNK         0.5000 
     61 O           2.4216  -16.5846  -45.5302 O.2       2 UNK        -0.5000 
     62 CA          4.4559  -15.4011  -45.9552 C.3       2 UNK         0.1400 
     63 CB          5.6110  -16.1418  -45.2587 C.3       2 UNK        -0.1800 
     64 N           4.2900  -15.8901  -47.3173 N.am      2 UNK        -0.5000 
     65 C           5.0024  -15.5150  -48.3841 C.2       1 UNK         0.5000 
     66 O           5.9663  -14.7474  -48.3140 O.2       1 UNK        -0.5000 
     67 C           0.2134  -23.4548  -47.2860 C.2       11 UNK         0.5000 
     68 O           0.3454  -24.4974  -47.9243 O.2       11 UNK        -0.5000 
     69 N          -0.9694  -22.9686  -46.8841 N.am      12 UNK        -0.5000 
     70 CA         -2.2680  -23.5838  -47.1596 C.3       12 UNK         0.1400 
     71 CB         -3.3806  -22.7077  -46.5646 C.3       12 UNK        -0.1800 
     72 C          -2.3777  -25.0293  -46.6383 C.2       12 UNK         0.5000 
     73 O          -2.9413  -25.8822  -47.3228 O.2       12 UNK        -0.5000 
     74 N          -1.8086  -25.2871  -45.4536 N.am      13 UNK        -0.5000 
     75 CA         -1.7027  -26.6192  -44.8661 C.3       13 UNK         0.1400 
     76 CB         -1.3592  -26.4900  -43.3739 C.3       13 UNK        -0.1800 
     77 C          -0.6717  -27.5071  -45.5887 C.2       13 UNK         0.5000 
     78 O          -0.9714  -28.6653  -45.8811 O.2       13 UNK        -0.5000 
     79 N           0.5286  -26.9654  -45.8368 N.am      14 UNK        -0.5000 
     80 CA          1.6742  -27.7194  -46.3476 C.3       14 UNK         0.1400 
     81 CB          2.9681  -26.9669  -45.9999 C.3       14 UNK        -0.1800 
     82 C           1.6243  -28.0096  -47.8582 C.2       14 UNK         0.5000 
     83 O           1.9915  -29.1117  -48.2685 O.2       14 UNK        -0.5000 
     84 N           1.2235  -27.0143  -48.6571 N.am      15 UNK        -0.5000 
     85 CA          1.3719  -27.0009  -50.1152 C.3       15 UNK         0.1400 
     86 CB          2.3310  -25.8553  -50.4863 C.3       15 UNK        -0.1800 
     87 C           0.0340  -26.8566  -50.8632 C.2       15 UNK         0.5000 
     88 O           0.0507  -26.7855  -52.0935 O.2       15 UNK        -0.5000 
     89 N          -1.0868  -26.8232  -50.1269 N.am      16 UNK        -0.5000 
     90 CA         -2.4528  -26.5560  -50.5968 C.3       16 UNK         0.1400 
     91 CB         -2.8942  -27.5740  -51.6727 C.3       16 UNK        -0.1800 
     92 C          -2.6525  -25.0889  -51.0404 C.2       16 UNK         0.5000 
     93 O          -1.7461  -24.2647  -50.9007 O.2       16 UNK        -0.5000 
     94 N          -3.8633  -24.7821  -51.5301 N.am      17 UNK        -0.5000 
     95 CA         -4.3625  -23.4396  -51.8556 C.3       17 UNK         0.1400 
     96 CB         -3.6112  -22.8429  -53.0679 C.3       17 UNK        -0.1800 
     97 C          -4.3864  -22.5280  -50.6075 C.2       17 UNK         0.5000 
     98 O          -4.6844  -23.0212  -49.5191 O.2       17 UNK        -0.5000 
     99 N          -4.1015  -21.2342  -50.7831 N.am      18 UNK        -0.5000 
    100 CA        -4.0461  -20.1855  -49.7675 C.3       18 UNK         0.1400 
    101 CB        -5.4018  -20.0323  -49.0434 C.3       18 UNK        -0.1800 
    102 C         -3.7057  -18.8762  -50.4872 C.2       18 UNK         0.5000 
    103 O         -3.9835  -18.7533  -51.6832 O.2       18 UNK        -0.5000 
    104 N         -3.2012  -17.8831  -49.7457 N.am      19 UNK        -0.5000 
    105 CA        -2.9886  -16.5265  -50.2632 C.3       19 UNK         0.1400 
    106 CB        -2.2031  -15.6895  -49.2455 C.3       19 UNK        -0.1800 
    107 C         -4.3154  -15.8308  -50.6184 C.2       19 UNK         0.5000 
    108 O         -4.3736  -15.0821  -51.5926 O.2       19 UNK        -0.5000 
    109 N         -5.3700  -16.1421  -49.8515 N.am      20 UNK        -0.5000 
    110 CA        -6.7413  -15.6936  -50.0914 C.3       20 UNK         0.1400 
    111 CB        -7.5860  -16.0001  -48.8452 C.3       20 UNK        -0.1800 
    112 C         -7.3779  -16.3258  -51.3463 C.2       20 UNK         0.5000 
    113 O         -8.2742  -15.7194  -51.9339 O.2       20 UNK        -0.5000 
    114 N         -6.9100  -17.5212  -51.7343 N.am      21 UNK        -0.5000 
    115 CA        -7.3331  -18.2162  -52.9485 C.3       21 UNK         0.1400 
    116 CB        -7.1614  -19.7338  -52.7657 C.3       21 UNK        -0.1800 
    117 C         -6.5502  -17.7134  -54.1726 C.2       21 UNK         0.5000 
    118 O         -7.1574  -17.4332  -55.2071 O.2       21 UNK        -0.5000 
    119 N         -5.2229  -17.6063  -54.0311 N.am      22 UNK        -0.5000 
    120 CA        -4.3092  -17.1332  -55.0816 C.3       22 UNK         0.1400 
    121 C         -4.4111  -15.6109  -55.3812 C.2       22 UNK         0.5000 
    122 N         -4.7198  -14.7597  -54.4115 N.am      22 UNK        -0.7600 
    123 O         -4.2120  -15.1953  -56.5194 O.2       22 UNK        -0.5000 
    124 C124       -2.8447  -17.5324  -54.7834 C.3       23 UNK        -0.0398 
    125 S125       -2.6023  -19.3400  -54.8168 S.3       23 UNK        -0.2404 
    126 C126       -0.7987  -19.4462  -54.6070 C.3       23 UNK        -0.0205 
    127 H127        5.1259  -13.8052  -52.9765 H         1 UNK         0.0600 
    128 H128        5.0774  -12.2829  -52.0832 H         1 UNK         0.0600 
    129 H129        3.5971  -12.9426  -52.7870 H         1 UNK         0.0600 
    130 H130        5.2928  -15.5335  -51.6507 H         1 UNK         0.3000 
    131 H131        5.4169  -16.8418  -49.9388 H         1 UNK         0.0600 
    132 H132        3.2392  -17.4738  -50.7495 H         1 UNK         0.0800 
    133 H133        3.3626  -17.7809  -49.0577 H         1 UNK         0.0800 
    134 H134        0.0505  -15.5668  -51.1181 H         1 UNK         0.0800 
    135 H135        1.5897  -15.8691  -51.8800 H         1 UNK         0.0800 
    136 H136        0.0775  -17.1026  -53.5112 H         1 UNK         0.1150 
    137 H137       -0.7217  -21.1948  -52.5317 H         1 UNK         0.1150 
    138 H138        0.6796  -18.5292  -49.5056 H         1 UNK         0.1150 
    139 H139       -0.5510  -20.7709  -48.9972 H         1 UNK         0.0800 
    140 H140       -0.6081  -21.9484  -50.2750 H         1 UNK         0.0800 
    141 H141        2.7359  -21.0303  -47.4909 H         1 UNK         0.0800 
    142 H142        1.0585  -20.6105  -47.4535 H         1 UNK         0.0800 
    143 H143        2.3210  -23.3444  -46.9817 H         1 UNK         0.0600 
    144 H144        1.1683  -21.3638  -45.2221 H         1 UNK         0.3000 
    145 H145        0.9065  -23.4606  -42.3579 H         1 UNK         0.0600 
    146 H146        2.3168  -21.6451  -41.4382 H         1 UNK         0.0600 
    147 H147        3.2829  -22.6911  -42.4662 H         1 UNK         0.0600 
    148 H148        2.7605  -21.1200  -43.0622 H         1 UNK         0.0600 
    149 H149        0.3276  -20.6912  -42.8117 H         1 UNK         0.3000 
    150 H150       -3.0652  -21.1059  -43.8292 H         1 UNK         0.0600 
    151 H151       -3.1122  -21.3908  -41.3427 H         1 UNK         0.0600 
    152 H152       -3.5083  -19.7490  -41.8242 H         1 UNK         0.0600 
    153 H153       -1.9106  -20.1156  -41.1738 H         1 UNK         0.0600 
    154 H154       -1.9230  -18.7020  -43.3232 H         1 UNK         0.3000 
    155 H155       -0.1388  -17.5753  -44.7841 H         1 UNK         0.0600 
    156 H156       -0.0233  -16.8496  -47.1565 H         1 UNK         0.0600 
    157 H157       -0.8586  -18.3221  -47.6656 H         1 UNK         0.0600 
    158 H158        0.7333  -18.4046  -46.9171 H         1 UNK         0.0600 
    159 H159       -1.9900  -16.3810  -44.7335 H         1 UNK         0.3000 
    160 H160       -4.4393  -15.6539  -46.5278 H         1 UNK         0.0600 
    161 H161       -5.7384  -17.8759  -44.8727 H         1 UNK         0.0600 
    162 H162       -5.9841  -17.5575  -46.5805 H         1 UNK         0.0600 
    163 H163       -6.5475  -16.3972  -45.3919 H         1 UNK         0.0600 
    164 H164       -4.0153  -14.5573  -44.6894 H         1 UNK         0.3000 
    165 H165       -4.7205  -14.5551  -41.7434 H         1 UNK         0.0600 
    166 H166       -1.9230  -15.7671  -41.4062 H         1 UNK         0.0600 
    167 H167       -2.6559  -14.6015  -40.3055 H         1 UNK         0.0600 
    168 H168       -3.3646  -16.1963  -40.4926 H         1 UNK         0.0600 
    169 H169       -2.1554  -13.8954  -43.1235 H         1 UNK         0.3000 
    170 H170       -3.4683  -10.9832  -44.5436 H         1 UNK         0.0600 
    171 H171       -2.9117   -9.9799  -42.3224 H         1 UNK         0.0600 
    172 H172       -1.4593  -10.9683  -42.2248 H         1 UNK         0.0600 
    173 H173       -1.6089   -9.7300  -43.4728 H         1 UNK         0.0600 
    174 H174       -0.7963  -11.9933  -44.3679 H         1 UNK         0.3000 
    175 H175       -1.0420  -14.6531  -46.6401 H         1 UNK         0.0600 
    176 H176        0.1895  -11.9179  -47.2577 H         1 UNK         0.0600 
    177 H177        0.6050  -13.4506  -48.0270 H         1 UNK         0.0600 
    178 H178       -0.9868  -12.7507  -48.2672 H         1 UNK         0.0600 
    179 H179        1.2770  -13.4848  -45.6225 H         1 UNK         0.3000 
    180 H180        1.6886  -13.8500  -42.7873 H         1 UNK         0.0600 
    181 H181        1.4671  -16.8969  -43.0293 H         1 UNK         0.0600 
    182 H182        0.7660  -15.8955  -41.7670 H         1 UNK         0.0600 
    183 H183        2.5099  -16.0377  -41.8989 H         1 UNK         0.0600 
    184 H184        3.4827  -13.9968  -44.0680 H         1 UNK         0.3000 
    185 H185        4.6667  -14.3299  -45.9814 H         1 UNK         0.0600 
    186 H186        6.5587  -15.9697  -45.7692 H         1 UNK         0.0600 
    187 H187        5.7307  -15.8002  -44.2299 H         1 UNK         0.0600 
    188 H188        5.4367  -17.2182  -45.2302 H         1 UNK         0.0600 
    189 H189        3.4757  -16.4816  -47.4357 H         1 UNK         0.3000 
    190 H190       -0.9816  -22.0848  -46.3784 H         1 UNK         0.3000 
    191 H191       -2.3873  -23.6089  -48.2436 H         1 UNK         0.0600 
    192 H192       -3.3151  -21.6800  -46.9221 H         1 UNK         0.0600 
    193 H193       -4.3640  -23.0881  -46.8421 H         1 UNK         0.0600 
    194 H194       -3.3382  -22.6907  -45.4772 H         1 UNK         0.0600 
    195 H195       -1.4239  -24.5166  -44.9175 H         1 UNK         0.3000 
    196 H196       -2.6768  -27.1067  -44.9445 H         1 UNK         0.0600 
    197 H197       -1.2773  -27.4710  -42.9043 H         1 UNK         0.0600 
    198 H198       -2.1317  -25.9366  -42.8397 H         1 UNK         0.0600 
    199 H199       -0.4125  -25.9705  -43.2204 H         1 UNK         0.0600 
    200 H200        0.7083  -26.0083  -45.5512 H         1 UNK         0.3000 
    201 H201        1.7059  -28.6813  -45.8311 H         1 UNK         0.0600 
    202 H202        3.0704  -26.8360  -44.9224 H         1 UNK         0.0600 
    203 H203        2.9940  -25.9784  -46.4607 H         1 UNK         0.0600 
    204 H204        3.8459  -27.5142  -46.3455 H         1 UNK         0.0600 
    205 H205        0.9144  -26.1334  -48.2440 H         1 UNK         0.3000 
    206 H206        1.8168  -27.9349  -50.4635 H         1 UNK         0.0600 
    207 H207        3.2912  -25.9649  -49.9821 H         1 UNK         0.0600 
    208 H208        2.5290  -25.8367  -51.5586 H         1 UNK         0.0600 
    209 H209        1.9175  -24.8836  -50.2123 H         1 UNK         0.0600 
    210 H210       -0.9758  -26.8518  -49.1232 H         1 UNK         0.3000 
    211 H211       -3.0984  -26.7072  -49.7326 H         1 UNK         0.0600 
    212 H212       -2.4289  -27.3766  -52.6387 H         1 UNK         0.0600 
    213 H213       -3.9735  -27.5461  -51.8231 H         1 UNK         0.0600 
    214 H214       -2.6405  -28.5929  -51.3799 H         1 UNK         0.0600 
    215 H215       -4.5549  -25.5166  -51.5744 H         1 UNK         0.3000 
    216 H216       -5.4049  -23.5684  -52.1498 H         1 UNK         0.0600 
    217 H217       -3.6022  -23.5421  -53.9040 H         1 UNK         0.0600 
    218 H218       -2.5758  -22.6024  -52.8287 H         1 UNK         0.0600 
    219 H219       -4.0902  -21.9299  -53.4240 H         1 UNK         0.0600 
    220 H220       -3.8819  -20.8942  -51.7120 H         1 UNK         0.3000 
    221 H221       -3.2546  -20.4162  -49.0523 H         1 UNK         0.0600 
    222 H222       -6.2260  -19.9262  -49.7493 H         1 UNK         0.0600 
    223 H223       -5.6162  -20.8881  -48.4045 H         1 UNK         0.0600 
    224 H224       -5.4113  -19.1557  -48.3963 H         1 UNK         0.0600 
    225 H225       -3.0615  -18.0315  -48.7485 H         1 UNK         0.3000 
    226 H226       -2.3947  -16.6022  -51.1765 H         1 UNK         0.0600 
    227 H227       -1.9686  -14.7052  -49.6521 H         1 UNK         0.0600 
    228 H228       -2.7629  -15.5350  -48.3244 H         1 UNK         0.0600 
    229 H229       -1.2589  -16.1671  -48.9935 H         1 UNK         0.0600 
    230 H230       -5.2271  -16.7730  -49.0780 H         1 UNK         0.3000 
    231 H231       -6.7254  -14.6116  -50.2385 H         1 UNK         0.0600 
    232 H232       -8.6134  -15.6579  -48.9761 H         1 UNK         0.0600 
    233 H233       -7.1875  -15.4958  -47.9646 H         1 UNK         0.0600 
    234 H234       -7.6209  -17.0698  -48.6347 H         1 UNK         0.0600 
    235 H235       -6.1340  -17.9249  -51.2317 H         1 UNK         0.3000 
    236 H236       -8.3938  -18.0221  -53.1222 H         1 UNK         0.0600 
    237 H237       -7.7355  -20.0957  -51.9129 H         1 UNK         0.0600 
    238 H238       -7.5141  -20.2717  -53.6464 H         1 UNK         0.0600 
    239 H239       -6.1198  -20.0137  -52.6110 H         1 UNK         0.0600 
    240 H240       -4.7873  -17.9136  -53.1657 H         1 UNK         0.3000 
    241 H241       -4.5976  -17.6374  -56.0064 H         1 UNK         0.0600 
    242 H242       -4.7891  -13.7782  -54.6263 H         1 UNK         0.3800 
    243 H243       -4.7867  -15.0589  -53.4427 H         1 UNK         0.3800 
    244 H244       -2.5413  -17.1489  -53.8080 H         1 UNK         0.0800 
    245 H245       -2.1676  -17.0922  -55.5178 H         1 UNK         0.0800 
    246 H246       -0.4717  -20.4460  -54.8964 H         1 UNK         0.0800 
    247 H247       -0.3030  -18.7563  -55.2915 H         1 UNK         0.0800 
@<TRIPOS>BOND
     1    1    2 1    
     2    1  127 1    
     3    1  128 1    
     4    1  129 1    
     5    2    3 2    
     6    2    4 am   BACKBONE|DICT|INTERRES
     7    4    5 1    
     8    4  130 1    
     9    5    6 1    
    10    5   65 1    
    11    5  131 1    
    12    6    7 1    
    13    6  132 1    
    14    6  133 1    
    15    7    8 1    
    16    8    9 1    
    17    8  134 1    
    18    8  135 1    
    19    9   10 ar   
    20    9   14 ar   
    21   10   11 ar   
    22   10  136 1    
    23   11   12 ar   
    24   11  126 1    
    25   12   13 ar   
    26   12  137 1    
    27   13   14 ar   
    28   13   15 1    
    29   14  138 1    
    30   15   16 1    
    31   15  139 1    
    32   15  140 1    
    33   16   17 1    
    34   17   18 1    
    35   17  141 1    
    36   17  142 1    
    37   18   19 1    
    38   18   67 1    
    39   18  143 1    
    40   19   20 am   BACKBONE|DICT|INTERRES
    41   19  144 1    
    42   20   21 2    
    43   20   22 1    
    44   22   23 1    
    45   22   24 1    
    46   22  145 1    
    47   23  146 1    
    48   23  147 1    
    49   23  148 1    
    50   24   25 am   BACKBONE|DICT|INTERRES
    51   24  149 1    
    52   25   26 2    
    53   25   27 1    
    54   27   28 1    
    55   27   29 1    
    56   27  150 1    
    57   28  151 1    
    58   28  152 1    
    59   28  153 1    
    60   29   30 am   BACKBONE|DICT|INTERRES
    61   29  154 1    
    62   30   31 2    
    63   30   32 1    
    64   32   33 1    
    65   32   34 1    
    66   32  155 1    
    67   33  156 1    
    68   33  157 1    
    69   33  158 1    
    70   34   35 am   BACKBONE|DICT|INTERRES
    71   34  159 1    
    72   35   36 2    
    73   35   37 1    
    74   37   38 1    
    75   37   39 1    
    76   37  160 1    
    77   38  161 1    
    78   38  162 1    
    79   38  163 1    
    80   39   40 am   BACKBONE|DICT|INTERRES
    81   39  164 1    
    82   40   41 2    
    83   40   42 1    
    84   42   43 1    
    85   42   44 1    
    86   42  165 1    
    87   43  166 1    
    88   43  167 1    
    89   43  168 1    
    90   44   45 am   BACKBONE|DICT|INTERRES
    91   44  169 1    
    92   45   46 2    
    93   45   47 1    
    94   47   48 1    
    95   47   49 1    
    96   47  170 1    
    97   48  171 1    
    98   48  172 1    
    99   48  173 1    
   100   49   50 am   BACKBONE|DICT|INTERRES
   101   49  174 1    
   102   50   51 2    
   103   50   52 1    
   104   52   53 1    
   105   52   54 1    
   106   52  175 1    
   107   53  176 1    
   108   53  177 1    
   109   53  178 1    
   110   54   55 am   BACKBONE|DICT|INTERRES
   111   54  179 1    
   112   55   56 2    
   113   55   57 1    
   114   57   58 1    
   115   57   59 1    
   116   57  180 1    
   117   58  181 1    
   118   58  182 1    
   119   58  183 1    
   120   59   60 am   BACKBONE|DICT|INTERRES
   121   59  184 1    
   122   60   61 2    
   123   60   62 1    
   124   62   63 1    
   125   62   64 1    
   126   62  185 1    
   127   63  186 1    
   128   63  187 1    
   129   63  188 1    
   130   64   65 am   BACKBONE|DICT|INTERRES
   131   64  189 1    
   132   65   66 2    
   133   67   68 2    
   134   67   69 am   BACKBONE|DICT|INTERRES
   135   69   70 1    
   136   69  190 1    
   137   70   71 1    
   138   70   72 1    
   139   70  191 1    
   140   71  192 1    
   141   71  193 1    
   142   71  194 1    
   143   72   73 2    
   144   72   74 am   BACKBONE|DICT|INTERRES
   145   74   75 1    
   146   74  195 1    
   147   75   76 1    
   148   75   77 1    
   149   75  196 1    
   150   76  197 1    
   151   76  198 1    
   152   76  199 1    
   153   77   78 2    
   154   77   79 am   BACKBONE|DICT|INTERRES
   155   79   80 1    
   156   79  200 1    
   157   80   81 1    
   158   80   82 1    
   159   80  201 1    
   160   81  202 1    
   161   81  203 1    
   162   81  204 1    
   163   82   83 2    
   164   82   84 am   BACKBONE|DICT|INTERRES
   165   84   85 1    
   166   84  205 1    
   167   85   86 1    
   168   85   87 1    
   169   85  206 1    
   170   86  207 1    
   171   86  208 1    
   172   86  209 1    
   173   87   88 2    
   174   87   89 am   BACKBONE|DICT|INTERRES
   175   89   90 1    
   176   89  210 1    
   177   90   91 1    
   178   90   92 1    
   179   90  211 1    
   180   91  212 1    
   181   91  213 1    
   182   91  214 1    
   183   92   93 2    
   184   92   94 am   BACKBONE|DICT|INTERRES
   185   94   95 1    
   186   94  215 1    
   187   95   96 1    
   188   95   97 1    
   189   95  216 1    
   190   96  217 1    
   191   96  218 1    
   192   96  219 1    
   193   97   98 2    
   194   97   99 am   BACKBONE|DICT|INTERRES
   195   99  100 1    
   196   99  220 1    
   197  100  101 1    
   198  100  102 1    
   199  100  221 1    
   200  101  222 1    
   201  101  223 1    
   202  101  224 1    
   203  102  103 2    
   204  102  104 am   BACKBONE|DICT|INTERRES
   205  104  105 1    
   206  104  225 1    
   207  105  106 1    
   208  105  107 1    
   209  105  226 1    
   210  106  227 1    
   211  106  228 1    
   212  106  229 1    
   213  107  108 2    
   214  107  109 am   BACKBONE|DICT|INTERRES
   215  109  110 1    
   216  109  230 1    
   217  110  111 1    
   218  110  112 1    
   219  110  231 1    
   220  111  232 1    
   221  111  233 1    
   222  111  234 1    
   223  112  113 2    
   224  112  114 am   BACKBONE|DICT|INTERRES
   225  114  115 1    
   226  114  235 1    
   227  115  116 1    
   228  115  117 1    
   229  115  236 1    
   230  116  237 1    
   231  116  238 1    
   232  116  239 1    
   233  117  118 2    
   234  117  119 am   BACKBONE|DICT|INTERRES
   235  119  120 1    
   236  119  240 1    
   237  120  121 1    
   238  120  124 1    
   239  120  241 1    
   240  121  122 am   BACKBONE|DICT|INTERRES
   241  121  123 2    
   242  122  242 1    
   243  122  243 1    
   244  124  125 1    
   245  124  244 1    
   246  124  245 1    
   247  125  126 1    
   248  126  246 1    
   249  126  247 1    
@<TRIPOS>SUBSTRUCTURE
     1 UNK         1 GROUP             0       ****    0 ROOT    
