@<TRIPOS>MOLECULE
3R540
247   249    1
SMALL
USER_CHARGES


@<TRIPOS>ATOM
      1 CA         -7.0462  -11.8832  -47.7271 C.3       0 UNK        -0.1800 
      2 C          -6.3857  -13.0361  -46.9848 C.2       0 UNK         0.5000 
      3 O          -6.7548  -13.3188  -45.8459 O.2       0 UNK        -0.5000 
      4 N          -5.3977  -13.6822  -47.6196 N.am      1 UNK        -0.5000 
      5 CA         -4.6394  -14.8579  -47.1529 C.3       1 UNK         0.1400 
      6 C6         -5.5295  -16.0895  -46.8210 C.3       23 UNK        -0.0398 
      7 S7         -6.4373  -16.6916  -48.2884 S.3       23 UNK        -0.2404 
      8 C8         -5.4294  -18.1201  -48.8034 C.3       23 UNK        -0.0205 
      9 C9         -3.9951  -17.7239  -49.1203 C.ar      23 UNK        -0.0193 
     10 C10        -3.6754  -17.1326  -50.3453 C.ar      23 UNK        -0.1150 
     11 C11        -2.3736  -16.6875  -50.5988 C.ar      23 UNK        -0.0193 
     12 C12        -1.3922  -16.8341  -49.6144 C.ar      23 UNK        -0.1150 
     13 C13        -1.6939  -17.4533  -48.3981 C.ar      23 UNK        -0.0193 
     14 C14        -2.9931  -17.9080  -48.1647 C.ar      23 UNK        -0.1150 
     15 C15        -0.6449  -17.5886  -47.3048 C.3       23 UNK        -0.0205 
     16 S16         0.9145  -18.3459  -47.8680 S.3       23 UNK        -0.2404 
     17 C17         0.3823  -20.0149  -48.3989 C.3       23 UNK        -0.0398 
     18 CA          0.4128  -21.1030  -47.2905 C.3       11 UNK         0.1400 
     19 N           1.6705  -21.1404  -46.5506 N.am      11 UNK        -0.5000 
     20 C           2.7690  -21.7932  -46.9462 C.2       10 UNK         0.5000 
     21 O           2.8320  -22.4346  -47.9957 O.2       10 UNK        -0.5000 
     22 CA          4.0038  -21.7461  -46.0292 C.3       10 UNK         0.1400 
     23 CB          5.0451  -20.7590  -46.5790 C.3       10 UNK        -0.1800 
     24 N           3.6635  -21.3551  -44.6607 N.am      10 UNK        -0.5000 
     25 C           3.8852  -22.0974  -43.5688 C.2       9 UNK         0.5000 
     26 O           4.3840  -23.2233  -43.5905 O.2       9 UNK        -0.5000 
     27 CA          3.4726  -21.4837  -42.2234 C.3       9 UNK         0.1400 
     28 CB          4.4396  -20.3611  -41.8180 C.3       9 UNK        -0.1800 
     29 N           2.1107  -20.9548  -42.2907 N.am      9 UNK        -0.5000 
     30 C           1.1013  -21.3303  -41.4935 C.2       8 UNK         0.5000 
     31 O           1.2230  -22.1563  -40.5870 O.2       8 UNK        -0.5000 
     32 CA         -0.2860  -20.7089  -41.7651 C.3       8 UNK         0.1400 
     33 CB         -1.1021  -20.4695  -40.4775 C.3       8 UNK        -0.1800 
     34 N          -0.2442  -19.5094  -42.6066 N.am      8 UNK        -0.5000 
     35 C           0.2500  -18.3026  -42.3027 C.2       7 UNK         0.5000 
     36 O           0.7250  -17.9959  -41.2077 O.2       7 UNK        -0.5000 
     37 CA          0.2334  -17.2707  -43.4446 C.3       7 UNK         0.1400 
     38 CB         -0.5645  -16.0170  -43.0587 C.3       7 UNK        -0.1800 
     39 N           1.5825  -16.8760  -43.8395 N.am      7 UNK        -0.5000 
     40 C           2.5113  -17.6986  -44.3459 C.2       6 UNK         0.5000 
     41 O           2.3364  -18.9070  -44.5239 O.2       6 UNK        -0.5000 
     42 CA          3.8701  -17.0733  -44.7116 C.3       6 UNK         0.1400 
     43 CB          3.9140  -16.7291  -46.2076 C.3       6 UNK        -0.1800 
     44 N           4.1807  -15.8750  -43.9264 N.am      6 UNK        -0.5000 
     45 C           4.5651  -15.9045  -42.6409 C.2       5 UNK         0.5000 
     46 O           4.7101  -16.9472  -42.0037 O.2       5 UNK        -0.5000 
     47 CA          4.8571  -14.5641  -41.9363 C.3       5 UNK         0.1400 
     48 CB          6.3719  -14.3667  -41.7671 C.3       5 UNK        -0.1800 
     49 N           4.3068  -13.3885  -42.6112 N.am      5 UNK        -0.5000 
     50 C           3.0064  -13.0832  -42.6967 C.2       4 UNK         0.5000 
     51 O           2.1097  -13.7934  -42.2385 O.2       4 UNK        -0.5000 
     52 CA          2.6343  -11.7730  -43.4259 C.3       4 UNK         0.1400 
     53 CB          3.8431  -10.9867  -43.9831 C.3       4 UNK        -0.1800 
     54 N           1.6523  -12.0017  -44.4872 N.am      4 UNK        -0.5000 
     55 C           1.7504  -12.8534  -45.5160 C.2       3 UNK         0.5000 
     56 O           2.7316  -13.5740  -45.7088 O.2       3 UNK        -0.5000 
     57 CA          0.5383  -12.9099  -46.4733 C.3       3 UNK         0.1400 
     58 CB          0.7339  -13.9309  -47.6087 C.3       3 UNK        -0.1800 
     59 N          -0.7187  -13.2047  -45.7761 N.am      3 UNK        -0.5000 
     60 C          -1.4247  -12.3434  -45.0312 C.2       2 UNK         0.5000 
     61 O          -1.0758  -11.1764  -44.8400 O.2       2 UNK        -0.5000 
     62 CA         -2.7376  -12.8720  -44.4180 C.3       2 UNK         0.1400 
     63 CB         -3.4693  -11.8124  -43.5745 C.3       2 UNK        -0.1800 
     64 N          -3.6483  -13.3484  -45.4568 N.am      2 UNK        -0.5000 
     65 C          -3.6260  -14.5609  -46.0223 C.2       1 UNK         0.5000 
     66 O          -2.7995  -15.4201  -45.7125 O.2       1 UNK        -0.5000 
     67 C          -0.7564  -20.9693  -46.3057 C.2       11 UNK         0.5000 
     68 O          -0.5818  -20.4385  -45.2065 O.2       11 UNK        -0.5000 
     69 N          -1.9339  -21.4346  -46.7286 N.am      12 UNK        -0.5000 
     70 CA         -3.1963  -21.3675  -46.0061 C.3       12 UNK         0.1400 
     71 CB         -3.2036  -22.3723  -44.8383 C.3       12 UNK        -0.1800 
     72 C          -4.3147  -21.6964  -47.0013 C.2       12 UNK         0.5000 
     73 O          -4.0616  -22.3750  -48.0008 O.2       12 UNK        -0.5000 
     74 N          -5.5418  -21.2592  -46.6944 N.am      13 UNK        -0.5000 
     75 CA         -6.7373  -21.5692  -47.4861 C.3       13 UNK         0.1400 
     76 CB         -7.9087  -20.7013  -47.0023 C.3       13 UNK        -0.1800 
     77 C          -7.1068  -23.0645  -47.4333 C.2       13 UNK         0.5000 
     78 O          -7.5884  -23.6101  -48.4256 O.2       13 UNK        -0.5000 
     79 N          -6.8276  -23.7046  -46.2884 N.am      14 UNK        -0.5000 
     80 CA         -7.0237  -25.1354  -46.0501 C.3       14 UNK         0.1400 
     81 CB         -6.9015  -25.4079  -44.5430 C.3       14 UNK        -0.1800 
     82 C          -6.0459  -26.0297  -46.8379 C.2       14 UNK         0.5000 
     83 O          -6.3743  -27.1859  -47.1060 O.2       14 UNK        -0.5000 
     84 N          -4.8720  -25.4889  -47.1997 N.am      15 UNK        -0.5000 
     85 CA         -3.8732  -26.1715  -48.0263 C.3       15 UNK         0.1400 
     86 CB         -2.5118  -25.4777  -47.8632 C.3       15 UNK        -0.1800 
     87 C          -4.2812  -26.2255  -49.5107 C.2       15 UNK         0.5000 
     88 O          -3.8679  -27.1471  -50.2152 O.2       15 UNK        -0.5000 
     89 N          -5.0876  -25.2441  -49.9450 N.am      16 UNK        -0.5000 
     90 CA         -5.6996  -25.0544  -51.2647 C.3       16 UNK         0.1400 
     91 CB         -6.6558  -26.2106  -51.6125 C.3       16 UNK        -0.1800 
     92 C          -4.6910  -24.7934  -52.3973 C.2       16 UNK         0.5000 
     93 O          -4.7446  -23.7352  -53.0226 O.2       16 UNK        -0.5000 
     94 N          -3.7707  -25.7363  -52.6287 N.am      17 UNK        -0.5000 
     95 CA         -2.7329  -25.6687  -53.6588 C.3       17 UNK         0.1400 
     96 CB         -1.9902  -27.0112  -53.7217 C.3       17 UNK        -0.1800 
     97 C          -1.7459  -24.5106  -53.4329 C.2       17 UNK         0.5000 
     98 O          -1.3537  -23.8472  -54.3915 O.2       17 UNK        -0.5000 
     99 N          -1.4037  -24.2573  -52.1625 N.am      18 UNK        -0.5000 
    100 CA        -0.5293  -23.1595  -51.7485 C.3       18 UNK         0.1400 
    101 CB        -0.0862  -23.3921  -50.2984 C.3       18 UNK        -0.1800 
    102 C         -1.1855  -21.7733  -51.9023 C.2       18 UNK         0.5000 
    103 O         -0.4722  -20.7917  -52.1004 O.2       18 UNK        -0.5000 
    104 N         -2.5225  -21.7208  -51.8241 N.am      19 UNK        -0.5000 
    105 CA        -3.3153  -20.5215  -52.0888 C.3       19 UNK         0.1400 
    106 CB        -4.6694  -20.6349  -51.3735 C.3       19 UNK        -0.1800 
    107 C         -3.5052  -20.2974  -53.5996 C.2       19 UNK         0.5000 
    108 O         -3.4189  -19.1611  -54.0622 O.2       19 UNK        -0.5000 
    109 N         -3.7287  -21.3843  -54.3537 N.am      20 UNK        -0.5000 
    110 CA        -3.8392  -21.3781  -55.8155 C.3       20 UNK         0.1400 
    111 CB        -4.2832  -22.7656  -56.3010 C.3       20 UNK        -0.1800 
    112 C         -2.5344  -20.9475  -56.5134 C.2       20 UNK         0.5000 
    113 O         -2.5868  -20.2648  -57.5382 O.2       20 UNK        -0.5000 
    114 N         -1.3888  -21.3040  -55.9137 N.am      21 UNK        -0.5000 
    115 CA        -0.0382  -20.9257  -56.3389 C.3       21 UNK         0.1400 
    116 CB         0.9878  -21.6380  -55.4439 C.3       21 UNK        -0.1800 
    117 C          0.2300  -19.4054  -56.3633 C.2       21 UNK         0.5000 
    118 O          1.1777  -18.9794  -57.0254 O.2       21 UNK        -0.5000 
    119 N         -0.6049  -18.6129  -55.6766 N.am      22 UNK        -0.5000 
    120 CA        -0.6098  -17.1431  -55.7510 C.3       22 UNK         0.1400 
    121 C         -1.0896  -16.5775  -57.1226 C.2       22 UNK         0.5000 
    122 N         -1.7421  -17.3562  -57.9800 N.am      22 UNK        -0.7600 
    123 O         -0.8618  -15.4068  -57.4151 O.2       22 UNK        -0.5000 
    124 C124       -1.4293  -16.4989  -54.6040 C.3       23 UNK        -0.0398 
    125 S125       -0.9448  -17.0647  -52.9395 S.3       23 UNK        -0.2404 
    126 C126       -2.0353  -16.0214  -51.9227 C.3       23 UNK        -0.0205 
    127 H127       -8.1114  -12.0790  -47.8503 H         1 UNK         0.0600 
    128 H128       -6.6117  -11.7345  -48.7159 H         1 UNK         0.0600 
    129 H129       -6.9317  -10.9580  -47.1624 H         1 UNK         0.0600 
    130 H130       -5.1463  -13.3706  -48.5475 H         1 UNK         0.3000 
    131 H131       -4.0117  -15.1310  -48.0017 H         1 UNK         0.0600 
    132 H132       -4.9372  -16.9090  -46.4135 H         1 UNK         0.0800 
    133 H133       -6.2535  -15.8491  -46.0424 H         1 UNK         0.0800 
    134 H134       -5.8945  -18.5743  -49.6774 H         1 UNK         0.0800 
    135 H135       -5.4504  -18.8735  -48.0178 H         1 UNK         0.0800 
    136 H136       -4.4475  -16.9974  -51.0896 H         1 UNK         0.1150 
    137 H137       -0.3903  -16.4725  -49.7991 H         1 UNK         0.1150 
    138 H138       -3.2352  -18.3643  -47.2160 H         1 UNK         0.1150 
    139 H139       -0.4381  -16.5998  -46.9008 H         1 UNK         0.0800 
    140 H140       -1.0403  -18.1612  -46.4683 H         1 UNK         0.0800 
    141 H141       -0.5994  -19.9595  -48.8723 H         1 UNK         0.0800 
    142 H142        1.0604  -20.3150  -49.1985 H         1 UNK         0.0800 
    143 H143        0.2813  -22.0766  -47.7644 H         1 UNK         0.0600 
    144 H144        1.6681  -20.6051  -45.6908 H         1 UNK         0.3000 
    145 H145        4.4438  -22.7452  -46.0448 H         1 UNK         0.0600 
    146 H146        4.6601  -19.7403  -46.5958 H         1 UNK         0.0600 
    147 H147        5.9510  -20.7647  -45.9727 H         1 UNK         0.0600 
    148 H148        5.3336  -21.0193  -47.5981 H         1 UNK         0.0600 
    149 H149        3.2438  -20.4342  -44.5565 H         1 UNK         0.3000 
    150 H150        3.5433  -22.2735  -41.4728 H         1 UNK         0.0600 
    151 H151        5.4604  -20.7355  -41.7331 H         1 UNK         0.0600 
    152 H152        4.1663  -19.9345  -40.8528 H         1 UNK         0.0600 
    153 H153        4.4466  -19.5523  -42.5483 H         1 UNK         0.0600 
    154 H154        1.9241  -20.2674  -43.0113 H         1 UNK         0.3000 
    155 H155       -0.8248  -21.4532  -42.3523 H         1 UNK         0.0600 
    156 H156       -2.0737  -20.0296  -40.7021 H         1 UNK         0.0600 
    157 H157       -0.5839  -19.8066  -39.7844 H         1 UNK         0.0600 
    158 H158       -1.2865  -21.4071  -39.9519 H         1 UNK         0.0600 
    159 H159       -0.5179  -19.6813  -43.5741 H         1 UNK         0.3000 
    160 H160       -0.2468  -17.7169  -44.3164 H         1 UNK         0.0600 
    161 H161       -0.1354  -15.5156  -42.1903 H         1 UNK         0.0600 
    162 H162       -1.5979  -16.2701  -42.8194 H         1 UNK         0.0600 
    163 H163       -0.5857  -15.3025  -43.8798 H         1 UNK         0.0600 
    164 H164        1.8402  -15.9148  -43.6641 H         1 UNK         0.3000 
    165 H165        4.6402  -17.8231  -44.5182 H         1 UNK         0.0600 
    166 H166        3.1355  -16.0179  -46.4815 H         1 UNK         0.0600 
    167 H167        4.8764  -16.3025  -46.4899 H         1 UNK         0.0600 
    168 H168        3.7595  -17.6178  -46.8191 H         1 UNK         0.0600 
    169 H169        4.0534  -14.9818  -44.3861 H         1 UNK         0.3000 
    170 H170        4.4090  -14.6207  -40.9420 H         1 UNK         0.0600 
    171 H171        6.8194  -15.2057  -41.2323 H         1 UNK         0.0600 
    172 H172        6.8766  -14.2855  -42.7306 H         1 UNK         0.0600 
    173 H173        6.5918  -13.4655  -41.1944 H         1 UNK         0.0600 
    174 H174        4.9743  -12.7623  -43.0375 H         1 UNK         0.3000 
    175 H175        2.1437  -11.1429  -42.6828 H         1 UNK         0.0600 
    176 H176        4.3948  -11.5560  -44.7322 H         1 UNK         0.0600 
    177 H177        3.5171  -10.0588  -44.4532 H         1 UNK         0.0600 
    178 H178        4.5381  -10.7109  -43.1891 H         1 UNK         0.0600 
    179 H179        0.7797  -11.4878  -44.4045 H         1 UNK         0.3000 
    180 H180        0.4483  -11.9239  -46.9338 H         1 UNK         0.0600 
    181 H181        0.9691  -14.9214  -47.2221 H         1 UNK         0.0600 
    182 H182        1.5615  -13.6355  -48.2546 H         1 UNK         0.0600 
    183 H183       -0.1546  -14.0119  -48.2354 H         1 UNK         0.0600 
    184 H184       -1.0847  -14.1441  -45.8750 H         1 UNK         0.3000 
    185 H185       -2.4801  -13.7000  -43.7547 H         1 UNK         0.0600 
    186 H186       -2.8370  -11.4541  -42.7611 H         1 UNK         0.0600 
    187 H187       -3.7585  -10.9480  -44.1735 H         1 UNK         0.0600 
    188 H188       -4.3727  -12.2241  -43.1240 H         1 UNK         0.0600 
    189 H189       -4.3467  -12.6940  -45.7780 H         1 UNK         0.3000 
    190 H190       -2.0306  -21.8440  -47.6499 H         1 UNK         0.3000 
    191 H191       -3.3417  -20.3532  -45.6289 H         1 UNK         0.0600 
    192 H192       -4.1566  -22.3554  -44.3084 H         1 UNK         0.0600 
    193 H193       -2.4295  -22.1405  -44.1076 H         1 UNK         0.0600 
    194 H194       -3.0374  -23.3928  -45.1857 H         1 UNK         0.0600 
    195 H195       -5.6831  -20.7177  -45.8535 H         1 UNK         0.3000 
    196 H196       -6.5325  -21.3157  -48.5288 H         1 UNK         0.0600 
    197 H197       -8.8067  -20.8967  -47.5899 H         1 UNK         0.0600 
    198 H198       -7.6834  -19.6394  -47.1014 H         1 UNK         0.0600 
    199 H199       -8.1516  -20.8969  -45.9571 H         1 UNK         0.0600 
    200 H200       -6.4417  -23.1700  -45.5248 H         1 UNK         0.3000 
    201 H201       -8.0360  -25.3975  -46.3654 H         1 UNK         0.0600 
    202 H202       -7.6391  -24.8380  -43.9776 H         1 UNK         0.0600 
    203 H203       -5.9121  -25.1466  -44.1652 H         1 UNK         0.0600 
    204 H204       -7.0693  -26.4627  -44.3215 H         1 UNK         0.0600 
    205 H205       -4.6847  -24.5257  -46.9630 H         1 UNK         0.3000 
    206 H206       -3.7723  -27.1998  -47.6724 H         1 UNK         0.0600 
    207 H207       -2.2008  -25.4568  -46.8186 H         1 UNK         0.0600 
    208 H208       -1.7370  -26.0041  -48.4220 H         1 UNK         0.0600 
    209 H209       -2.5345  -24.4516  -48.2268 H         1 UNK         0.0600 
    210 H210       -5.3384  -24.5372  -49.2672 H         1 UNK         0.3000 
    211 H211       -6.3065  -24.1516  -51.1761 H         1 UNK         0.0600 
    212 H212       -6.1346  -27.1635  -51.7068 H         1 UNK         0.0600 
    213 H213       -7.1648  -26.0227  -52.5587 H         1 UNK         0.0600 
    214 H214       -7.4241  -26.3250  -50.8475 H         1 UNK         0.0600 
    215 H215       -3.7600  -26.5393  -52.0052 H         1 UNK         0.3000 
    216 H216       -3.2247  -25.5047  -54.6194 H         1 UNK         0.0600 
    217 H217       -1.5076  -27.2499  -52.7731 H         1 UNK         0.0600 
    218 H218       -1.2165  -26.9943  -54.4905 H         1 UNK         0.0600 
    219 H219       -2.6717  -27.8266  -53.9650 H         1 UNK         0.0600 
    220 H220       -1.7730  -24.8527  -51.4364 H         1 UNK         0.3000 
    221 H221        0.3598  -23.1777  -52.3828 H         1 UNK         0.0600 
    222 H222       -0.9199  -23.3007  -49.6024 H         1 UNK         0.0600 
    223 H223        0.3554  -24.3805  -50.1698 H         1 UNK         0.0600 
    224 H224        0.6725  -22.6638  -50.0119 H         1 UNK         0.0600 
    225 H225       -3.0344  -22.5795  -51.6868 H         1 UNK         0.3000 
    226 H226       -2.7922  -19.6516  -51.6847 H         1 UNK         0.0600 
    227 H227       -4.5374  -20.6944  -50.2930 H         1 UNK         0.0600 
    228 H228       -5.2888  -19.7631  -51.5845 H         1 UNK         0.0600 
    229 H229       -5.2296  -21.5138  -51.6907 H         1 UNK         0.0600 
    230 H230       -3.8679  -22.2786  -53.8924 H         1 UNK         0.3000 
    231 H231       -4.6133  -20.6577  -56.0872 H         1 UNK         0.0600 
    232 H232       -4.4283  -22.7722  -57.3820 H         1 UNK         0.0600 
    233 H233       -5.2275  -23.0611  -55.8434 H         1 UNK         0.0600 
    234 H234       -3.5429  -23.5299  -56.0652 H         1 UNK         0.0600 
    235 H235       -1.4465  -21.9306  -55.1182 H         1 UNK         0.3000 
    236 H236        0.0928  -21.2882  -57.3603 H         1 UNK         0.0600 
    237 H237        0.8824  -21.3419  -54.4002 H         1 UNK         0.0600 
    238 H238        0.8781  -22.7210  -55.5000 H         1 UNK         0.0600 
    239 H239        2.0076  -21.4014  -55.7503 H         1 UNK         0.0600 
    240 H240       -1.3558  -19.0299  -55.1421 H         1 UNK         0.3000 
    241 H241        0.4245  -16.8146  -55.6331 H         1 UNK         0.0600 
    242 H242       -1.9499  -18.3238  -57.7578 H         1 UNK         0.3800 
    243 H243       -2.0420  -16.9750  -58.8634 H         1 UNK         0.3800 
    244 H244       -1.3265  -15.4125  -54.6321 H         1 UNK         0.0800 
    245 H245       -2.4917  -16.7101  -54.7383 H         1 UNK         0.0800 
    246 H246       -1.5484  -15.0628  -51.7386 H         1 UNK         0.0800 
    247 H247       -2.9513  -15.8015  -52.4733 H         1 UNK         0.0800 
@<TRIPOS>BOND
     1    1    2 1    
     2    1  127 1    
     3    1  128 1    
     4    1  129 1    
     5    2    3 2    
     6    2    4 am   BACKBONE|DICT|INTERRES
     7    4    5 1    
     8    4  130 1    
     9    5    6 1    
    10    5   65 1    
    11    5  131 1    
    12    6    7 1    
    13    6  132 1    
    14    6  133 1    
    15    7    8 1    
    16    8    9 1    
    17    8  134 1    
    18    8  135 1    
    19    9   10 ar   
    20    9   14 ar   
    21   10   11 ar   
    22   10  136 1    
    23   11   12 ar   
    24   11  126 1    
    25   12   13 ar   
    26   12  137 1    
    27   13   14 ar   
    28   13   15 1    
    29   14  138 1    
    30   15   16 1    
    31   15  139 1    
    32   15  140 1    
    33   16   17 1    
    34   17   18 1    
    35   17  141 1    
    36   17  142 1    
    37   18   19 1    
    38   18   67 1    
    39   18  143 1    
    40   19   20 am   BACKBONE|DICT|INTERRES
    41   19  144 1    
    42   20   21 2    
    43   20   22 1    
    44   22   23 1    
    45   22   24 1    
    46   22  145 1    
    47   23  146 1    
    48   23  147 1    
    49   23  148 1    
    50   24   25 am   BACKBONE|DICT|INTERRES
    51   24  149 1    
    52   25   26 2    
    53   25   27 1    
    54   27   28 1    
    55   27   29 1    
    56   27  150 1    
    57   28  151 1    
    58   28  152 1    
    59   28  153 1    
    60   29   30 am   BACKBONE|DICT|INTERRES
    61   29  154 1    
    62   30   31 2    
    63   30   32 1    
    64   32   33 1    
    65   32   34 1    
    66   32  155 1    
    67   33  156 1    
    68   33  157 1    
    69   33  158 1    
    70   34   35 am   BACKBONE|DICT|INTERRES
    71   34  159 1    
    72   35   36 2    
    73   35   37 1    
    74   37   38 1    
    75   37   39 1    
    76   37  160 1    
    77   38  161 1    
    78   38  162 1    
    79   38  163 1    
    80   39   40 am   BACKBONE|DICT|INTERRES
    81   39  164 1    
    82   40   41 2    
    83   40   42 1    
    84   42   43 1    
    85   42   44 1    
    86   42  165 1    
    87   43  166 1    
    88   43  167 1    
    89   43  168 1    
    90   44   45 am   BACKBONE|DICT|INTERRES
    91   44  169 1    
    92   45   46 2    
    93   45   47 1    
    94   47   48 1    
    95   47   49 1    
    96   47  170 1    
    97   48  171 1    
    98   48  172 1    
    99   48  173 1    
   100   49   50 am   BACKBONE|DICT|INTERRES
   101   49  174 1    
   102   50   51 2    
   103   50   52 1    
   104   52   53 1    
   105   52   54 1    
   106   52  175 1    
   107   53  176 1    
   108   53  177 1    
   109   53  178 1    
   110   54   55 am   BACKBONE|DICT|INTERRES
   111   54  179 1    
   112   55   56 2    
   113   55   57 1    
   114   57   58 1    
   115   57   59 1    
   116   57  180 1    
   117   58  181 1    
   118   58  182 1    
   119   58  183 1    
   120   59   60 am   BACKBONE|DICT|INTERRES
   121   59  184 1    
   122   60   61 2    
   123   60   62 1    
   124   62   63 1    
   125   62   64 1    
   126   62  185 1    
   127   63  186 1    
   128   63  187 1    
   129   63  188 1    
   130   64   65 am   BACKBONE|DICT|INTERRES
   131   64  189 1    
   132   65   66 2    
   133   67   68 2    
   134   67   69 am   BACKBONE|DICT|INTERRES
   135   69   70 1    
   136   69  190 1    
   137   70   71 1    
   138   70   72 1    
   139   70  191 1    
   140   71  192 1    
   141   71  193 1    
   142   71  194 1    
   143   72   73 2    
   144   72   74 am   BACKBONE|DICT|INTERRES
   145   74   75 1    
   146   74  195 1    
   147   75   76 1    
   148   75   77 1    
   149   75  196 1    
   150   76  197 1    
   151   76  198 1    
   152   76  199 1    
   153   77   78 2    
   154   77   79 am   BACKBONE|DICT|INTERRES
   155   79   80 1    
   156   79  200 1    
   157   80   81 1    
   158   80   82 1    
   159   80  201 1    
   160   81  202 1    
   161   81  203 1    
   162   81  204 1    
   163   82   83 2    
   164   82   84 am   BACKBONE|DICT|INTERRES
   165   84   85 1    
   166   84  205 1    
   167   85   86 1    
   168   85   87 1    
   169   85  206 1    
   170   86  207 1    
   171   86  208 1    
   172   86  209 1    
   173   87   88 2    
   174   87   89 am   BACKBONE|DICT|INTERRES
   175   89   90 1    
   176   89  210 1    
   177   90   91 1    
   178   90   92 1    
   179   90  211 1    
   180   91  212 1    
   181   91  213 1    
   182   91  214 1    
   183   92   93 2    
   184   92   94 am   BACKBONE|DICT|INTERRES
   185   94   95 1    
   186   94  215 1    
   187   95   96 1    
   188   95   97 1    
   189   95  216 1    
   190   96  217 1    
   191   96  218 1    
   192   96  219 1    
   193   97   98 2    
   194   97   99 am   BACKBONE|DICT|INTERRES
   195   99  100 1    
   196   99  220 1    
   197  100  101 1    
   198  100  102 1    
   199  100  221 1    
   200  101  222 1    
   201  101  223 1    
   202  101  224 1    
   203  102  103 2    
   204  102  104 am   BACKBONE|DICT|INTERRES
   205  104  105 1    
   206  104  225 1    
   207  105  106 1    
   208  105  107 1    
   209  105  226 1    
   210  106  227 1    
   211  106  228 1    
   212  106  229 1    
   213  107  108 2    
   214  107  109 am   BACKBONE|DICT|INTERRES
   215  109  110 1    
   216  109  230 1    
   217  110  111 1    
   218  110  112 1    
   219  110  231 1    
   220  111  232 1    
   221  111  233 1    
   222  111  234 1    
   223  112  113 2    
   224  112  114 am   BACKBONE|DICT|INTERRES
   225  114  115 1    
   226  114  235 1    
   227  115  116 1    
   228  115  117 1    
   229  115  236 1    
   230  116  237 1    
   231  116  238 1    
   232  116  239 1    
   233  117  118 2    
   234  117  119 am   BACKBONE|DICT|INTERRES
   235  119  120 1    
   236  119  240 1    
   237  120  121 1    
   238  120  124 1    
   239  120  241 1    
   240  121  122 am   BACKBONE|DICT|INTERRES
   241  121  123 2    
   242  122  242 1    
   243  122  243 1    
   244  124  125 1    
   245  124  244 1    
   246  124  245 1    
   247  125  126 1    
   248  126  246 1    
   249  126  247 1    
@<TRIPOS>SUBSTRUCTURE
     1 UNK         1 GROUP             0       ****    0 ROOT    
