@<TRIPOS>MOLECULE
3R540
247   249    1
SMALL
USER_CHARGES


@<TRIPOS>ATOM
      1 CA          2.6659  -14.2656  -44.5637 C.3       0 UNK        -0.1800 
      2 C           1.8088  -15.2500  -45.3452 C.2       0 UNK         0.5000 
      3 O           1.5944  -16.3670  -44.8730 O.2       0 UNK        -0.5000 
      4 N           1.3253  -14.8398  -46.5230 N.am      1 UNK        -0.5000 
      5 CA          0.4255  -15.6087  -47.3888 C.3       1 UNK         0.1400 
      6 C6          1.1612  -16.3609  -48.5369 C.3       23 UNK        -0.0398 
      7 S7          2.4492  -17.5201  -47.9698 S.3       23 UNK        -0.2404 
      8 C8          3.2678  -17.9629  -49.5301 C.3       23 UNK        -0.0205 
      9 C9          2.5303  -19.0801  -50.2502 C.ar      23 UNK        -0.0193 
     10 C10         1.5949  -18.7857  -51.2436 C.ar      23 UNK        -0.1150 
     11 C11         0.9213  -19.8138  -51.9073 C.ar      23 UNK        -0.0193 
     12 C12         1.2009  -21.1440  -51.5779 C.ar      23 UNK        -0.1150 
     13 C13         2.1468  -21.4605  -50.5970 C.ar      23 UNK        -0.0193 
     14 C14         2.7997  -20.4137  -49.9305 C.ar      23 UNK        -0.1150 
     15 C15         2.4233  -22.9402  -50.3078 C.3       23 UNK        -0.0205 
     16 S16         3.9504  -23.3012  -49.3705 S.3       23 UNK        -0.2404 
     17 C17         3.4019  -22.9710  -47.6616 C.3       23 UNK        -0.0398 
     18 CA          3.5122  -24.2032  -46.7268 C.3       11 UNK         0.1400 
     19 N           3.6672  -23.7599  -45.3380 N.am      11 UNK        -0.5000 
     20 C           4.2045  -24.4657  -44.3358 C.2       10 UNK         0.5000 
     21 O           4.6973  -25.5853  -44.4728 O.2       10 UNK        -0.5000 
     22 CA          4.1480  -23.8169  -42.9385 C.3       10 UNK         0.1400 
     23 CB          5.4030  -22.9702  -42.6779 C.3       10 UNK        -0.1800 
     24 N           2.9554  -22.9835  -42.7586 N.am      10 UNK        -0.5000 
     25 C           1.7122  -23.4640  -42.6111 C.2       9 UNK         0.5000 
     26 O           1.4470  -24.6652  -42.5624 O.2       9 UNK        -0.5000 
     27 CA          0.5672  -22.4338  -42.5613 C.3       9 UNK         0.1400 
     28 CB          0.3867  -21.8949  -41.1346 C.3       9 UNK        -0.1800 
     29 N           0.7512  -21.3120  -43.4839 N.am      9 UNK        -0.5000 
     30 C           0.8550  -21.4288  -44.8146 C.2       8 UNK         0.5000 
     31 O           0.8260  -22.5019  -45.4105 O.2       8 UNK        -0.5000 
     32 CA          1.1032  -20.1449  -45.6187 C.3       8 UNK         0.1400 
     33 CB         -0.2131  -19.3935  -45.8518 C.3       8 UNK        -0.1800 
     34 N           2.0891  -19.2628  -44.9952 N.am      8 UNK        -0.5000 
     35 C           3.3571  -19.6053  -44.7216 C.2       7 UNK         0.5000 
     36 O           3.8329  -20.7151  -44.9649 O.2       7 UNK        -0.5000 
     37 CA          4.2269  -18.5511  -44.0199 C.3       7 UNK         0.1400 
     38 CB          4.9000  -17.6192  -45.0381 C.3       7 UNK        -0.1800 
     39 N           3.4338  -17.7642  -43.0757 N.am      7 UNK        -0.5000 
     40 C           3.2715  -18.0887  -41.7869 C.2       6 UNK         0.5000 
     41 O           3.8338  -19.0409  -41.2445 O.2       6 UNK        -0.5000 
     42 CA          2.3110  -17.2126  -40.9598 C.3       6 UNK         0.1400 
     43 CB          3.0491  -15.9854  -40.4032 C.3       6 UNK        -0.1800 
     44 N           1.1207  -16.7612  -41.6839 N.am      6 UNK        -0.5000 
     45 C           0.1886  -17.5562  -42.2287 C.2       5 UNK         0.5000 
     46 O           0.2715  -18.7840  -42.2428 O.2       5 UNK        -0.5000 
     47 CA         -1.0450  -16.8664  -42.8447 C.3       5 UNK         0.1400 
     48 CB         -2.3284  -17.6915  -42.6375 C.3       5 UNK        -0.1800 
     49 N          -1.2454  -15.5274  -42.2828 N.am      5 UNK        -0.5000 
     50 C          -1.2273  -14.3919  -42.9868 C.2       4 UNK         0.5000 
     51 O          -1.0195  -14.3324  -44.2013 O.2       4 UNK        -0.5000 
     52 CA         -1.4399  -13.0929  -42.1946 C.3       4 UNK         0.1400 
     53 CB         -0.0883  -12.5200  -41.7398 C.3       4 UNK        -0.1800 
     54 N          -2.0943  -12.1277  -43.0700 N.am      4 UNK        -0.5000 
     55 C          -3.4075  -11.8720  -43.0860 C.2       3 UNK         0.5000 
     56 O          -4.1932  -12.2321  -42.2085 O.2       3 UNK        -0.5000 
     57 CA         -3.9346  -11.1185  -44.3236 C.3       3 UNK         0.1400 
     58 CB         -3.8851   -9.5998  -44.0973 C.3       3 UNK        -0.1800 
     59 N          -3.1922  -11.4508  -45.5450 N.am      3 UNK        -0.5000 
     60 C          -3.1923  -12.6558  -46.1356 C.2       2 UNK         0.5000 
     61 O          -3.8807  -13.5999  -45.7475 O.2       2 UNK        -0.5000 
     62 CA         -2.2700  -12.8521  -47.3505 C.3       2 UNK         0.1400 
     63 CB         -1.5692  -11.5636  -47.8372 C.3       2 UNK        -0.1800 
     64 N          -1.2719  -13.8694  -47.0274 N.am      2 UNK        -0.5000 
     65 C          -0.6591  -14.6510  -47.9250 C.2       1 UNK         0.5000 
     66 O          -0.8939  -14.5995  -49.1335 O.2       1 UNK        -0.5000 
     67 C           2.3260  -25.1861  -46.9150 C.2       11 UNK         0.5000 
     68 O           2.1937  -25.7745  -47.9884 O.2       11 UNK        -0.5000 
     69 N           1.4860  -25.3430  -45.8793 N.am      12 UNK        -0.5000 
     70 CA          0.2295  -26.1007  -45.8402 C.3       12 UNK         0.1400 
     71 CB          0.4656  -27.6043  -46.0946 C.3       12 UNK        -0.1800 
     72 C          -0.8733  -25.4920  -46.7363 C.2       12 UNK         0.5000 
     73 O          -1.7340  -26.2157  -47.2408 O.2       12 UNK        -0.5000 
     74 N          -0.8367  -24.1652  -46.8939 N.am      13 UNK        -0.5000 
     75 CA         -1.8496  -23.3423  -47.5441 C.3       13 UNK         0.1400 
     76 CB         -1.1326  -22.2833  -48.4004 C.3       13 UNK        -0.1800 
     77 C          -2.7528  -22.6841  -46.4834 C.2       13 UNK         0.5000 
     78 O          -2.4151  -22.6643  -45.2973 O.2       13 UNK        -0.5000 
     79 N          -3.8868  -22.1411  -46.9361 N.am      14 UNK        -0.5000 
     80 CA         -4.8780  -21.4447  -46.1123 C.3       14 UNK         0.1400 
     81 CB         -6.2767  -21.8825  -46.5793 C.3       14 UNK        -0.1800 
     82 C          -4.7434  -19.9106  -46.1989 C.2       14 UNK         0.5000 
     83 O          -5.4877  -19.2081  -45.5146 O.2       14 UNK        -0.5000 
     84 N          -3.8307  -19.4249  -47.0557 N.am      15 UNK        -0.5000 
     85 CA         -3.6417  -18.0267  -47.4620 C.3       15 UNK         0.1400 
     86 CB         -3.2545  -17.1304  -46.2666 C.3       15 UNK        -0.1800 
     87 C          -4.8402  -17.4834  -48.2721 C.2       15 UNK         0.5000 
     88 O          -5.1711  -16.3004  -48.1754 O.2       15 UNK        -0.5000 
     89 N          -5.4672  -18.3650  -49.0646 N.am      16 UNK        -0.5000 
     90 CA         -6.5414  -18.0387  -50.0037 C.3       16 UNK         0.1400 
     91 CB         -7.4013  -19.2984  -50.2259 C.3       16 UNK        -0.1800 
     92 C          -5.9823  -17.4647  -51.3261 C.2       16 UNK         0.5000 
     93 O          -4.8230  -17.0492  -51.3861 O.2       16 UNK        -0.5000 
     94 N          -6.8135  -17.4536  -52.3757 N.am      17 UNK        -0.5000 
     95 CA         -6.4385  -17.0312  -53.7255 C.3       17 UNK         0.1400 
     96 CB         -7.7060  -16.9491  -54.5901 C.3       17 UNK        -0.1800 
     97 C          -5.4249  -17.9922  -54.3733 C.2       17 UNK         0.5000 
     98 O          -5.5459  -19.2103  -54.2163 O.2       17 UNK        -0.5000 
     99 N          -4.4850  -17.4379  -55.1502 N.am      18 UNK        -0.5000 
    100 CA        -3.4595  -18.1870  -55.8863 C.3       18 UNK         0.1400 
    101 CB        -2.4636  -17.2015  -56.5136 C.3       18 UNK        -0.1800 
    102 C         -4.0363  -19.1351  -56.9571 C.2       18 UNK         0.5000 
    103 O         -3.4239  -20.1612  -57.2516 O.2       18 UNK        -0.5000 
    104 N         -5.2333  -18.8142  -57.4698 N.am      19 UNK        -0.5000 
    105 CA        -6.0272  -19.6598  -58.3664 C.3       19 UNK         0.1400 
    106 CB        -7.2302  -18.8503  -58.8739 C.3       19 UNK        -0.1800 
    107 C         -6.5021  -20.9759  -57.7131 C.2       19 UNK         0.5000 
    108 O         -6.7458  -21.9498  -58.4256 O.2       19 UNK        -0.5000 
    109 N         -6.5960  -20.9895  -56.3765 N.am      20 UNK        -0.5000 
    110 CA        -6.8988  -22.1581  -55.5500 C.3       20 UNK         0.1400 
    111 CB        -7.9478  -21.7504  -54.4992 C.3       20 UNK        -0.1800 
    112 C         -5.6219  -22.7173  -54.8860 C.2       20 UNK         0.5000 
    113 O         -5.7197  -23.4210  -53.8789 O.2       20 UNK        -0.5000 
    114 N         -4.4421  -22.3578  -55.4212 N.am      21 UNK        -0.5000 
    115 CA        -3.0977  -22.6810  -54.9235 C.3       21 UNK         0.1400 
    116 CB        -2.8105  -24.1888  -55.0759 C.3       21 UNK        -0.1800 
    117 C         -2.8388  -22.1654  -53.4908 C.2       21 UNK         0.5000 
    118 O         -2.0363  -22.7488  -52.7612 O.2       21 UNK        -0.5000 
    119 N         -3.5439  -21.0901  -53.1154 N.am      22 UNK        -0.5000 
    120 CA        -3.6211  -20.5160  -51.7661 C.3       22 UNK         0.1400 
    121 C         -4.3514  -21.4122  -50.7231 C.2       22 UNK         0.5000 
    122 N         -5.0523  -22.4709  -51.1105 N.am      22 UNK        -0.7600 
    123 O         -4.3298  -21.1083  -49.5341 O.2       22 UNK        -0.5000 
    124 C124       -2.2735  -19.9572  -51.2379 C.3       23 UNK        -0.0398 
    125 S125       -1.5758  -18.6601  -52.3162 S.3       23 UNK        -0.2404 
    126 C126       -0.0991  -19.4859  -52.9886 C.3       23 UNK        -0.0205 
    127 H127        3.6713  -14.6655  -44.4324 H         1 UNK         0.0600 
    128 H128        2.2331  -14.0969  -43.5778 H         1 UNK         0.0600 
    129 H129        2.7433  -13.3036  -45.0705 H         1 UNK         0.0600 
    130 H130        1.5262  -13.9028  -46.8427 H         1 UNK         0.3000 
    131 H131       -0.1105  -16.3412  -46.7841 H         1 UNK         0.0600 
    132 H132        0.4453  -16.9309  -49.1319 H         1 UNK         0.0800 
    133 H133        1.6260  -15.6440  -49.2157 H         1 UNK         0.0800 
    134 H134        3.3611  -17.0842  -50.1698 H         1 UNK         0.0800 
    135 H135        4.2867  -18.2838  -49.3085 H         1 UNK         0.0800 
    136 H136        1.3831  -17.7564  -51.4971 H         1 UNK         0.1150 
    137 H137        0.6808  -21.9403  -52.0930 H         1 UNK         0.1150 
    138 H138        3.5295  -20.6180  -49.1624 H         1 UNK         0.1150 
    139 H139        1.5698  -23.3754  -49.7870 H         1 UNK         0.0800 
    140 H140        2.4975  -23.4694  -51.2589 H         1 UNK         0.0800 
    141 H141        4.0442  -22.1695  -47.2935 H         1 UNK         0.0800 
    142 H142        2.3912  -22.5596  -47.6540 H         1 UNK         0.0800 
    143 H143        4.4194  -24.7507  -46.9911 H         1 UNK         0.0600 
    144 H144        3.3218  -22.8301  -45.1300 H         1 UNK         0.3000 
    145 H145        4.1213  -24.6203  -42.1992 H         1 UNK         0.0600 
    146 H146        5.3908  -22.5451  -41.6741 H         1 UNK         0.0600 
    147 H147        5.4922  -22.1481  -43.3885 H         1 UNK         0.0600 
    148 H148        6.3059  -23.5761  -42.7636 H         1 UNK         0.0600 
    149 H149        3.0832  -21.9836  -42.8265 H         1 UNK         0.3000 
    150 H150       -0.3513  -22.9483  -42.8517 H         1 UNK         0.0600 
    151 H151        0.2511  -22.7086  -40.4210 H         1 UNK         0.0600 
    152 H152       -0.4917  -21.2529  -41.0660 H         1 UNK         0.0600 
    153 H153        1.2513  -21.3124  -40.8131 H         1 UNK         0.0600 
    154 H154        0.7470  -20.3806  -43.0727 H         1 UNK         0.3000 
    155 H155        1.4997  -20.4375  -46.5930 H         1 UNK         0.0600 
    156 H156       -0.9826  -20.0549  -46.2498 H         1 UNK         0.0600 
    157 H157       -0.0806  -18.5875  -46.5699 H         1 UNK         0.0600 
    158 H158       -0.5988  -18.9700  -44.9267 H         1 UNK         0.0600 
    159 H159        1.7981  -18.3069  -44.8159 H         1 UNK         0.3000 
    160 H160        5.0201  -19.0803  -43.4874 H         1 UNK         0.0600 
    161 H161        4.1716  -17.0444  -45.6075 H         1 UNK         0.0600 
    162 H162        5.4962  -18.1886  -45.7522 H         1 UNK         0.0600 
    163 H163        5.5681  -16.9142  -44.5434 H         1 UNK         0.0600 
    164 H164        2.8671  -17.0212  -43.4701 H         1 UNK         0.3000 
    165 H165        1.9684  -17.8152  -40.1161 H         1 UNK         0.0600 
    166 H166        2.4117  -15.4123  -39.7296 H         1 UNK         0.0600 
    167 H167        3.9323  -16.2839  -39.8367 H         1 UNK         0.0600 
    168 H168        3.3804  -15.3193  -41.2010 H         1 UNK         0.0600 
    169 H169        0.9810  -15.7647  -41.7450 H         1 UNK         0.3000 
    170 H170       -0.8581  -16.8043  -43.9176 H         1 UNK         0.0600 
    171 H171       -2.2479  -18.6755  -43.1012 H         1 UNK         0.0600 
    172 H172       -2.5417  -17.8430  -41.5789 H         1 UNK         0.0600 
    173 H173       -3.1898  -17.1960  -43.0855 H         1 UNK         0.0600 
    174 H174       -1.4058  -15.4871  -41.2856 H         1 UNK         0.3000 
    175 H175       -2.0544  -13.2983  -41.3156 H         1 UNK         0.0600 
    176 H176        0.5712  -12.3195  -42.5853 H         1 UNK         0.0600 
    177 H177       -0.2225  -11.5866  -41.1929 H         1 UNK         0.0600 
    178 H178        0.4290  -13.2135  -41.0758 H         1 UNK         0.0600 
    179 H179       -1.5552  -11.8407  -43.8736 H         1 UNK         0.3000 
    180 H180       -4.9770  -11.4094  -44.4702 H         1 UNK         0.0600 
    181 H181       -4.4485   -9.3201  -43.2061 H         1 UNK         0.0600 
    182 H182       -4.3216   -9.0610  -44.9385 H         1 UNK         0.0600 
    183 H183       -2.8625   -9.2447  -43.9640 H         1 UNK         0.0600 
    184 H184       -2.6114  -10.7223  -45.9339 H         1 UNK         0.3000 
    185 H185       -2.9084  -13.2216  -48.1559 H         1 UNK         0.0600 
    186 H186       -2.2930  -10.7826  -48.0737 H         1 UNK         0.0600 
    187 H187       -0.8755  -11.1713  -47.0926 H         1 UNK         0.0600 
    188 H188       -0.9996  -11.7492  -48.7480 H         1 UNK         0.0600 
    189 H189       -1.0899  -14.0133  -46.0337 H         1 UNK         0.3000 
    190 H190        1.6707  -24.7832  -45.0576 H         1 UNK         0.3000 
    191 H191       -0.1370  -26.0014  -44.8175 H         1 UNK         0.0600 
    192 H192       -0.4366  -28.1804  -45.8867 H         1 UNK         0.0600 
    193 H193        1.2537  -27.9942  -45.4504 H         1 UNK         0.0600 
    194 H194        0.7461  -27.8041  -47.1288 H         1 UNK         0.0600 
    195 H195       -0.1436  -23.6423  -46.3598 H         1 UNK         0.3000 
    196 H196       -2.4799  -23.9515  -48.1952 H         1 UNK         0.0600 
    197 H197       -0.3507  -21.7673  -47.8443 H         1 UNK         0.0600 
    198 H198       -0.6695  -22.7421  -49.2733 H         1 UNK         0.0600 
    199 H199       -1.8229  -21.5266  -48.7679 H         1 UNK         0.0600 
    200 H200       -4.0718  -22.1279  -47.9359 H         1 UNK         0.3000 
    201 H201       -4.7648  -21.7248  -45.0631 H         1 UNK         0.0600 
    202 H202       -7.0571  -21.4223  -45.9720 H         1 UNK         0.0600 
    203 H203       -6.3988  -22.9626  -46.4979 H         1 UNK         0.0600 
    204 H204       -6.4596  -21.6016  -47.6175 H         1 UNK         0.0600 
    205 H205       -3.3177  -20.1075  -47.5942 H         1 UNK         0.3000 
    206 H206       -2.7950  -18.0262  -48.1498 H         1 UNK         0.0600 
    207 H207       -2.4060  -17.5385  -45.7215 H         1 UNK         0.0600 
    208 H208       -2.9732  -16.1335  -46.6037 H         1 UNK         0.0600 
    209 H209       -4.0775  -17.0060  -45.5631 H         1 UNK         0.0600 
    210 H210       -5.1186  -19.3167  -49.0947 H         1 UNK         0.3000 
    211 H211       -7.1765  -17.2716  -49.5562 H         1 UNK         0.0600 
    212 H212       -6.8874  -20.0408  -50.8360 H         1 UNK         0.0600 
    213 H213       -8.3380  -19.0553  -50.7280 H         1 UNK         0.0600 
    214 H214       -7.6643  -19.7700  -49.2786 H         1 UNK         0.0600 
    215 H215       -7.7401  -17.8386  -52.2689 H         1 UNK         0.3000 
    216 H216       -5.9933  -16.0361  -53.6603 H         1 UNK         0.0600 
    217 H217       -8.4271  -16.2486  -54.1684 H         1 UNK         0.0600 
    218 H218       -8.1950  -17.9203  -54.6814 H         1 UNK         0.0600 
    219 H219       -7.4724  -16.6039  -55.5980 H         1 UNK         0.0600 
    220 H220       -4.4531  -16.4324  -55.2388 H         1 UNK         0.3000 
    221 H221       -2.9187  -18.8044  -55.1660 H         1 UNK         0.0600 
    222 H222       -1.6751  -17.7312  -57.0500 H         1 UNK         0.0600 
    223 H223       -2.9515  -16.5318  -57.2229 H         1 UNK         0.0600 
    224 H224       -1.9805  -16.5912  -55.7502 H         1 UNK         0.0600 
    225 H225       -5.6579  -17.9474  -57.1754 H         1 UNK         0.3000 
    226 H226       -5.4024  -19.9237  -59.2222 H         1 UNK         0.0600 
    227 H227       -6.9078  -17.9547  -59.4054 H         1 UNK         0.0600 
    228 H228       -7.8328  -19.4384  -59.5673 H         1 UNK         0.0600 
    229 H229       -7.8807  -18.5403  -58.0549 H         1 UNK         0.0600 
    230 H230       -6.3390  -20.1562  -55.8592 H         1 UNK         0.3000 
    231 H231       -7.3217  -22.9579  -56.1607 H         1 UNK         0.0600 
    232 H232       -8.2696  -22.6098  -53.9098 H         1 UNK         0.0600 
    233 H233       -8.8369  -21.3327  -54.9716 H         1 UNK         0.0600 
    234 H234       -7.5559  -21.0054  -53.8056 H         1 UNK         0.0600 
    235 H235       -4.4557  -21.7505  -56.2317 H         1 UNK         0.3000 
    236 H236       -2.3972  -22.1456  -55.5656 H         1 UNK         0.0600 
    237 H237       -3.4289  -24.7885  -54.4074 H         1 UNK         0.0600 
    238 H238       -2.9957  -24.5242  -56.0962 H         1 UNK         0.0600 
    239 H239       -1.7684  -24.4143  -54.8462 H         1 UNK         0.0600 
    240 H240       -4.1937  -20.6796  -53.7762 H         1 UNK         0.3000 
    241 H241       -4.2861  -19.6636  -51.8760 H         1 UNK         0.0600 
    242 H242       -5.5372  -23.0195  -50.4202 H         1 UNK         0.3800 
    243 H243       -5.1232  -22.7322  -52.0881 H         1 UNK         0.3800 
    244 H244       -1.5563  -20.7642  -51.0942 H         1 UNK         0.0800 
    245 H245       -2.4086  -19.4998  -50.2572 H         1 UNK         0.0800 
    246 H246       -0.4022  -20.3857  -53.5251 H         1 UNK         0.0800 
    247 H247        0.3637  -18.8310  -53.7280 H         1 UNK         0.0800 
@<TRIPOS>BOND
     1    1    2 1    
     2    1  127 1    
     3    1  128 1    
     4    1  129 1    
     5    2    3 2    
     6    2    4 am   BACKBONE|DICT|INTERRES
     7    4    5 1    
     8    4  130 1    
     9    5    6 1    
    10    5   65 1    
    11    5  131 1    
    12    6    7 1    
    13    6  132 1    
    14    6  133 1    
    15    7    8 1    
    16    8    9 1    
    17    8  134 1    
    18    8  135 1    
    19    9   10 ar   
    20    9   14 ar   
    21   10   11 ar   
    22   10  136 1    
    23   11   12 ar   
    24   11  126 1    
    25   12   13 ar   
    26   12  137 1    
    27   13   14 ar   
    28   13   15 1    
    29   14  138 1    
    30   15   16 1    
    31   15  139 1    
    32   15  140 1    
    33   16   17 1    
    34   17   18 1    
    35   17  141 1    
    36   17  142 1    
    37   18   19 1    
    38   18   67 1    
    39   18  143 1    
    40   19   20 am   BACKBONE|DICT|INTERRES
    41   19  144 1    
    42   20   21 2    
    43   20   22 1    
    44   22   23 1    
    45   22   24 1    
    46   22  145 1    
    47   23  146 1    
    48   23  147 1    
    49   23  148 1    
    50   24   25 am   BACKBONE|DICT|INTERRES
    51   24  149 1    
    52   25   26 2    
    53   25   27 1    
    54   27   28 1    
    55   27   29 1    
    56   27  150 1    
    57   28  151 1    
    58   28  152 1    
    59   28  153 1    
    60   29   30 am   BACKBONE|DICT|INTERRES
    61   29  154 1    
    62   30   31 2    
    63   30   32 1    
    64   32   33 1    
    65   32   34 1    
    66   32  155 1    
    67   33  156 1    
    68   33  157 1    
    69   33  158 1    
    70   34   35 am   BACKBONE|DICT|INTERRES
    71   34  159 1    
    72   35   36 2    
    73   35   37 1    
    74   37   38 1    
    75   37   39 1    
    76   37  160 1    
    77   38  161 1    
    78   38  162 1    
    79   38  163 1    
    80   39   40 am   BACKBONE|DICT|INTERRES
    81   39  164 1    
    82   40   41 2    
    83   40   42 1    
    84   42   43 1    
    85   42   44 1    
    86   42  165 1    
    87   43  166 1    
    88   43  167 1    
    89   43  168 1    
    90   44   45 am   BACKBONE|DICT|INTERRES
    91   44  169 1    
    92   45   46 2    
    93   45   47 1    
    94   47   48 1    
    95   47   49 1    
    96   47  170 1    
    97   48  171 1    
    98   48  172 1    
    99   48  173 1    
   100   49   50 am   BACKBONE|DICT|INTERRES
   101   49  174 1    
   102   50   51 2    
   103   50   52 1    
   104   52   53 1    
   105   52   54 1    
   106   52  175 1    
   107   53  176 1    
   108   53  177 1    
   109   53  178 1    
   110   54   55 am   BACKBONE|DICT|INTERRES
   111   54  179 1    
   112   55   56 2    
   113   55   57 1    
   114   57   58 1    
   115   57   59 1    
   116   57  180 1    
   117   58  181 1    
   118   58  182 1    
   119   58  183 1    
   120   59   60 am   BACKBONE|DICT|INTERRES
   121   59  184 1    
   122   60   61 2    
   123   60   62 1    
   124   62   63 1    
   125   62   64 1    
   126   62  185 1    
   127   63  186 1    
   128   63  187 1    
   129   63  188 1    
   130   64   65 am   BACKBONE|DICT|INTERRES
   131   64  189 1    
   132   65   66 2    
   133   67   68 2    
   134   67   69 am   BACKBONE|DICT|INTERRES
   135   69   70 1    
   136   69  190 1    
   137   70   71 1    
   138   70   72 1    
   139   70  191 1    
   140   71  192 1    
   141   71  193 1    
   142   71  194 1    
   143   72   73 2    
   144   72   74 am   BACKBONE|DICT|INTERRES
   145   74   75 1    
   146   74  195 1    
   147   75   76 1    
   148   75   77 1    
   149   75  196 1    
   150   76  197 1    
   151   76  198 1    
   152   76  199 1    
   153   77   78 2    
   154   77   79 am   BACKBONE|DICT|INTERRES
   155   79   80 1    
   156   79  200 1    
   157   80   81 1    
   158   80   82 1    
   159   80  201 1    
   160   81  202 1    
   161   81  203 1    
   162   81  204 1    
   163   82   83 2    
   164   82   84 am   BACKBONE|DICT|INTERRES
   165   84   85 1    
   166   84  205 1    
   167   85   86 1    
   168   85   87 1    
   169   85  206 1    
   170   86  207 1    
   171   86  208 1    
   172   86  209 1    
   173   87   88 2    
   174   87   89 am   BACKBONE|DICT|INTERRES
   175   89   90 1    
   176   89  210 1    
   177   90   91 1    
   178   90   92 1    
   179   90  211 1    
   180   91  212 1    
   181   91  213 1    
   182   91  214 1    
   183   92   93 2    
   184   92   94 am   BACKBONE|DICT|INTERRES
   185   94   95 1    
   186   94  215 1    
   187   95   96 1    
   188   95   97 1    
   189   95  216 1    
   190   96  217 1    
   191   96  218 1    
   192   96  219 1    
   193   97   98 2    
   194   97   99 am   BACKBONE|DICT|INTERRES
   195   99  100 1    
   196   99  220 1    
   197  100  101 1    
   198  100  102 1    
   199  100  221 1    
   200  101  222 1    
   201  101  223 1    
   202  101  224 1    
   203  102  103 2    
   204  102  104 am   BACKBONE|DICT|INTERRES
   205  104  105 1    
   206  104  225 1    
   207  105  106 1    
   208  105  107 1    
   209  105  226 1    
   210  106  227 1    
   211  106  228 1    
   212  106  229 1    
   213  107  108 2    
   214  107  109 am   BACKBONE|DICT|INTERRES
   215  109  110 1    
   216  109  230 1    
   217  110  111 1    
   218  110  112 1    
   219  110  231 1    
   220  111  232 1    
   221  111  233 1    
   222  111  234 1    
   223  112  113 2    
   224  112  114 am   BACKBONE|DICT|INTERRES
   225  114  115 1    
   226  114  235 1    
   227  115  116 1    
   228  115  117 1    
   229  115  236 1    
   230  116  237 1    
   231  116  238 1    
   232  116  239 1    
   233  117  118 2    
   234  117  119 am   BACKBONE|DICT|INTERRES
   235  119  120 1    
   236  119  240 1    
   237  120  121 1    
   238  120  124 1    
   239  120  241 1    
   240  121  122 am   BACKBONE|DICT|INTERRES
   241  121  123 2    
   242  122  242 1    
   243  122  243 1    
   244  124  125 1    
   245  124  244 1    
   246  124  245 1    
   247  125  126 1    
   248  126  246 1    
   249  126  247 1    
@<TRIPOS>SUBSTRUCTURE
     1 UNK         1 GROUP             0       ****    0 ROOT    
