@<TRIPOS>MOLECULE
3R540
247   249    1
SMALL
USER_CHARGES


@<TRIPOS>ATOM
      1 CA         -1.3219  -14.8028  -48.2080 C.3       0 UNK        -0.1800 
      2 C           0.0375  -14.2098  -48.5476 C.2       0 UNK         0.5000 
      3 O           0.1387  -13.0036  -48.7698 O.2       0 UNK        -0.5000 
      4 N           1.0815  -15.0514  -48.5584 N.am      1 UNK        -0.5000 
      5 CA          2.4763  -14.7288  -48.9078 C.3       1 UNK         0.1400 
      6 C6          3.3693  -15.9961  -48.8168 C.3       23 UNK        -0.0398 
      7 S7          4.6348  -16.1053  -50.1300 S.3       23 UNK        -0.2404 
      8 C8          3.6578  -16.3794  -51.6516 C.3       23 UNK        -0.0205 
      9 C9          2.4846  -17.3292  -51.4528 C.ar      23 UNK        -0.0193 
     10 C10         1.1735  -16.8517  -51.5401 C.ar      23 UNK        -0.1150 
     11 C11         0.0865  -17.7010  -51.3155 C.ar      23 UNK        -0.0193 
     12 C12         0.3276  -19.0421  -50.9973 C.ar      23 UNK        -0.1150 
     13 C13         1.6330  -19.5345  -50.9102 C.ar      23 UNK        -0.0193 
     14 C14         2.7076  -18.6758  -51.1545 C.ar      23 UNK        -0.1150 
     15 C15         1.8852  -20.9916  -50.5507 C.3       23 UNK        -0.0205 
     16 S16         2.6183  -21.1815  -48.8951 S.3       23 UNK        -0.2404 
     17 C17         1.2916  -20.5745  -47.7998 C.3       23 UNK        -0.0398 
     18 CA          0.4555  -21.7279  -47.1773 C.3       11 UNK         0.1400 
     19 N           0.4397  -21.6777  -45.7121 N.am      11 UNK        -0.5000 
     20 C          -0.0311  -22.6492  -44.9171 C.2       10 UNK         0.5000 
     21 O          -0.4435  -23.7317  -45.3328 O.2       10 UNK        -0.5000 
     22 CA         -0.0928  -22.3455  -43.4076 C.3       10 UNK         0.1400 
     23 CB          1.2516  -22.6550  -42.7330 C.3       10 UNK        -0.1800 
     24 N          -0.4846  -20.9635  -43.1212 N.am      10 UNK        -0.5000 
     25 C          -1.6756  -20.4342  -43.4377 C.2       9 UNK         0.5000 
     26 O          -2.5900  -21.0763  -43.9504 O.2       9 UNK        -0.5000 
     27 CA         -1.8612  -18.9251  -43.2003 C.3       9 UNK         0.1400 
     28 CB         -2.2073  -18.6359  -41.7325 C.3       9 UNK        -0.1800 
     29 N          -0.6868  -18.1478  -43.5899 N.am      9 UNK        -0.5000 
     30 C          -0.1846  -18.0795  -44.8305 C.2       8 UNK         0.5000 
     31 O          -0.6818  -18.6353  -45.8102 O.2       8 UNK        -0.5000 
     32 CA          1.1384  -17.3132  -44.9847 C.3       8 UNK         0.1400 
     33 CB          0.9043  -15.7975  -44.9923 C.3       8 UNK        -0.1800 
     34 N           2.0827  -17.6478  -43.9205 N.am      8 UNK        -0.5000 
     35 C           2.6871  -18.8358  -43.7842 C.2       7 UNK         0.5000 
     36 O           2.5383  -19.7725  -44.5678 O.2       7 UNK        -0.5000 
     37 CA          3.5772  -19.0146  -42.5409 C.3       7 UNK         0.1400 
     38 CB          4.9867  -18.4638  -42.8032 C.3       7 UNK        -0.1800 
     39 N           3.0170  -18.3669  -41.3533 N.am      7 UNK        -0.5000 
     40 C           1.8939  -18.7620  -40.7373 C.2       6 UNK         0.5000 
     41 O           1.2323  -19.7396  -41.0848 O.2       6 UNK        -0.5000 
     42 CA          1.4009  -17.8859  -39.5700 C.3       6 UNK         0.1400 
     43 CB          2.0930  -18.2911  -38.2602 C.3       6 UNK        -0.1800 
     44 N           1.5881  -16.4486  -39.7972 N.am      6 UNK        -0.5000 
     45 C           1.0248  -15.7597  -40.7987 C.2       5 UNK         0.5000 
     46 O           0.3279  -16.2804  -41.6713 O.2       5 UNK        -0.5000 
     47 CA          1.3459  -14.2531  -40.8657 C.3       5 UNK         0.1400 
     48 CB          2.6584  -14.0402  -41.6329 C.3       5 UNK        -0.1800 
     49 N           0.2900  -13.4623  -41.5072 N.am      5 UNK        -0.5000 
     50 C          -0.9755  -13.3740  -41.0699 C.2       4 UNK         0.5000 
     51 O          -1.3730  -13.9226  -40.0401 O.2       4 UNK        -0.5000 
     52 CA         -1.9692  -12.5122  -41.8775 C.3       4 UNK         0.1400 
     53 CB         -2.5955  -11.4233  -40.9890 C.3       4 UNK        -0.1800 
     54 N          -1.3863  -11.8603  -43.0511 N.am      4 UNK        -0.5000 
     55 C          -1.2747  -12.4029  -44.2695 C.2       3 UNK         0.5000 
     56 O          -1.5855  -13.5643  -44.5321 O.2       3 UNK        -0.5000 
     57 CA         -0.7436  -11.4925  -45.3980 C.3       3 UNK         0.1400 
     58 CB         -0.7674   -9.9851  -45.0564 C.3       3 UNK        -0.1800 
     59 N           0.5901  -11.8853  -45.8574 N.am      3 UNK        -0.5000 
     60 C           1.7066  -11.9893  -45.1199 C.2       2 UNK         0.5000 
     61 O           1.7444  -11.8032  -43.9028 O.2       2 UNK        -0.5000 
     62 CA          2.9788  -12.3939  -45.8867 C.3       2 UNK         0.1400 
     63 CB          4.1373  -12.8478  -44.9795 C.3       2 UNK        -0.1800 
     64 N           2.6469  -13.4573  -46.8281 N.am      2 UNK        -0.5000 
     65 C           3.0849  -13.5697  -48.0852 C.2       1 UNK         0.5000 
     66 O           3.9028  -12.8072  -48.6010 O.2       1 UNK        -0.5000 
     67 C          -0.9772  -21.7677  -47.7492 C.2       11 UNK         0.5000 
     68 O          -1.2818  -22.6250  -48.5790 O.2       11 UNK        -0.5000 
     69 N          -1.8454  -20.8728  -47.2564 N.am      12 UNK        -0.5000 
     70 CA         -3.2653  -20.8071  -47.6063 C.3       12 UNK         0.1400 
     71 CB         -3.8949  -19.5629  -46.9648 C.3       12 UNK        -0.1800 
     72 C          -4.0397  -22.0809  -47.2153 C.2       12 UNK         0.5000 
     73 O          -4.8529  -22.5587  -48.0054 O.2       12 UNK        -0.5000 
     74 N          -3.7368  -22.6415  -46.0348 N.am      13 UNK        -0.5000 
     75 CA         -4.2877  -23.9045  -45.5318 C.3       13 UNK         0.1400 
     76 CB         -3.8694  -24.1024  -44.0676 C.3       13 UNK        -0.1800 
     77 C          -3.8937  -25.1322  -46.3776 C.2       13 UNK         0.5000 
     78 O          -4.6558  -26.0972  -46.4312 O.2       13 UNK        -0.5000 
     79 N          -2.7503  -25.0550  -47.0724 N.am      14 UNK        -0.5000 
     80 CA         -2.2920  -26.0184  -48.0777 C.3       14 UNK         0.1400 
     81 CB         -0.7531  -26.0359  -48.0835 C.3       14 UNK        -0.1800 
     82 C          -2.8743  -25.7192  -49.4794 C.2       14 UNK         0.5000 
     83 O          -2.2614  -26.0695  -50.4902 O.2       14 UNK        -0.5000 
     84 N          -4.0268  -25.0328  -49.5230 N.am      15 UNK        -0.5000 
     85 CA         -4.7838  -24.5881  -50.6971 C.3       15 UNK         0.1400 
     86 CB         -5.3187  -25.7958  -51.4933 C.3       15 UNK        -0.1800 
     87 C          -4.0153  -23.5986  -51.5934 C.2       15 UNK         0.5000 
     88 O          -4.3967  -23.4137  -52.7505 O.2       15 UNK        -0.5000 
     89 N          -2.9491  -22.9852  -51.0583 N.am      16 UNK        -0.5000 
     90 CA         -1.9587  -22.1687  -51.7632 C.3       16 UNK         0.1400 
     91 CB         -2.5881  -20.8637  -52.2829 C.3       16 UNK        -0.1800 
     92 C          -1.1848  -22.9609  -52.8373 C.2       16 UNK         0.5000 
     93 O          -0.7804  -22.3879  -53.8478 O.2       16 UNK        -0.5000 
     94 N          -1.0092  -24.2718  -52.5976 N.am      17 UNK        -0.5000 
     95 CA         -0.4820  -25.2734  -53.5301 C.3       17 UNK         0.1400 
     96 CB          0.9994  -25.0044  -53.8698 C.3       17 UNK        -0.1800 
     97 C          -1.3892  -25.4165  -54.7710 C.2       17 UNK         0.5000 
     98 O          -0.9038  -25.4222  -55.9035 O.2       17 UNK        -0.5000 
     99 N          -2.7014  -25.5151  -54.5066 N.am      18 UNK        -0.5000 
    100 CA        -3.8108  -25.5656  -55.4629 C.3       18 UNK         0.1400 
    101 CB        -3.7356  -26.8308  -56.3436 C.3       18 UNK        -0.1800 
    102 C         -3.9389  -24.2573  -56.2700 C.2       18 UNK         0.5000 
    103 O         -3.9429  -24.2793  -57.5025 O.2       18 UNK        -0.5000 
    104 N         -4.0525  -23.1388  -55.5446 N.am      19 UNK        -0.5000 
    105 CA        -4.2497  -21.7934  -56.0838 C.3       19 UNK         0.1400 
    106 CB        -2.9043  -21.0519  -56.1773 C.3       19 UNK        -0.1800 
    107 C         -5.3113  -21.0439  -55.2586 C.2       19 UNK         0.5000 
    108 O         -5.1313  -19.8718  -54.9230 O.2       19 UNK        -0.5000 
    109 N         -6.4067  -21.7528  -54.9463 N.am      20 UNK        -0.5000 
    110 CA        -7.6408  -21.2593  -54.3232 C.3       20 UNK         0.1400 
    111 CB        -8.3902  -20.3267  -55.2983 C.3       20 UNK        -0.1800 
    112 C         -7.4496  -20.6262  -52.9282 C.2       20 UNK         0.5000 
    113 O         -8.1572  -19.6761  -52.5865 O.2       20 UNK        -0.5000 
    114 N         -6.4969  -21.1587  -52.1458 N.am      21 UNK        -0.5000 
    115 CA        -6.1947  -20.7750  -50.7568 C.3       21 UNK         0.1400 
    116 CB        -7.3244  -21.2476  -49.8184 C.3       21 UNK        -0.1800 
    117 C         -5.8604  -19.2772  -50.5819 C.2       21 UNK         0.5000 
    118 O         -6.2256  -18.6752  -49.5716 O.2       21 UNK        -0.5000 
    119 N         -5.1883  -18.7087  -51.5911 N.am      22 UNK        -0.5000 
    120 CA        -4.8302  -17.2862  -51.7160 C.3       22 UNK         0.1400 
    121 C         -6.0345  -16.3473  -52.0381 C.2       22 UNK         0.5000 
    122 N         -7.2215  -16.8541  -52.3536 N.am      22 UNK        -0.7600 
    123 O         -5.8855  -15.1283  -52.0356 O.2       22 UNK        -0.5000 
    124 C124       -3.9572  -16.7373  -50.5460 C.3       23 UNK        -0.0398 
    125 S125       -2.4756  -17.7354  -50.1629 S.3       23 UNK        -0.2404 
    126 C126       -1.3329  -17.1589  -51.4602 C.3       23 UNK        -0.0205 
    127 H127       -1.2584  -15.8702  -47.9943 H         1 UNK         0.0600 
    128 H128       -2.0104  -14.6623  -49.0407 H         1 UNK         0.0600 
    129 H129       -1.7392  -14.3072  -47.3314 H         1 UNK         0.0600 
    130 H130        0.9002  -16.0297  -48.3880 H         1 UNK         0.3000 
    131 H131        2.4416  -14.3883  -49.9440 H         1 UNK         0.0600 
    132 H132        3.8744  -16.0621  -47.8509 H         1 UNK         0.0800 
    133 H133        2.7683  -16.9045  -48.8606 H         1 UNK         0.0800 
    134 H134        3.3104  -15.4143  -52.0232 H         1 UNK         0.0800 
    135 H135        4.3150  -16.7798  -52.4246 H         1 UNK         0.0800 
    136 H136        0.9988  -15.8120  -51.7792 H         1 UNK         0.1150 
    137 H137       -0.5048  -19.7013  -50.8084 H         1 UNK         0.1150 
    138 H138        3.7199  -19.0482  -51.0802 H         1 UNK         0.1150 
    139 H139        0.9682  -21.5766  -50.5991 H         1 UNK         0.0800 
    140 H140        2.5618  -21.4270  -51.2874 H         1 UNK         0.0800 
    141 H141        0.6746  -19.8419  -48.3220 H         1 UNK         0.0800 
    142 H142        1.7882  -19.9964  -47.0217 H         1 UNK         0.0800 
    143 H143        0.9172  -22.6827  -47.4388 H         1 UNK         0.0600 
    144 H144        0.8040  -20.8360  -45.2819 H         1 UNK         0.3000 
    145 H145       -0.8475  -23.0011  -42.9691 H         1 UNK         0.0600 
    146 H146        1.5504  -23.6882  -42.9142 H         1 UNK         0.0600 
    147 H147        2.0486  -22.0124  -43.1067 H         1 UNK         0.0600 
    148 H148        1.1908  -22.5189  -41.6532 H         1 UNK         0.0600 
    149 H149        0.1963  -20.3869  -42.6362 H         1 UNK         0.3000 
    150 H150       -2.6965  -18.5910  -43.8188 H         1 UNK         0.0600 
    151 H151       -2.3854  -17.5723  -41.5717 H         1 UNK         0.0600 
    152 H152       -1.4063  -18.9449  -41.0610 H         1 UNK         0.0600 
    153 H153       -3.1110  -19.1679  -41.4330 H         1 UNK         0.0600 
    154 H154       -0.2333  -17.6096  -42.8549 H         1 UNK         0.3000 
    155 H155        1.5860  -17.5954  -45.9400 H         1 UNK         0.0600 
    156 H156        0.3972  -15.4553  -44.0910 H         1 UNK         0.0600 
    157 H157        0.2814  -15.5023  -45.8350 H         1 UNK         0.0600 
    158 H158        1.8487  -15.2625  -45.0582 H         1 UNK         0.0600 
    159 H159        2.2061  -16.9603  -43.1929 H         1 UNK         0.3000 
    160 H160        3.6592  -20.0849  -42.3402 H         1 UNK         0.0600 
    161 H161        5.4357  -18.9413  -43.6752 H         1 UNK         0.0600 
    162 H162        5.6469  -18.6509  -41.9561 H         1 UNK         0.0600 
    163 H163        4.9733  -17.3888  -42.9880 H         1 UNK         0.0600 
    164 H164        3.5014  -17.5549  -41.0004 H         1 UNK         0.3000 
    165 H165        0.3298  -18.0647  -39.4567 H         1 UNK         0.0600 
    166 H166        1.6822  -17.7442  -37.4113 H         1 UNK         0.0600 
    167 H167        1.9537  -19.3540  -38.0578 H         1 UNK         0.0600 
    168 H168        3.1666  -18.1014  -38.2950 H         1 UNK         0.0600 
    169 H169        2.1613  -15.9585  -39.1254 H         1 UNK         0.3000 
    170 H170        1.4679  -13.8792  -39.8474 H         1 UNK         0.0600 
    171 H171        2.9347  -12.9860  -41.6615 H         1 UNK         0.0600 
    172 H172        3.4841  -14.5783  -41.1659 H         1 UNK         0.0600 
    173 H173        2.5739  -14.3933  -42.6604 H         1 UNK         0.0600 
    174 H174        0.5434  -12.9713  -42.3555 H         1 UNK         0.3000 
    175 H175       -2.7700  -13.1782  -42.2058 H         1 UNK         0.0600 
    176 H176       -1.8418  -10.7333  -40.6079 H         1 UNK         0.0600 
    177 H177       -3.3355  -10.8421  -41.5397 H         1 UNK         0.0600 
    178 H178       -3.1060  -11.8595  -40.1294 H         1 UNK         0.0600 
    179 H179       -1.0642  -10.9121  -42.9213 H         1 UNK         0.3000 
    180 H180       -1.4142  -11.6441  -46.2452 H         1 UNK         0.0600 
    181 H181       -0.4903   -9.3880  -45.9253 H         1 UNK         0.0600 
    182 H182       -0.0770   -9.7299  -44.2518 H         1 UNK         0.0600 
    183 H183       -1.7658   -9.6644  -44.7557 H         1 UNK         0.0600 
    184 H184        0.6548  -12.0943  -46.8474 H         1 UNK         0.3000 
    185 H185        3.2990  -11.5030  -46.4307 H         1 UNK         0.0600 
    186 H186        3.8986  -13.7708  -44.4528 H         1 UNK         0.0600 
    187 H187        5.0412  -13.0251  -45.5623 H         1 UNK         0.0600 
    188 H188        4.3779  -12.0898  -44.2332 H         1 UNK         0.0600 
    189 H189        1.9473  -14.1135  -46.5136 H         1 UNK         0.3000 
    190 H190       -1.5061  -20.1749  -46.5989 H         1 UNK         0.3000 
    191 H191       -3.3323  -20.6985  -48.6910 H         1 UNK         0.0600 
    192 H192       -3.8367  -19.5954  -45.8770 H         1 UNK         0.0600 
    193 H193       -4.9478  -19.4752  -47.2350 H         1 UNK         0.0600 
    194 H194       -3.3966  -18.6526  -47.2989 H         1 UNK         0.0600 
    195 H195       -3.1093  -22.1433  -45.4081 H         1 UNK         0.3000 
    196 H196       -5.3760  -23.8235  -45.5645 H         1 UNK         0.0600 
    197 H197       -4.2971  -25.0186  -43.6588 H         1 UNK         0.0600 
    198 H198       -4.2135  -23.2776  -43.4434 H         1 UNK         0.0600 
    199 H199       -2.7867  -24.1723  -43.9657 H         1 UNK         0.0600 
    200 H200       -2.1790  -24.2265  -46.9616 H         1 UNK         0.3000 
    201 H201       -2.6341  -27.0166  -47.7981 H         1 UNK         0.0600 
    202 H202       -0.3581  -26.2345  -47.0870 H         1 UNK         0.0600 
    203 H203       -0.3383  -25.0867  -48.4224 H         1 UNK         0.0600 
    204 H204       -0.3709  -26.8152  -48.7438 H         1 UNK         0.0600 
    205 H205       -4.4115  -24.7245  -48.6395 H         1 UNK         0.3000 
    206 H206       -5.6434  -24.0384  -50.3123 H         1 UNK         0.0600 
    207 H207       -5.9973  -25.4763  -52.2852 H         1 UNK         0.0600 
    208 H208       -4.5150  -26.3642  -51.9617 H         1 UNK         0.0600 
    209 H209       -5.8760  -26.4750  -50.8484 H         1 UNK         0.0600 
    210 H210       -2.7160  -23.1861  -50.0921 H         1 UNK         0.3000 
    211 H211       -1.2161  -21.8899  -51.0208 H         1 UNK         0.0600 
    212 H212       -3.3825  -21.0458  -53.0030 H         1 UNK         0.0600 
    213 H213       -1.8481  -20.2259  -52.7669 H         1 UNK         0.0600 
    214 H214       -3.0077  -20.2980  -51.4547 H         1 UNK         0.0600 
    215 H215       -1.3859  -24.6542  -51.7363 H         1 UNK         0.3000 
    216 H216       -0.5275  -26.2296  -53.0066 H         1 UNK         0.0600 
    217 H217        1.4191  -25.8272  -54.4494 H         1 UNK         0.0600 
    218 H218        1.5991  -24.9056  -52.9651 H         1 UNK         0.0600 
    219 H219        1.1272  -24.0956  -54.4582 H         1 UNK         0.0600 
    220 H220       -2.9778  -25.4608  -53.5373 H         1 UNK         0.3000 
    221 H221       -4.7207  -25.6432  -54.8657 H         1 UNK         0.0600 
    222 H222       -2.8741  -26.8158  -57.0115 H         1 UNK         0.0600 
    223 H223       -3.6716  -27.7319  -55.7337 H         1 UNK         0.0600 
    224 H224       -4.6265  -26.9231  -56.9658 H         1 UNK         0.0600 
    225 H225       -4.0715  -23.2153  -54.5284 H         1 UNK         0.3000 
    226 H226       -4.6594  -21.8622  -57.0935 H         1 UNK         0.0600 
    227 H227       -2.1778  -21.6234  -56.7551 H         1 UNK         0.0600 
    228 H228       -3.0244  -20.0859  -56.6686 H         1 UNK         0.0600 
    229 H229       -2.4756  -20.8664  -55.1943 H         1 UNK         0.0600 
    230 H230       -6.4262  -22.7211  -55.2340 H         1 UNK         0.3000 
    231 H231       -8.2695  -22.1364  -54.1638 H         1 UNK         0.0600 
    232 H232       -7.8465  -19.3960  -55.4643 H         1 UNK         0.0600 
    233 H233       -8.5393  -20.8052  -56.2663 H         1 UNK         0.0600 
    234 H234       -9.3769  -20.0653  -54.9140 H         1 UNK         0.0600 
    235 H235       -5.9333  -21.9056  -52.5351 H         1 UNK         0.3000 
    236 H236       -5.2890  -21.3071  -50.4705 H         1 UNK         0.0600 
    237 H237       -8.2601  -20.7238  -50.0156 H         1 UNK         0.0600 
    238 H238       -7.5074  -22.3162  -49.9282 H         1 UNK         0.0600 
    239 H239       -7.0660  -21.0724  -48.7734 H         1 UNK         0.0600 
    240 H240       -4.9859  -19.2742  -52.4042 H         1 UNK         0.3000 
    241 H241       -4.2141  -17.2406  -52.6142 H         1 UNK         0.0600 
    242 H242       -7.9803  -16.2276  -52.5693 H         1 UNK         0.3800 
    243 H243       -7.3857  -17.8556  -52.3655 H         1 UNK         0.3800 
    244 H244       -3.6309  -15.7190  -50.7623 H         1 UNK         0.0800 
    245 H245       -4.5508  -16.6636  -49.6341 H         1 UNK         0.0800 
    246 H246       -1.3189  -16.0680  -51.4497 H         1 UNK         0.0800 
    247 H247       -1.7195  -17.4587  -52.4348 H         1 UNK         0.0800 
@<TRIPOS>BOND
     1    1    2 1    
     2    1  127 1    
     3    1  128 1    
     4    1  129 1    
     5    2    3 2    
     6    2    4 am   BACKBONE|DICT|INTERRES
     7    4    5 1    
     8    4  130 1    
     9    5    6 1    
    10    5   65 1    
    11    5  131 1    
    12    6    7 1    
    13    6  132 1    
    14    6  133 1    
    15    7    8 1    
    16    8    9 1    
    17    8  134 1    
    18    8  135 1    
    19    9   10 ar   
    20    9   14 ar   
    21   10   11 ar   
    22   10  136 1    
    23   11   12 ar   
    24   11  126 1    
    25   12   13 ar   
    26   12  137 1    
    27   13   14 ar   
    28   13   15 1    
    29   14  138 1    
    30   15   16 1    
    31   15  139 1    
    32   15  140 1    
    33   16   17 1    
    34   17   18 1    
    35   17  141 1    
    36   17  142 1    
    37   18   19 1    
    38   18   67 1    
    39   18  143 1    
    40   19   20 am   BACKBONE|DICT|INTERRES
    41   19  144 1    
    42   20   21 2    
    43   20   22 1    
    44   22   23 1    
    45   22   24 1    
    46   22  145 1    
    47   23  146 1    
    48   23  147 1    
    49   23  148 1    
    50   24   25 am   BACKBONE|DICT|INTERRES
    51   24  149 1    
    52   25   26 2    
    53   25   27 1    
    54   27   28 1    
    55   27   29 1    
    56   27  150 1    
    57   28  151 1    
    58   28  152 1    
    59   28  153 1    
    60   29   30 am   BACKBONE|DICT|INTERRES
    61   29  154 1    
    62   30   31 2    
    63   30   32 1    
    64   32   33 1    
    65   32   34 1    
    66   32  155 1    
    67   33  156 1    
    68   33  157 1    
    69   33  158 1    
    70   34   35 am   BACKBONE|DICT|INTERRES
    71   34  159 1    
    72   35   36 2    
    73   35   37 1    
    74   37   38 1    
    75   37   39 1    
    76   37  160 1    
    77   38  161 1    
    78   38  162 1    
    79   38  163 1    
    80   39   40 am   BACKBONE|DICT|INTERRES
    81   39  164 1    
    82   40   41 2    
    83   40   42 1    
    84   42   43 1    
    85   42   44 1    
    86   42  165 1    
    87   43  166 1    
    88   43  167 1    
    89   43  168 1    
    90   44   45 am   BACKBONE|DICT|INTERRES
    91   44  169 1    
    92   45   46 2    
    93   45   47 1    
    94   47   48 1    
    95   47   49 1    
    96   47  170 1    
    97   48  171 1    
    98   48  172 1    
    99   48  173 1    
   100   49   50 am   BACKBONE|DICT|INTERRES
   101   49  174 1    
   102   50   51 2    
   103   50   52 1    
   104   52   53 1    
   105   52   54 1    
   106   52  175 1    
   107   53  176 1    
   108   53  177 1    
   109   53  178 1    
   110   54   55 am   BACKBONE|DICT|INTERRES
   111   54  179 1    
   112   55   56 2    
   113   55   57 1    
   114   57   58 1    
   115   57   59 1    
   116   57  180 1    
   117   58  181 1    
   118   58  182 1    
   119   58  183 1    
   120   59   60 am   BACKBONE|DICT|INTERRES
   121   59  184 1    
   122   60   61 2    
   123   60   62 1    
   124   62   63 1    
   125   62   64 1    
   126   62  185 1    
   127   63  186 1    
   128   63  187 1    
   129   63  188 1    
   130   64   65 am   BACKBONE|DICT|INTERRES
   131   64  189 1    
   132   65   66 2    
   133   67   68 2    
   134   67   69 am   BACKBONE|DICT|INTERRES
   135   69   70 1    
   136   69  190 1    
   137   70   71 1    
   138   70   72 1    
   139   70  191 1    
   140   71  192 1    
   141   71  193 1    
   142   71  194 1    
   143   72   73 2    
   144   72   74 am   BACKBONE|DICT|INTERRES
   145   74   75 1    
   146   74  195 1    
   147   75   76 1    
   148   75   77 1    
   149   75  196 1    
   150   76  197 1    
   151   76  198 1    
   152   76  199 1    
   153   77   78 2    
   154   77   79 am   BACKBONE|DICT|INTERRES
   155   79   80 1    
   156   79  200 1    
   157   80   81 1    
   158   80   82 1    
   159   80  201 1    
   160   81  202 1    
   161   81  203 1    
   162   81  204 1    
   163   82   83 2    
   164   82   84 am   BACKBONE|DICT|INTERRES
   165   84   85 1    
   166   84  205 1    
   167   85   86 1    
   168   85   87 1    
   169   85  206 1    
   170   86  207 1    
   171   86  208 1    
   172   86  209 1    
   173   87   88 2    
   174   87   89 am   BACKBONE|DICT|INTERRES
   175   89   90 1    
   176   89  210 1    
   177   90   91 1    
   178   90   92 1    
   179   90  211 1    
   180   91  212 1    
   181   91  213 1    
   182   91  214 1    
   183   92   93 2    
   184   92   94 am   BACKBONE|DICT|INTERRES
   185   94   95 1    
   186   94  215 1    
   187   95   96 1    
   188   95   97 1    
   189   95  216 1    
   190   96  217 1    
   191   96  218 1    
   192   96  219 1    
   193   97   98 2    
   194   97   99 am   BACKBONE|DICT|INTERRES
   195   99  100 1    
   196   99  220 1    
   197  100  101 1    
   198  100  102 1    
   199  100  221 1    
   200  101  222 1    
   201  101  223 1    
   202  101  224 1    
   203  102  103 2    
   204  102  104 am   BACKBONE|DICT|INTERRES
   205  104  105 1    
   206  104  225 1    
   207  105  106 1    
   208  105  107 1    
   209  105  226 1    
   210  106  227 1    
   211  106  228 1    
   212  106  229 1    
   213  107  108 2    
   214  107  109 am   BACKBONE|DICT|INTERRES
   215  109  110 1    
   216  109  230 1    
   217  110  111 1    
   218  110  112 1    
   219  110  231 1    
   220  111  232 1    
   221  111  233 1    
   222  111  234 1    
   223  112  113 2    
   224  112  114 am   BACKBONE|DICT|INTERRES
   225  114  115 1    
   226  114  235 1    
   227  115  116 1    
   228  115  117 1    
   229  115  236 1    
   230  116  237 1    
   231  116  238 1    
   232  116  239 1    
   233  117  118 2    
   234  117  119 am   BACKBONE|DICT|INTERRES
   235  119  120 1    
   236  119  240 1    
   237  120  121 1    
   238  120  124 1    
   239  120  241 1    
   240  121  122 am   BACKBONE|DICT|INTERRES
   241  121  123 2    
   242  122  242 1    
   243  122  243 1    
   244  124  125 1    
   245  124  244 1    
   246  124  245 1    
   247  125  126 1    
   248  126  246 1    
   249  126  247 1    
@<TRIPOS>SUBSTRUCTURE
     1 UNK         1 GROUP             0       ****    0 ROOT    
