@<TRIPOS>MOLECULE
3R540
247   249    1
SMALL
USER_CHARGES


@<TRIPOS>ATOM
      1 CA          1.6989  -12.3679  -53.2814 C.3       0 UNK        -0.1800 
      2 C           1.6679  -13.1776  -51.9928 C.2       0 UNK         0.5000 
      3 O           2.6590  -13.8246  -51.6539 O.2       0 UNK        -0.5000 
      4 N           0.5320  -13.1519  -51.2849 N.am      1 UNK        -0.5000 
      5 CA          0.3191  -13.8441  -50.0101 C.3       1 UNK         0.1400 
      6 C6         -1.1914  -13.9164  -49.6661 C.3       23 UNK        -0.0398 
      7 S7         -1.6232  -15.3300  -48.5934 S.3       23 UNK        -0.2404 
      8 C8         -2.0527  -16.6081  -49.8204 C.3       23 UNK        -0.0205 
      9 C9         -0.8111  -17.1440  -50.5146 C.ar      23 UNK        -0.0193 
     10 C10        -0.4632  -16.7045  -51.7955 C.ar      23 UNK        -0.1150 
     11 C11         0.7137  -17.1532  -52.4076 C.ar      23 UNK        -0.0193 
     12 C12         1.5247  -18.0690  -51.7302 C.ar      23 UNK        -0.1150 
     13 C13         1.1888  -18.5178  -50.4495 C.ar      23 UNK        -0.0193 
     14 C14         0.0188  -18.0477  -49.8478 C.ar      23 UNK        -0.1150 
     15 C15         2.1254  -19.4590  -49.7024 C.3       23 UNK        -0.0205 
     16 S16         1.3521  -21.0627  -49.3181 S.3       23 UNK        -0.2404 
     17 C17         0.9108  -20.8279  -47.5619 C.3       23 UNK        -0.0398 
     18 CA          0.4907  -22.1446  -46.8701 C.3       11 UNK         0.1400 
     19 N           0.5755  -22.0428  -45.4115 N.am      11 UNK        -0.5000 
     20 C           0.4207  -23.0702  -44.5645 C.2       10 UNK         0.5000 
     21 O           0.2445  -24.2344  -44.9230 O.2       10 UNK        -0.5000 
     22 CA          0.3981  -22.7305  -43.0644 C.3       10 UNK         0.1400 
     23 CB          1.8221  -22.5263  -42.5268 C.3       10 UNK        -0.1800 
     24 N          -0.4222  -21.5530  -42.7729 N.am      10 UNK        -0.5000 
     25 C          -1.7430  -21.4825  -42.9954 C.2       9 UNK         0.5000 
     26 O          -2.4126  -22.4230  -43.4208 O.2       9 UNK        -0.5000 
     27 CA         -2.4295  -20.1301  -42.7386 C.3       9 UNK         0.1400 
     28 CB         -2.7342  -19.9542  -41.2438 C.3       9 UNK        -0.1800 
     29 N          -1.6518  -18.9904  -43.2268 N.am      9 UNK        -0.5000 
     30 C          -1.3460  -18.7648  -44.5133 C.2       8 UNK         0.5000 
     31 O          -1.7081  -19.4887  -45.4400 O.2       8 UNK        -0.5000 
     32 CA         -0.4278  -17.5646  -44.8106 C.3       8 UNK         0.1400 
     33 CB         -1.2034  -16.2407  -44.7504 C.3       8 UNK        -0.1800 
     34 N           0.7180  -17.5093  -43.9033 N.am      8 UNK        -0.5000 
     35 C           1.6574  -18.4623  -43.8149 C.2       7 UNK         0.5000 
     36 O           1.6917  -19.4626  -44.5325 O.2       7 UNK        -0.5000 
     37 CA          2.7011  -18.2945  -42.6994 C.3       7 UNK         0.1400 
     38 CB          3.8111  -17.3244  -43.1277 C.3       7 UNK        -0.1800 
     39 N           2.0906  -17.8330  -41.4521 N.am      7 UNK        -0.5000 
     40 C           1.2897  -18.5862  -40.6845 C.2       6 UNK         0.5000 
     41 O           1.0049  -19.7562  -40.9369 O.2       6 UNK        -0.5000 
     42 CA          0.6727  -17.9078  -39.4481 C.3       6 UNK         0.1400 
     43 CB          1.6623  -17.9182  -38.2736 C.3       6 UNK        -0.1800 
     44 N           0.2459  -16.5335  -39.7118 N.am      6 UNK        -0.5000 
     45 C          -0.7416  -16.1942  -40.5524 C.2       5 UNK         0.5000 
     46 O          -1.4202  -17.0088  -41.1745 O.2       5 UNK        -0.5000 
     47 CA         -0.9803  -14.6901  -40.7720 C.3       5 UNK         0.1400 
     48 CB         -1.9669  -14.1421  -39.7305 C.3       5 UNK        -0.1800 
     49 N           0.2498  -13.8955  -40.7426 N.am      5 UNK        -0.5000 
     50 C           1.2715  -14.0430  -41.5951 C.2       4 UNK         0.5000 
     51 O           1.3126  -14.9013  -42.4807 O.2       4 UNK        -0.5000 
     52 CA          2.4534  -13.0777  -41.4198 C.3       4 UNK         0.1400 
     53 CB          3.7532  -13.8422  -41.1237 C.3       4 UNK        -0.1800 
     54 N           2.6208  -12.2900  -42.6349 N.am      4 UNK        -0.5000 
     55 C           1.8525  -11.2468  -42.9770 C.2       3 UNK         0.5000 
     56 O           0.9991  -10.7528  -42.2387 O.2       3 UNK        -0.5000 
     57 CA          2.0664  -10.6675  -44.3879 C.3       3 UNK         0.1400 
     58 CB          3.0938   -9.5256  -44.3534 C.3       3 UNK        -0.1800 
     59 N           2.5061  -11.6827  -45.3482 N.am      3 UNK        -0.5000 
     60 C           1.7143  -12.6412  -45.8466 C.2       2 UNK         0.5000 
     61 O           0.5142  -12.7495  -45.5852 O.2       2 UNK        -0.5000 
     62 CA          2.3961  -13.6681  -46.7694 C.3       2 UNK         0.1400 
     63 CB          2.7637  -14.9340  -45.9790 C.3       2 UNK        -0.1800 
     64 N           1.5633  -14.0450  -47.9104 N.am      2 UNK        -0.5000 
     65 C           1.1544  -13.2119  -48.8760 C.2       1 UNK         0.5000 
     66 O           1.4189  -12.0062  -48.9030 O.2       1 UNK        -0.5000 
     67 C          -0.9085  -22.6073  -47.3246 C.2       11 UNK         0.5000 
     68 O          -1.0095  -23.5274  -48.1352 O.2       11 UNK        -0.5000 
     69 N          -1.9628  -22.0036  -46.7578 N.am      12 UNK        -0.5000 
     70 CA         -3.3551  -22.3582  -47.0234 C.3       12 UNK         0.1400 
     71 CB         -4.2929  -21.3609  -46.3285 C.3       12 UNK        -0.1800 
     72 C          -3.7019  -23.8058  -46.6325 C.2       12 UNK         0.5000 
     73 O          -4.4243  -24.4686  -47.3760 O.2       12 UNK        -0.5000 
     74 N          -3.1632  -24.2825  -45.5043 N.am      13 UNK        -0.5000 
     75 CA         -3.2966  -25.6670  -45.0563 C.3       13 UNK         0.1400 
     76 CB         -2.8180  -25.7837  -43.6009 C.3       13 UNK        -0.1800 
     77 C          -2.5416  -26.6555  -45.9647 C.2       13 UNK         0.5000 
     78 O          -3.0965  -27.6954  -46.3216 O.2       13 UNK        -0.5000 
     79 N          -1.2953  -26.3162  -46.3205 N.am      14 UNK        -0.5000 
     80 CA         -0.4045  -27.1607  -47.1155 C.3       14 UNK         0.1400 
     81 CB          1.0354  -26.6392  -46.9888 C.3       14 UNK        -0.1800 
     82 C          -0.8060  -27.2625  -48.5976 C.2       14 UNK         0.5000 
     83 O          -0.7680  -28.3583  -49.1586 O.2       14 UNK        -0.5000 
     84 N          -1.1575  -26.1242  -49.2076 N.am      15 UNK        -0.5000 
     85 CA         -1.3686  -25.9780  -50.6493 C.3       15 UNK         0.1400 
     86 CB         -0.4486  -24.8576  -51.1675 C.3       15 UNK        -0.1800 
     87 C          -2.8450  -25.7402  -51.0200 C.2       15 UNK         0.5000 
     88 O          -3.1146  -25.2433  -52.1146 O.2       15 UNK        -0.5000 
     89 N          -3.7727  -26.0988  -50.1184 N.am      16 UNK        -0.5000 
     90 CA         -5.2331  -26.0833  -50.2882 C.3       16 UNK         0.1400 
     91 CB         -5.6641  -27.1888  -51.2739 C.3       16 UNK        -0.1800 
     92 C          -5.7661  -24.6921  -50.6872 C.2       16 UNK         0.5000 
     93 O          -6.2173  -24.4942  -51.8161 O.2       16 UNK        -0.5000 
     94 N          -5.6319  -23.7421  -49.7527 N.am      17 UNK        -0.5000 
     95 CA         -5.9118  -22.3060  -49.8866 C.3       17 UNK         0.1400 
     96 CB         -7.4001  -22.0502  -50.2045 C.3       17 UNK        -0.1800 
     97 C          -4.9617  -21.6004  -50.8774 C.2       17 UNK         0.5000 
     98 O          -5.3326  -20.5747  -51.4493 O.2       17 UNK        -0.5000 
     99 N          -3.7637  -22.1773  -51.0768 N.am      18 UNK        -0.5000 
    100 CA        -2.7693  -21.8248  -52.0987 C.3       18 UNK         0.1400 
    101 CB        -2.0746  -20.4919  -51.7539 C.3       18 UNK        -0.1800 
    102 C         -3.3909  -21.8557  -53.5093 C.2       18 UNK         0.5000 
    103 O         -3.2922  -20.8808  -54.2569 O.2       18 UNK        -0.5000 
    104 N         -4.1100  -22.9513  -53.7943 N.am      19 UNK        -0.5000 
    105 CA        -5.0331  -23.1900  -54.9098 C.3       19 UNK         0.1400 
    106 CB        -4.3106  -23.1351  -56.2699 C.3       19 UNK        -0.1800 
    107 C         -6.2733  -22.2712  -54.8841 C.2       19 UNK         0.5000 
    108 O         -7.4001  -22.7675  -54.8643 O.2       19 UNK        -0.5000 
    109 N         -6.0376  -20.9566  -54.8742 N.am      20 UNK        -0.5000 
    110 CA        -7.0150  -19.8767  -54.7960 C.3       20 UNK         0.1400 
    111 CB        -7.8565  -19.8022  -56.0885 C.3       20 UNK        -0.1800 
    112 C         -6.2524  -18.5727  -54.5065 C.2       20 UNK         0.5000 
    113 O         -6.2695  -17.6512  -55.3259 O.2       20 UNK        -0.5000 
    114 N         -5.5290  -18.5479  -53.3755 N.am      21 UNK        -0.5000 
    115 CA        -4.6550  -17.4628  -52.9048 C.3       21 UNK         0.1400 
    116 CB        -5.4997  -16.2612  -52.4338 C.3       21 UNK        -0.1800 
    117 C         -3.5713  -17.0728  -53.9356 C.2       21 UNK         0.5000 
    118 O         -3.2897  -15.8874  -54.1128 O.2       21 UNK        -0.5000 
    119 N         -3.0425  -18.0922  -54.6266 N.am      22 UNK        -0.5000 
    120 CA        -2.1608  -18.0508  -55.8035 C.3       22 UNK         0.1400 
    121 C         -2.6644  -17.2257  -57.0298 C.2       22 UNK         0.5000 
    122 N         -3.9471  -16.8934  -57.1272 N.am      22 UNK        -0.7600 
    123 O         -1.8954  -16.9245  -57.9391 O.2       22 UNK        -0.5000 
    124 C124       -0.6568  -17.8732  -55.4553 C.3       23 UNK        -0.0398 
    125 S125       -0.1449  -16.2019  -54.9336 S.3       23 UNK        -0.2404 
    126 C126        1.1849  -16.6059  -53.7545 C.3       23 UNK        -0.0205 
    127 H127        2.5040  -11.6340  -53.2448 H         1 UNK         0.0600 
    128 H128        0.7617  -11.8369  -53.4500 H         1 UNK         0.0600 
    129 H129        1.8734  -13.0262  -54.1327 H         1 UNK         0.0600 
    130 H130       -0.2300  -12.5705  -51.6018 H         1 UNK         0.3000 
    131 H131        0.6957  -14.8582  -50.1490 H         1 UNK         0.0600 
    132 H132       -1.5300  -12.9947  -49.1892 H         1 UNK         0.0800 
    133 H133       -1.7830  -14.0037  -50.5786 H         1 UNK         0.0800 
    134 H134       -2.5642  -17.4278  -49.3134 H         1 UNK         0.0800 
    135 H135       -2.7630  -16.2065  -50.5442 H         1 UNK         0.0800 
    136 H136       -1.0880  -15.9784  -52.2957 H         1 UNK         0.1150 
    137 H137        2.4429  -18.4074  -52.1894 H         1 UNK         0.1150 
    138 H138       -0.2413  -18.3646  -48.8495 H         1 UNK         0.1150 
    139 H139        3.0195  -19.6528  -50.2968 H         1 UNK         0.0800 
    140 H140        2.4734  -18.9708  -48.7914 H         1 UNK         0.0800 
    141 H141        0.1341  -20.0692  -47.4655 H         1 UNK         0.0800 
    142 H142        1.7907  -20.4242  -47.0593 H         1 UNK         0.0800 
    143 H143        1.2003  -22.9210  -47.1645 H         1 UNK         0.0600 
    144 H144        0.7491  -21.1173  -45.0298 H         1 UNK         0.3000 
    145 H145       -0.0423  -23.5808  -42.5396 H         1 UNK         0.0600 
    146 H146        1.8172  -22.3787  -41.4468 H         1 UNK         0.0600 
    147 H147        2.4458  -23.3971  -42.7326 H         1 UNK         0.0600 
    148 H148        2.3054  -21.6609  -42.9804 H         1 UNK         0.0600 
    149 H149        0.0541  -20.7556  -42.3629 H         1 UNK         0.3000 
    150 H150       -3.3795  -20.1342  -43.2761 H         1 UNK         0.0600 
    151 H151       -3.3176  -20.7929  -40.8618 H         1 UNK         0.0600 
    152 H152       -3.3131  -19.0482  -41.0642 H         1 UNK         0.0600 
    153 H153       -1.8211  -19.8911  -40.6514 H         1 UNK         0.0600 
    154 H154       -1.3538  -18.3172  -42.5252 H         1 UNK         0.3000 
    155 H155       -0.0425  -17.6837  -45.8256 H         1 UNK         0.0600 
    156 H156       -2.0380  -16.2472  -45.4525 H         1 UNK         0.0600 
    157 H157       -0.5661  -15.3959  -45.0127 H         1 UNK         0.0600 
    158 H158       -1.6111  -16.0551  -43.7571 H         1 UNK         0.0600 
    159 H159        0.7859  -16.6998  -43.2947 H         1 UNK         0.3000 
    160 H160        3.1569  -19.2699  -42.5169 H         1 UNK         0.0600 
    161 H161        3.4173  -16.3312  -43.3394 H         1 UNK         0.0600 
    162 H162        4.3083  -17.6773  -44.0321 H         1 UNK         0.0600 
    163 H163        4.5723  -17.2270  -42.3536 H         1 UNK         0.0600 
    164 H164        2.2241  -16.8619  -41.2121 H         1 UNK         0.3000 
    165 H165       -0.2077  -18.4848  -39.1573 H         1 UNK         0.0600 
    166 H166        1.2061  -17.5127  -37.3703 H         1 UNK         0.0600 
    167 H167        1.9851  -18.9348  -38.0450 H         1 UNK         0.0600 
    168 H168        2.5554  -17.3313  -38.4919 H         1 UNK         0.0600 
    169 H169        0.7521  -15.7974  -39.2423 H         1 UNK         0.3000 
    170 H170       -1.4272  -14.5696  -41.7609 H         1 UNK         0.0600 
    171 H171       -2.9018  -14.7042  -39.7453 H         1 UNK         0.0600 
    172 H172       -1.5624  -14.2041  -38.7195 H         1 UNK         0.0600 
    173 H173       -2.2136  -13.0994  -39.9311 H         1 UNK         0.0600 
    174 H174        0.2904  -13.1572  -40.0546 H         1 UNK         0.3000 
    175 H175        2.2556  -12.4072  -40.5806 H         1 UNK         0.0600 
    176 H176        4.0436  -14.4874  -41.9528 H         1 UNK         0.0600 
    177 H177        4.5774  -13.1541  -40.9347 H         1 UNK         0.0600 
    178 H178        3.6456  -14.4705  -40.2387 H         1 UNK         0.0600 
    179 H179        3.2671  -12.6516  -43.3194 H         1 UNK         0.3000 
    180 H180        1.1127  -10.2580  -44.7280 H         1 UNK         0.0600 
    181 H181        4.0755   -9.8748  -44.0309 H         1 UNK         0.0600 
    182 H182        2.7815   -8.7411  -43.6627 H         1 UNK         0.0600 
    183 H183        3.2059   -9.0660  -45.3355 H         1 UNK         0.0600 
    184 H184        3.4776  -11.6521  -45.6226 H         1 UNK         0.3000 
    185 H185        3.3147  -13.2300  -47.1655 H         1 UNK         0.0600 
    186 H186        3.4248  -14.6932  -45.1459 H         1 UNK         0.0600 
    187 H187        1.8800  -15.4192  -45.5636 H         1 UNK         0.0600 
    188 H188        3.2827  -15.6594  -46.6056 H         1 UNK         0.0600 
    189 H189        1.2584  -15.0067  -47.9409 H         1 UNK         0.3000 
    190 H190       -1.8066  -21.2230  -46.1241 H         1 UNK         0.3000 
    191 H191       -3.5012  -22.2674  -48.1000 H         1 UNK         0.0600 
    192 H192       -4.1260  -20.3460  -46.6898 H         1 UNK         0.0600 
    193 H193       -5.3389  -21.6064  -46.5147 H         1 UNK         0.0600 
    194 H194       -4.1474  -21.3596  -45.2488 H         1 UNK         0.0600 
    195 H195       -2.6371  -23.6525  -44.9052 H         1 UNK         0.3000 
    196 H196       -4.3559  -25.9312  -45.0841 H         1 UNK         0.0600 
    197 H197       -2.9197  -26.8066  -43.2364 H         1 UNK         0.0600 
    198 H198       -3.4043  -25.1430  -42.9421 H         1 UNK         0.0600 
    199 H199       -1.7707  -25.4989  -43.4956 H         1 UNK         0.0600 
    200 H200       -0.8973  -25.4548  -45.9569 H         1 UNK         0.3000 
    201 H201       -0.4322  -28.1687  -46.6962 H         1 UNK         0.0600 
    202 H202        1.3702  -26.6563  -45.9515 H         1 UNK         0.0600 
    203 H203        1.1248  -25.6142  -47.3514 H         1 UNK         0.0600 
    204 H204        1.7282  -27.2544  -47.5643 H         1 UNK         0.0600 
    205 H205       -1.1580  -25.2558  -48.6735 H         1 UNK         0.3000 
    206 H206       -1.0789  -26.8943  -51.1671 H         1 UNK         0.0600 
    207 H207        0.5963  -25.0795  -50.9503 H         1 UNK         0.0600 
    208 H208       -0.5326  -24.7392  -52.2483 H         1 UNK         0.0600 
    209 H209       -0.6822  -23.8978  -50.7081 H         1 UNK         0.0600 
    210 H210       -3.4405  -26.4463  -49.2292 H         1 UNK         0.3000 
    211 H211       -5.6659  -26.3220  -49.3153 H         1 UNK         0.0600 
    212 H212       -5.2588  -27.0249  -52.2731 H         1 UNK         0.0600 
    213 H213       -6.7502  -27.2280  -51.3642 H         1 UNK         0.0600 
    214 H214       -5.3305  -28.1696  -50.9350 H         1 UNK         0.0600 
    215 H215       -5.2343  -24.0304  -48.8579 H         1 UNK         0.3000 
    216 H216       -5.7145  -21.8625  -48.9117 H         1 UNK         0.0600 
    217 H217       -7.6389  -20.9892  -50.1234 H         1 UNK         0.0600 
    218 H218       -8.0500  -22.5817  -49.5094 H         1 UNK         0.0600 
    219 H219       -7.6604  -22.3630  -51.2162 H         1 UNK         0.0600 
    220 H220       -3.5809  -23.0346  -50.5768 H         1 UNK         0.3000 
    221 H221       -2.0082  -22.6030  -52.0900 H         1 UNK         0.0600 
    222 H222       -2.7758  -19.6605  -51.7304 H         1 UNK         0.0600 
    223 H223       -1.5896  -20.5445  -50.7790 H         1 UNK         0.0600 
    224 H224       -1.3025  -20.2478  -52.4847 H         1 UNK         0.0600 
    225 H225       -4.1102  -23.6890  -53.0960 H         1 UNK         0.3000 
    226 H226       -5.3952  -24.2103  -54.7730 H         1 UNK         0.0600 
    227 H227       -3.4741  -23.8333  -56.2980 H         1 UNK         0.0600 
    228 H228       -4.9893  -23.4079  -57.0788 H         1 UNK         0.0600 
    229 H229       -3.9238  -22.1408  -56.4938 H         1 UNK         0.0600 
    230 H230       -5.0622  -20.6716  -54.8383 H         1 UNK         0.3000 
    231 H231       -7.6794  -20.0646  -53.9504 H         1 UNK         0.0600 
    232 H232       -7.2264  -19.6733  -56.9693 H         1 UNK         0.0600 
    233 H233       -8.5514  -18.9623  -56.0538 H         1 UNK         0.0600 
    234 H234       -8.4530  -20.7024  -56.2334 H         1 UNK         0.0600 
    235 H235       -5.5502  -19.3656  -52.7655 H         1 UNK         0.3000 
    236 H236       -4.1263  -17.8473  -52.0331 H         1 UNK         0.0600 
    237 H237       -6.2343  -16.5655  -51.6884 H         1 UNK         0.0600 
    238 H238       -4.8723  -15.4959  -51.9756 H         1 UNK         0.0600 
    239 H239       -6.0345  -15.7945  -53.2615 H         1 UNK         0.0600 
    240 H240       -3.3281  -19.0340  -54.3726 H         1 UNK         0.3000 
    241 H241       -2.2318  -19.0718  -56.1801 H         1 UNK         0.0600 
    242 H242       -4.2609  -16.3753  -57.9321 H         1 UNK         0.3800 
    243 H243       -4.6122  -17.1373  -56.4013 H         1 UNK         0.3800 
    244 H244       -0.3935  -18.5846  -54.6715 H         1 UNK         0.0800 
    245 H245       -0.0445  -18.1512  -56.3144 H         1 UNK         0.0800 
    246 H246        1.8675  -17.3098  -54.2333 H         1 UNK         0.0800 
    247 H247        1.7648  -15.7024  -53.5688 H         1 UNK         0.0800 
@<TRIPOS>BOND
     1    1    2 1    
     2    1  127 1    
     3    1  128 1    
     4    1  129 1    
     5    2    3 2    
     6    2    4 am   BACKBONE|DICT|INTERRES
     7    4    5 1    
     8    4  130 1    
     9    5    6 1    
    10    5   65 1    
    11    5  131 1    
    12    6    7 1    
    13    6  132 1    
    14    6  133 1    
    15    7    8 1    
    16    8    9 1    
    17    8  134 1    
    18    8  135 1    
    19    9   10 ar   
    20    9   14 ar   
    21   10   11 ar   
    22   10  136 1    
    23   11   12 ar   
    24   11  126 1    
    25   12   13 ar   
    26   12  137 1    
    27   13   14 ar   
    28   13   15 1    
    29   14  138 1    
    30   15   16 1    
    31   15  139 1    
    32   15  140 1    
    33   16   17 1    
    34   17   18 1    
    35   17  141 1    
    36   17  142 1    
    37   18   19 1    
    38   18   67 1    
    39   18  143 1    
    40   19   20 am   BACKBONE|DICT|INTERRES
    41   19  144 1    
    42   20   21 2    
    43   20   22 1    
    44   22   23 1    
    45   22   24 1    
    46   22  145 1    
    47   23  146 1    
    48   23  147 1    
    49   23  148 1    
    50   24   25 am   BACKBONE|DICT|INTERRES
    51   24  149 1    
    52   25   26 2    
    53   25   27 1    
    54   27   28 1    
    55   27   29 1    
    56   27  150 1    
    57   28  151 1    
    58   28  152 1    
    59   28  153 1    
    60   29   30 am   BACKBONE|DICT|INTERRES
    61   29  154 1    
    62   30   31 2    
    63   30   32 1    
    64   32   33 1    
    65   32   34 1    
    66   32  155 1    
    67   33  156 1    
    68   33  157 1    
    69   33  158 1    
    70   34   35 am   BACKBONE|DICT|INTERRES
    71   34  159 1    
    72   35   36 2    
    73   35   37 1    
    74   37   38 1    
    75   37   39 1    
    76   37  160 1    
    77   38  161 1    
    78   38  162 1    
    79   38  163 1    
    80   39   40 am   BACKBONE|DICT|INTERRES
    81   39  164 1    
    82   40   41 2    
    83   40   42 1    
    84   42   43 1    
    85   42   44 1    
    86   42  165 1    
    87   43  166 1    
    88   43  167 1    
    89   43  168 1    
    90   44   45 am   BACKBONE|DICT|INTERRES
    91   44  169 1    
    92   45   46 2    
    93   45   47 1    
    94   47   48 1    
    95   47   49 1    
    96   47  170 1    
    97   48  171 1    
    98   48  172 1    
    99   48  173 1    
   100   49   50 am   BACKBONE|DICT|INTERRES
   101   49  174 1    
   102   50   51 2    
   103   50   52 1    
   104   52   53 1    
   105   52   54 1    
   106   52  175 1    
   107   53  176 1    
   108   53  177 1    
   109   53  178 1    
   110   54   55 am   BACKBONE|DICT|INTERRES
   111   54  179 1    
   112   55   56 2    
   113   55   57 1    
   114   57   58 1    
   115   57   59 1    
   116   57  180 1    
   117   58  181 1    
   118   58  182 1    
   119   58  183 1    
   120   59   60 am   BACKBONE|DICT|INTERRES
   121   59  184 1    
   122   60   61 2    
   123   60   62 1    
   124   62   63 1    
   125   62   64 1    
   126   62  185 1    
   127   63  186 1    
   128   63  187 1    
   129   63  188 1    
   130   64   65 am   BACKBONE|DICT|INTERRES
   131   64  189 1    
   132   65   66 2    
   133   67   68 2    
   134   67   69 am   BACKBONE|DICT|INTERRES
   135   69   70 1    
   136   69  190 1    
   137   70   71 1    
   138   70   72 1    
   139   70  191 1    
   140   71  192 1    
   141   71  193 1    
   142   71  194 1    
   143   72   73 2    
   144   72   74 am   BACKBONE|DICT|INTERRES
   145   74   75 1    
   146   74  195 1    
   147   75   76 1    
   148   75   77 1    
   149   75  196 1    
   150   76  197 1    
   151   76  198 1    
   152   76  199 1    
   153   77   78 2    
   154   77   79 am   BACKBONE|DICT|INTERRES
   155   79   80 1    
   156   79  200 1    
   157   80   81 1    
   158   80   82 1    
   159   80  201 1    
   160   81  202 1    
   161   81  203 1    
   162   81  204 1    
   163   82   83 2    
   164   82   84 am   BACKBONE|DICT|INTERRES
   165   84   85 1    
   166   84  205 1    
   167   85   86 1    
   168   85   87 1    
   169   85  206 1    
   170   86  207 1    
   171   86  208 1    
   172   86  209 1    
   173   87   88 2    
   174   87   89 am   BACKBONE|DICT|INTERRES
   175   89   90 1    
   176   89  210 1    
   177   90   91 1    
   178   90   92 1    
   179   90  211 1    
   180   91  212 1    
   181   91  213 1    
   182   91  214 1    
   183   92   93 2    
   184   92   94 am   BACKBONE|DICT|INTERRES
   185   94   95 1    
   186   94  215 1    
   187   95   96 1    
   188   95   97 1    
   189   95  216 1    
   190   96  217 1    
   191   96  218 1    
   192   96  219 1    
   193   97   98 2    
   194   97   99 am   BACKBONE|DICT|INTERRES
   195   99  100 1    
   196   99  220 1    
   197  100  101 1    
   198  100  102 1    
   199  100  221 1    
   200  101  222 1    
   201  101  223 1    
   202  101  224 1    
   203  102  103 2    
   204  102  104 am   BACKBONE|DICT|INTERRES
   205  104  105 1    
   206  104  225 1    
   207  105  106 1    
   208  105  107 1    
   209  105  226 1    
   210  106  227 1    
   211  106  228 1    
   212  106  229 1    
   213  107  108 2    
   214  107  109 am   BACKBONE|DICT|INTERRES
   215  109  110 1    
   216  109  230 1    
   217  110  111 1    
   218  110  112 1    
   219  110  231 1    
   220  111  232 1    
   221  111  233 1    
   222  111  234 1    
   223  112  113 2    
   224  112  114 am   BACKBONE|DICT|INTERRES
   225  114  115 1    
   226  114  235 1    
   227  115  116 1    
   228  115  117 1    
   229  115  236 1    
   230  116  237 1    
   231  116  238 1    
   232  116  239 1    
   233  117  118 2    
   234  117  119 am   BACKBONE|DICT|INTERRES
   235  119  120 1    
   236  119  240 1    
   237  120  121 1    
   238  120  124 1    
   239  120  241 1    
   240  121  122 am   BACKBONE|DICT|INTERRES
   241  121  123 2    
   242  122  242 1    
   243  122  243 1    
   244  124  125 1    
   245  124  244 1    
   246  124  245 1    
   247  125  126 1    
   248  126  246 1    
   249  126  247 1    
@<TRIPOS>SUBSTRUCTURE
     1 UNK         1 GROUP             0       ****    0 ROOT    
