@<TRIPOS>MOLECULE
3R540
247   249    1
SMALL
USER_CHARGES


@<TRIPOS>ATOM
      1 CA         -4.0047  -10.2200  -46.1239 C.3       0 UNK        -0.1800 
      2 C          -2.7541  -11.0866  -46.1457 C.2       0 UNK         0.5000 
      3 O          -2.8461  -12.2936  -45.9276 O.2       0 UNK        -0.5000 
      4 N          -1.5909  -10.4712  -46.4061 N.am      1 UNK        -0.5000 
      5 CA         -0.2643  -11.1047  -46.5094 C.3       1 UNK         0.1400 
      6 C6         -0.1497  -12.1183  -47.6841 C.3       23 UNK        -0.0398 
      7 S7         -0.3030  -11.3070  -49.3133 S.3       23 UNK        -0.2404 
      8 C8         -2.0160  -11.6890  -49.8015 C.3       23 UNK        -0.0205 
      9 C9         -2.2178  -13.1601  -50.1340 C.ar      23 UNK        -0.0193 
     10 C10        -1.6817  -13.6938  -51.3087 C.ar      23 UNK        -0.1150 
     11 C11        -1.8758  -15.0370  -51.6451 C.ar      23 UNK        -0.0193 
     12 C12        -2.6279  -15.8464  -50.7814 C.ar      23 UNK        -0.1150 
     13 C13        -3.1826  -15.3230  -49.6096 C.ar      23 UNK        -0.0193 
     14 C14        -2.9669  -13.9805  -49.2875 C.ar      23 UNK        -0.1150 
     15 C15        -4.0349  -16.1971  -48.7009 C.3       23 UNK        -0.0205 
     16 S16        -3.0154  -17.2891  -47.6650 S.3       23 UNK        -0.2404 
     17 C17        -2.7856  -18.7433  -48.7477 C.3       23 UNK        -0.0398 
     18 CA         -3.0103  -20.1236  -48.0784 C.3       11 UNK         0.1400 
     19 N          -1.8917  -20.5485  -47.2335 N.am      11 UNK        -0.5000 
     20 C          -1.6955  -21.8191  -46.8524 C.2       10 UNK         0.5000 
     21 O          -2.4553  -22.7419  -47.1447 O.2       10 UNK        -0.5000 
     22 CA         -0.4732  -22.1154  -45.9696 C.3       10 UNK         0.1400 
     23 CB          0.8174  -22.1117  -46.8023 C.3       10 UNK        -0.1800 
     24 N          -0.3535  -21.1945  -44.8405 N.am      10 UNK        -0.5000 
     25 C          -1.2595  -21.0851  -43.8573 C.2       9 UNK         0.5000 
     26 O          -2.2857  -21.7625  -43.7923 O.2       9 UNK        -0.5000 
     27 CA         -0.9933  -20.0156  -42.7836 C.3       9 UNK         0.1400 
     28 CB          0.0420  -20.5118  -41.7633 C.3       9 UNK        -0.1800 
     29 N          -0.5516  -18.7455  -43.3582 N.am      9 UNK        -0.5000 
     30 C          -1.3018  -17.9807  -44.1647 C.2       8 UNK         0.5000 
     31 O          -2.4691  -18.2396  -44.4549 O.2       8 UNK        -0.5000 
     32 CA         -0.6166  -16.7503  -44.7873 C.3       8 UNK         0.1400 
     33 CB         -0.5350  -15.5941  -43.7807 C.3       8 UNK        -0.1800 
     34 N           0.7194  -17.0555  -45.2981 N.am      8 UNK        -0.5000 
     35 C           0.9888  -17.9439  -46.2657 C.2       7 UNK         0.5000 
     36 O           0.1332  -18.5840  -46.8743 O.2       7 UNK        -0.5000 
     37 CA          2.4733  -18.2031  -46.5659 C.3       7 UNK         0.1400 
     38 CB          3.0374  -17.1357  -47.5161 C.3       7 UNK        -0.1800 
     39 N           3.2687  -18.2543  -45.3392 N.am      7 UNK        -0.5000 
     40 C           3.2159  -19.2551  -44.4489 C.2       6 UNK         0.5000 
     41 O           2.5167  -20.2586  -44.5895 O.2       6 UNK        -0.5000 
     42 CA          4.0574  -19.0889  -43.1698 C.3       6 UNK         0.1400 
     43 CB          5.5195  -19.4835  -43.4260 C.3       6 UNK        -0.1800 
     44 N           4.0072  -17.7277  -42.6333 N.am      6 UNK        -0.5000 
     45 C           2.9082  -17.1660  -42.1113 C.2       5 UNK         0.5000 
     46 O           1.8315  -17.7507  -41.9994 O.2       5 UNK        -0.5000 
     47 CA          3.0141  -15.6912  -41.6791 C.3       5 UNK         0.1400 
     48 CB          3.5305  -15.5878  -40.2367 C.3       5 UNK        -0.1800 
     49 N           3.8411  -14.8479  -42.5483 N.am      5 UNK        -0.5000 
     50 C           3.6893  -14.7024  -43.8717 C.2       4 UNK         0.5000 
     51 O           2.9099  -15.3733  -44.5478 O.2       4 UNK        -0.5000 
     52 CA          4.5082  -13.5768  -44.5218 C.3       4 UNK         0.1400 
     53 CB          4.4665  -13.6223  -46.0600 C.3       4 UNK        -0.1800 
     54 N           3.9423  -12.3112  -44.0702 N.am      4 UNK        -0.5000 
     55 C           4.4284  -11.5541  -43.0778 C.2       3 UNK         0.5000 
     56 O           5.4952  -11.7818  -42.5063 O.2       3 UNK        -0.5000 
     57 CA          3.5608  -10.3645  -42.6169 C.3       3 UNK         0.1400 
     58 CB          3.9814   -9.0780  -43.3433 C.3       3 UNK        -0.1800 
     59 N           2.1277  -10.5841  -42.8253 N.am      3 UNK        -0.5000 
     60 C           1.3926  -11.5143  -42.1984 C.2       2 UNK         0.5000 
     61 O           1.8230  -12.2254  -41.2901 O.2       2 UNK        -0.5000 
     62 CA         -0.0607  -11.7023  -42.6790 C.3       2 UNK         0.1400 
     63 CB         -1.0395  -11.0156  -41.7148 C.3       2 UNK        -0.1800 
     64 N          -0.3288  -11.2272  -44.0417 N.am      2 UNK        -0.5000 
     65 C           0.2408  -11.6883  -45.1665 C.2       1 UNK         0.5000 
     66 O           1.1624  -12.5036  -45.1627 O.2       1 UNK        -0.5000 
     67 C          -4.3724  -20.2614  -47.3624 C.2       11 UNK         0.5000 
     68 O          -5.3434  -20.6699  -47.9994 O.2       11 UNK        -0.5000 
     69 N          -4.4123  -19.9962  -46.0459 N.am      12 UNK        -0.5000 
     70 CA         -5.5865  -20.2012  -45.1916 C.3       12 UNK         0.1400 
     71 CB         -5.3380  -19.5782  -43.8104 C.3       12 UNK        -0.1800 
     72 C          -5.9770  -21.6854  -45.0529 C.2       12 UNK         0.5000 
     73 O          -7.1659  -21.9981  -44.9872 O.2       12 UNK        -0.5000 
     74 N          -4.9742  -22.5737  -45.0570 N.am      13 UNK        -0.5000 
     75 CA         -5.1341  -24.0294  -45.0857 C.3       13 UNK         0.1400 
     76 CB         -3.8682  -24.6716  -44.4939 C.3       13 UNK        -0.1800 
     77 C          -5.4220  -24.5851  -46.4986 C.2       13 UNK         0.5000 
     78 O          -5.5642  -25.7998  -46.6462 O.2       13 UNK        -0.5000 
     79 N          -5.4742  -23.7052  -47.5114 N.am      14 UNK        -0.5000 
     80 CA         -5.6593  -23.9819  -48.9402 C.3       14 UNK         0.1400 
     81 CB         -7.0412  -24.6108  -49.2122 C.3       14 UNK        -0.1800 
     82 C          -4.5035  -24.7860  -49.5707 C.2       14 UNK         0.5000 
     83 O          -4.7020  -25.4193  -50.6074 O.2       14 UNK        -0.5000 
     84 N          -3.3204  -24.7404  -48.9387 N.am      15 UNK        -0.5000 
     85 CA         -2.0211  -25.2694  -49.3678 C.3       15 UNK         0.1400 
     86 CB         -1.4125  -24.3165  -50.4121 C.3       15 UNK        -0.1800 
     87 C          -2.0184  -26.7365  -49.8513 C.2       15 UNK         0.5000 
     88 O          -1.1998  -27.0927  -50.6982 O.2       15 UNK        -0.5000 
     89 N          -2.9552  -27.5546  -49.3482 N.am      16 UNK        -0.5000 
     90 CA         -3.2478  -28.9225  -49.8004 C.3       16 UNK         0.1400 
     91 CB         -2.1132  -29.8856  -49.3924 C.3       16 UNK        -0.1800 
     92 C          -3.5962  -29.0010  -51.3081 C.2       16 UNK         0.5000 
     93 O          -3.2417  -29.9739  -51.9758 O.2       16 UNK        -0.5000 
     94 N          -4.2767  -27.9579  -51.8076 N.am      17 UNK        -0.5000 
     95 CA         -4.7009  -27.7211  -53.1907 C.3       17 UNK         0.1400 
     96 CB         -5.5978  -28.8619  -53.7172 C.3       17 UNK        -0.1800 
     97 C          -3.5532  -27.3593  -54.1587 C.2       17 UNK         0.5000 
     98 O          -3.7550  -27.4078  -55.3741 O.2       17 UNK        -0.5000 
     99 N          -2.3841  -26.9688  -53.6299 N.am      18 UNK        -0.5000 
    100 CA        -1.2831  -26.3969  -54.4086 C.3       18 UNK         0.1400 
    101 CB         0.0148  -26.4833  -53.5905 C.3       18 UNK        -0.1800 
    102 C         -1.5693  -24.9351  -54.8073 C.2       18 UNK         0.5000 
    103 O         -2.4588  -24.2945  -54.2410 O.2       18 UNK        -0.5000 
    104 N         -0.7698  -24.4125  -55.7481 N.am      19 UNK        -0.5000 
    105 CA        -0.8683  -23.0516  -56.2937 C.3       19 UNK         0.1400 
    106 CB         0.1865  -22.8773  -57.3966 C.3       19 UNK        -0.1800 
    107 C         -0.7410  -21.9249  -55.2469 C.2       19 UNK         0.5000 
    108 O         -1.2960  -20.8448  -55.4509 O.2       19 UNK        -0.5000 
    109 N         -0.0660  -22.2127  -54.1242 N.am      20 UNK        -0.5000 
    110 CA         0.0750  -21.3370  -52.9567 C.3       20 UNK         0.1400 
    111 CB         1.1266  -21.9361  -52.0093 C.3       20 UNK        -0.1800 
    112 C         -1.2452  -21.0369  -52.2108 C.2       20 UNK         0.5000 
    113 O         -1.2510  -20.1740  -51.3341 O.2       20 UNK        -0.5000 
    114 N         -2.3435  -21.7183  -52.5727 N.am      21 UNK        -0.5000 
    115 CA        -3.7055  -21.3645  -52.1693 C.3       21 UNK         0.1400 
    116 CB        -4.6620  -22.4813  -52.6103 C.3       21 UNK        -0.1800 
    117 C         -4.1661  -20.0141  -52.7580 C.2       21 UNK         0.5000 
    118 O         -4.9807  -19.3331  -52.1354 O.2       21 UNK        -0.5000 
    119 N         -3.6324  -19.6597  -53.9375 N.am      22 UNK        -0.5000 
    120 CA        -3.8659  -18.4042  -54.6750 C.3       22 UNK         0.1400 
    121 C         -5.3093  -18.2302  -55.2410 C.2       22 UNK         0.5000 
    122 N         -6.1192  -19.2787  -55.3243 N.am      22 UNK        -0.7600 
    123 O         -5.6958  -17.1366  -55.6451 O.2       22 UNK        -0.5000 
    124 C124       -3.3696  -17.1449  -53.9098 C.3       23 UNK        -0.0398 
    125 S125       -1.6148  -17.2705  -53.4154 S.3       23 UNK        -0.2404 
    126 C126       -1.2423  -15.5463  -52.9433 C.3       23 UNK        -0.0205 
    127 H127       -4.4826  -10.2754  -45.1458 H         1 UNK         0.0600 
    128 H128       -4.7154  -10.5706  -46.8723 H         1 UNK         0.0600 
    129 H129       -3.7784   -9.1743  -46.3338 H         1 UNK         0.0600 
    130 H130       -1.5979   -9.4749  -46.5761 H         1 UNK         0.3000 
    131 H131        0.4292  -10.2898  -46.7225 H         1 UNK         0.0600 
    132 H132        0.8273  -12.6044  -47.6820 H         1 UNK         0.0800 
    133 H133       -0.8777  -12.9236  -47.5857 H         1 UNK         0.0800 
    134 H134       -2.7026  -11.3689  -49.0184 H         1 UNK         0.0800 
    135 H135       -2.2666  -11.0927  -50.6799 H         1 UNK         0.0800 
    136 H136       -1.1049  -13.0557  -51.9640 H         1 UNK         0.1150 
    137 H137       -2.7906  -16.8886  -51.0087 H         1 UNK         0.1150 
    138 H138       -3.3900  -13.5716  -48.3803 H         1 UNK         0.1150 
    139 H139       -4.6391  -15.5710  -48.0426 H         1 UNK         0.0800 
    140 H140       -4.7444  -16.7783  -49.2916 H         1 UNK         0.0800 
    141 H141       -1.7780  -18.6932  -49.1624 H         1 UNK         0.0800 
    142 H142       -3.4544  -18.6634  -49.6055 H         1 UNK         0.0800 
    143 H143       -3.0366  -20.8427  -48.8996 H         1 UNK         0.0600 
    144 H144       -1.2167  -19.8311  -46.9730 H         1 UNK         0.3000 
    145 H145       -0.6015  -23.1195  -45.5599 H         1 UNK         0.0600 
    146 H146        1.6757  -22.4095  -46.2001 H         1 UNK         0.0600 
    147 H147        0.7456  -22.8121  -47.6355 H         1 UNK         0.0600 
    148 H148        1.0270  -21.1273  -47.2201 H         1 UNK         0.0600 
    149 H149        0.4831  -20.6222  -44.8065 H         1 UNK         0.3000 
    150 H150       -1.9315  -19.8354  -42.2548 H         1 UNK         0.0600 
    151 H151       -0.2674  -21.4596  -41.3211 H         1 UNK         0.0600 
    152 H152        0.1645  -19.7977  -40.9488 H         1 UNK         0.0600 
    153 H153        1.0194  -20.6652  -42.2221 H         1 UNK         0.0600 
    154 H154        0.3859  -18.4377  -43.1170 H         1 UNK         0.3000 
    155 H155       -1.2189  -16.4132  -45.6307 H         1 UNK         0.0600 
    156 H156       -1.5313  -15.2828  -43.4648 H         1 UNK         0.0600 
    157 H157       -0.0462  -14.7261  -44.2215 H         1 UNK         0.0600 
    158 H158        0.0209  -15.8738  -42.8868 H         1 UNK         0.0600 
    159 H159        1.4954  -16.5370  -44.8932 H         1 UNK         0.3000 
    160 H160        2.5527  -19.1714  -47.0642 H         1 UNK         0.0600 
    161 H161        2.4955  -17.1364  -48.4627 H         1 UNK         0.0600 
    162 H162        2.9552  -16.1332  -47.0964 H         1 UNK         0.0600 
    163 H163        4.0875  -17.3214  -47.7416 H         1 UNK         0.0600 
    164 H164        3.7885  -17.4203  -45.1045 H         1 UNK         0.3000 
    165 H165        3.6502  -19.7658  -42.4155 H         1 UNK         0.0600 
    166 H166        6.1045  -19.4467  -42.5068 H         1 UNK         0.0600 
    167 H167        5.5864  -20.5016  -43.8120 H         1 UNK         0.0600 
    168 H168        5.9948  -18.8245  -44.1536 H         1 UNK         0.0600 
    169 H169        4.8494  -17.1749  -42.6953 H         1 UNK         0.3000 
    170 H170        2.0060  -15.2739  -41.7028 H         1 UNK         0.0600 
    171 H171        2.9225  -16.1890  -39.5592 H         1 UNK         0.0600 
    172 H172        4.5607  -15.9358  -40.1517 H         1 UNK         0.0600 
    173 H173        3.4915  -14.5587  -39.8784 H         1 UNK         0.0600 
    174 H174        4.4905  -14.2325  -42.0789 H         1 UNK         0.3000 
    175 H175        5.5480  -13.6805  -44.2053 H         1 UNK         0.0600 
    176 H176        3.4486  -13.5325  -46.4419 H         1 UNK         0.0600 
    177 H177        5.0564  -12.8140  -46.4921 H         1 UNK         0.0600 
    178 H178        4.8775  -14.5610  -46.4330 H         1 UNK         0.0600 
    179 H179        3.0134  -12.1100  -44.4269 H         1 UNK         0.3000 
    180 H180        3.7300  -10.2266  -41.5469 H         1 UNK         0.0600 
    181 H181        3.4250   -8.2161  -42.9744 H         1 UNK         0.0600 
    182 H182        3.8161   -9.1506  -44.4190 H         1 UNK         0.0600 
    183 H183        5.0409   -8.8703  -43.1873 H         1 UNK         0.0600 
    184 H184        1.6849  -10.0385  -43.5494 H         1 UNK         0.3000 
    185 H185       -0.2640  -12.7745  -42.6617 H         1 UNK         0.0600 
    186 H186       -0.9070   -9.9330  -41.7114 H         1 UNK         0.0600 
    187 H187       -2.0742  -11.2278  -41.9850 H         1 UNK         0.0600 
    188 H188       -0.8943  -11.3675  -40.6924 H         1 UNK         0.0600 
    189 H189       -1.0650  -10.5436  -44.1393 H         1 UNK         0.3000 
    190 H190       -3.5846  -19.6182  -45.5955 H         1 UNK         0.3000 
    191 H191       -6.4287  -19.6805  -45.6519 H         1 UNK         0.0600 
    192 H192       -4.4735  -20.0244  -43.3177 H         1 UNK         0.0600 
    193 H193       -5.1621  -18.5053  -43.8893 H         1 UNK         0.0600 
    194 H194       -6.1993  -19.7182  -43.1561 H         1 UNK         0.0600 
    195 H195       -4.0208  -22.2291  -45.0673 H         1 UNK         0.3000 
    196 H196       -5.9799  -24.3039  -44.4522 H         1 UNK         0.0600 
    197 H197       -3.6811  -24.3124  -43.4818 H         1 UNK         0.0600 
    198 H198       -2.9855  -24.4496  -45.0943 H         1 UNK         0.0600 
    199 H199       -3.9642  -25.7566  -44.4393 H         1 UNK         0.0600 
    200 H200       -5.3294  -22.7284  -47.2876 H         1 UNK         0.3000 
    201 H201       -5.6425  -23.0105  -49.4357 H         1 UNK         0.0600 
    202 H202       -7.2448  -24.6585  -50.2827 H         1 UNK         0.0600 
    203 H203       -7.8383  -24.0219  -48.7585 H         1 UNK         0.0600 
    204 H204       -7.1096  -25.6269  -48.8231 H         1 UNK         0.0600 
    205 H205       -3.2663  -24.1507  -48.1115 H         1 UNK         0.3000 
    206 H206       -1.3806  -25.2440  -48.4853 H         1 UNK         0.0600 
    207 H207       -1.3995  -23.2889  -50.0479 H         1 UNK         0.0600 
    208 H208       -1.9730  -24.3371  -51.3475 H         1 UNK         0.0600 
    209 H209       -0.3825  -24.5931  -50.6350 H         1 UNK         0.0600 
    210 H210       -3.5986  -27.1660  -48.6721 H         1 UNK         0.3000 
    211 H211       -4.1483  -29.2324  -49.2685 H         1 UNK         0.0600 
    212 H212       -1.9000  -29.8141  -48.3259 H         1 UNK         0.0600 
    213 H213       -2.3861  -30.9211  -49.5986 H         1 UNK         0.0600 
    214 H214       -1.1899  -29.6776  -49.9339 H         1 UNK         0.0600 
    215 H215       -4.4643  -27.1737  -51.1853 H         1 UNK         0.3000 
    216 H216       -5.3227  -26.8259  -53.1428 H         1 UNK         0.0600 
    217 H217       -6.0689  -28.5839  -54.6606 H         1 UNK         0.0600 
    218 H218       -5.0315  -29.7759  -53.8965 H         1 UNK         0.0600 
    219 H219       -6.3978  -29.0927  -53.0138 H         1 UNK         0.0600 
    220 H220       -2.2802  -26.9519  -52.6231 H         1 UNK         0.3000 
    221 H221       -1.1567  -26.9855  -55.3196 H         1 UNK         0.0600 
    222 H222       -0.0115  -25.8240  -52.7229 H         1 UNK         0.0600 
    223 H223        0.1916  -27.4985  -53.2343 H         1 UNK         0.0600 
    224 H224        0.8793  -26.1969  -54.1902 H         1 UNK         0.0600 
    225 H225       -0.0528  -24.9982  -56.1518 H         1 UNK         0.3000 
    226 H226       -1.8563  -22.9547  -56.7483 H         1 UNK         0.0600 
    227 H227        0.0435  -23.6018  -58.1986 H         1 UNK         0.0600 
    228 H228        0.1246  -21.8843  -57.8441 H         1 UNK         0.0600 
    229 H229        1.1983  -22.9997  -57.0081 H         1 UNK         0.0600 
    230 H230        0.3439  -23.1313  -54.0466 H         1 UNK         0.3000 
    231 H231        0.4515  -20.3751  -53.3108 H         1 UNK         0.0600 
    232 H232        1.2475  -21.3246  -51.1140 H         1 UNK         0.0600 
    233 H233        2.1017  -21.9949  -52.4932 H         1 UNK         0.0600 
    234 H234        0.8538  -22.9399  -51.6878 H         1 UNK         0.0600 
    235 H235       -2.2578  -22.4608  -53.2585 H         1 UNK         0.3000 
    236 H236       -3.7346  -21.2937  -51.0813 H         1 UNK         0.0600 
    237 H237       -5.6651  -22.3183  -52.2146 H         1 UNK         0.0600 
    238 H238       -4.7389  -22.5400  -53.6968 H         1 UNK         0.0600 
    239 H239       -4.3221  -23.4531  -52.2573 H         1 UNK         0.0600 
    240 H240       -2.9402  -20.2705  -54.3571 H         1 UNK         0.3000 
    241 H241       -3.2442  -18.4908  -55.5667 H         1 UNK         0.0600 
    242 H242       -7.0465  -19.1614  -55.7016 H         1 UNK         0.3800 
    243 H243       -5.8159  -20.1855  -55.0084 H         1 UNK         0.3800 
    244 H244       -3.4752  -16.2571  -54.5353 H         1 UNK         0.0800 
    245 H245       -3.9852  -16.9691  -53.0276 H         1 UNK         0.0800 
    246 H246       -0.1594  -15.4572  -52.8469 H         1 UNK         0.0800 
    247 H247       -1.5302  -14.8895  -53.7655 H         1 UNK         0.0800 
@<TRIPOS>BOND
     1    1    2 1    
     2    1  127 1    
     3    1  128 1    
     4    1  129 1    
     5    2    3 2    
     6    2    4 am   BACKBONE|DICT|INTERRES
     7    4    5 1    
     8    4  130 1    
     9    5    6 1    
    10    5   65 1    
    11    5  131 1    
    12    6    7 1    
    13    6  132 1    
    14    6  133 1    
    15    7    8 1    
    16    8    9 1    
    17    8  134 1    
    18    8  135 1    
    19    9   10 ar   
    20    9   14 ar   
    21   10   11 ar   
    22   10  136 1    
    23   11   12 ar   
    24   11  126 1    
    25   12   13 ar   
    26   12  137 1    
    27   13   14 ar   
    28   13   15 1    
    29   14  138 1    
    30   15   16 1    
    31   15  139 1    
    32   15  140 1    
    33   16   17 1    
    34   17   18 1    
    35   17  141 1    
    36   17  142 1    
    37   18   19 1    
    38   18   67 1    
    39   18  143 1    
    40   19   20 am   BACKBONE|DICT|INTERRES
    41   19  144 1    
    42   20   21 2    
    43   20   22 1    
    44   22   23 1    
    45   22   24 1    
    46   22  145 1    
    47   23  146 1    
    48   23  147 1    
    49   23  148 1    
    50   24   25 am   BACKBONE|DICT|INTERRES
    51   24  149 1    
    52   25   26 2    
    53   25   27 1    
    54   27   28 1    
    55   27   29 1    
    56   27  150 1    
    57   28  151 1    
    58   28  152 1    
    59   28  153 1    
    60   29   30 am   BACKBONE|DICT|INTERRES
    61   29  154 1    
    62   30   31 2    
    63   30   32 1    
    64   32   33 1    
    65   32   34 1    
    66   32  155 1    
    67   33  156 1    
    68   33  157 1    
    69   33  158 1    
    70   34   35 am   BACKBONE|DICT|INTERRES
    71   34  159 1    
    72   35   36 2    
    73   35   37 1    
    74   37   38 1    
    75   37   39 1    
    76   37  160 1    
    77   38  161 1    
    78   38  162 1    
    79   38  163 1    
    80   39   40 am   BACKBONE|DICT|INTERRES
    81   39  164 1    
    82   40   41 2    
    83   40   42 1    
    84   42   43 1    
    85   42   44 1    
    86   42  165 1    
    87   43  166 1    
    88   43  167 1    
    89   43  168 1    
    90   44   45 am   BACKBONE|DICT|INTERRES
    91   44  169 1    
    92   45   46 2    
    93   45   47 1    
    94   47   48 1    
    95   47   49 1    
    96   47  170 1    
    97   48  171 1    
    98   48  172 1    
    99   48  173 1    
   100   49   50 am   BACKBONE|DICT|INTERRES
   101   49  174 1    
   102   50   51 2    
   103   50   52 1    
   104   52   53 1    
   105   52   54 1    
   106   52  175 1    
   107   53  176 1    
   108   53  177 1    
   109   53  178 1    
   110   54   55 am   BACKBONE|DICT|INTERRES
   111   54  179 1    
   112   55   56 2    
   113   55   57 1    
   114   57   58 1    
   115   57   59 1    
   116   57  180 1    
   117   58  181 1    
   118   58  182 1    
   119   58  183 1    
   120   59   60 am   BACKBONE|DICT|INTERRES
   121   59  184 1    
   122   60   61 2    
   123   60   62 1    
   124   62   63 1    
   125   62   64 1    
   126   62  185 1    
   127   63  186 1    
   128   63  187 1    
   129   63  188 1    
   130   64   65 am   BACKBONE|DICT|INTERRES
   131   64  189 1    
   132   65   66 2    
   133   67   68 2    
   134   67   69 am   BACKBONE|DICT|INTERRES
   135   69   70 1    
   136   69  190 1    
   137   70   71 1    
   138   70   72 1    
   139   70  191 1    
   140   71  192 1    
   141   71  193 1    
   142   71  194 1    
   143   72   73 2    
   144   72   74 am   BACKBONE|DICT|INTERRES
   145   74   75 1    
   146   74  195 1    
   147   75   76 1    
   148   75   77 1    
   149   75  196 1    
   150   76  197 1    
   151   76  198 1    
   152   76  199 1    
   153   77   78 2    
   154   77   79 am   BACKBONE|DICT|INTERRES
   155   79   80 1    
   156   79  200 1    
   157   80   81 1    
   158   80   82 1    
   159   80  201 1    
   160   81  202 1    
   161   81  203 1    
   162   81  204 1    
   163   82   83 2    
   164   82   84 am   BACKBONE|DICT|INTERRES
   165   84   85 1    
   166   84  205 1    
   167   85   86 1    
   168   85   87 1    
   169   85  206 1    
   170   86  207 1    
   171   86  208 1    
   172   86  209 1    
   173   87   88 2    
   174   87   89 am   BACKBONE|DICT|INTERRES
   175   89   90 1    
   176   89  210 1    
   177   90   91 1    
   178   90   92 1    
   179   90  211 1    
   180   91  212 1    
   181   91  213 1    
   182   91  214 1    
   183   92   93 2    
   184   92   94 am   BACKBONE|DICT|INTERRES
   185   94   95 1    
   186   94  215 1    
   187   95   96 1    
   188   95   97 1    
   189   95  216 1    
   190   96  217 1    
   191   96  218 1    
   192   96  219 1    
   193   97   98 2    
   194   97   99 am   BACKBONE|DICT|INTERRES
   195   99  100 1    
   196   99  220 1    
   197  100  101 1    
   198  100  102 1    
   199  100  221 1    
   200  101  222 1    
   201  101  223 1    
   202  101  224 1    
   203  102  103 2    
   204  102  104 am   BACKBONE|DICT|INTERRES
   205  104  105 1    
   206  104  225 1    
   207  105  106 1    
   208  105  107 1    
   209  105  226 1    
   210  106  227 1    
   211  106  228 1    
   212  106  229 1    
   213  107  108 2    
   214  107  109 am   BACKBONE|DICT|INTERRES
   215  109  110 1    
   216  109  230 1    
   217  110  111 1    
   218  110  112 1    
   219  110  231 1    
   220  111  232 1    
   221  111  233 1    
   222  111  234 1    
   223  112  113 2    
   224  112  114 am   BACKBONE|DICT|INTERRES
   225  114  115 1    
   226  114  235 1    
   227  115  116 1    
   228  115  117 1    
   229  115  236 1    
   230  116  237 1    
   231  116  238 1    
   232  116  239 1    
   233  117  118 2    
   234  117  119 am   BACKBONE|DICT|INTERRES
   235  119  120 1    
   236  119  240 1    
   237  120  121 1    
   238  120  124 1    
   239  120  241 1    
   240  121  122 am   BACKBONE|DICT|INTERRES
   241  121  123 2    
   242  122  242 1    
   243  122  243 1    
   244  124  125 1    
   245  124  244 1    
   246  124  245 1    
   247  125  126 1    
   248  126  246 1    
   249  126  247 1    
@<TRIPOS>SUBSTRUCTURE
     1 UNK         1 GROUP             0       ****    0 ROOT    
