@<TRIPOS>MOLECULE
3R540
247   249    1
SMALL
USER_CHARGES


@<TRIPOS>ATOM
      1 CA          5.6658  -13.3474  -45.9938 C.3       0 UNK        -0.1800 
      2 C           4.2025  -13.7214  -45.8163 C.2       0 UNK         0.5000 
      3 O           3.7652  -13.9851  -44.6951 O.2       0 UNK        -0.5000 
      4 N           3.4513  -13.7524  -46.9260 N.am      1 UNK        -0.5000 
      5 CA          2.0434  -14.1625  -46.9971 C.3       1 UNK         0.1400 
      6 C6          1.5010  -14.1995  -48.4485 C.3       23 UNK        -0.0398 
      7 S7          2.4476  -15.3126  -49.5373 S.3       23 UNK        -0.2404 
      8 C8          1.3158  -15.4615  -50.9584 C.3       23 UNK        -0.0205 
      9 C9          0.3098  -16.5871  -50.7673 C.ar      23 UNK        -0.0193 
     10 C10        -0.9823  -16.3253  -50.3011 C.ar      23 UNK        -0.1150 
     11 C11        -1.8965  -17.3692  -50.1205 C.ar      23 UNK        -0.0193 
     12 C12        -1.5070  -18.6816  -50.4015 C.ar      23 UNK        -0.1150 
     13 C13        -0.2227  -18.9530  -50.8811 C.ar      23 UNK        -0.0193 
     14 C14         0.6768  -17.9007  -51.0694 C.ar      23 UNK        -0.1150 
     15 C15         0.1999  -20.3856  -51.1736 C.3       23 UNK        -0.0205 
     16 S16         1.5878  -20.9339  -50.1254 S.3       23 UNK        -0.2404 
     17 C17         0.9587  -20.6078  -48.4422 C.3       23 UNK        -0.0398 
     18 CA          0.3837  -21.8590  -47.7456 C.3       11 UNK         0.1400 
     19 N           0.2806  -21.6604  -46.3028 N.am      11 UNK        -0.5000 
     20 C           0.0116  -22.6216  -45.4112 C.2       10 UNK         0.5000 
     21 O          -0.1622  -23.8043  -45.7054 O.2       10 UNK        -0.5000 
     22 CA         -0.1277  -22.1685  -43.9489 C.3       10 UNK         0.1400 
     23 CB          1.2517  -21.9544  -43.3074 C.3       10 UNK        -0.1800 
     24 N          -0.9151  -20.9416  -43.8300 N.am      10 UNK        -0.5000 
     25 C          -2.2236  -20.8518  -44.1045 C.2       9 UNK         0.5000 
     26 O          -2.9165  -21.8017  -44.4709 O.2       9 UNK        -0.5000 
     27 CA         -2.8485  -19.4511  -43.9844 C.3       9 UNK         0.1400 
     28 CB         -3.1125  -19.0926  -42.5142 C.3       9 UNK        -0.1800 
     29 N          -2.0201  -18.4111  -44.5963 N.am      9 UNK        -0.5000 
     30 C          -1.7707  -18.3252  -45.9104 C.2       8 UNK         0.5000 
     31 O          -2.1849  -19.1287  -46.7414 O.2       8 UNK        -0.5000 
     32 CA         -0.8806  -17.1627  -46.3747 C.3       8 UNK         0.1400 
     33 CB         -1.7141  -15.8736  -46.4504 C.3       8 UNK        -0.1800 
     34 N           0.2906  -16.9462  -45.5229 N.am      8 UNK        -0.5000 
     35 C           1.2090  -17.8748  -45.2099 C.2       7 UNK         0.5000 
     36 O           1.1675  -19.0369  -45.6123 O.2       7 UNK        -0.5000 
     37 CA          2.3597  -17.4623  -44.2731 C.3       7 UNK         0.1400 
     38 CB          3.6866  -17.3766  -45.0424 C.3       7 UNK        -0.1800 
     39 N           2.1324  -16.2125  -43.5443 N.am      7 UNK        -0.5000 
     40 C           1.2078  -16.0561  -42.5855 C.2       6 UNK         0.5000 
     41 O           0.3720  -16.9185  -42.3031 O.2       6 UNK        -0.5000 
     42 CA          1.2474  -14.7250  -41.8066 C.3       6 UNK         0.1400 
     43 CB          0.3506  -14.7364  -40.5524 C.3       6 UNK        -0.1800 
     44 N           2.6053  -14.3018  -41.4479 N.am      6 UNK        -0.5000 
     45 C           3.5398  -14.9978  -40.7782 C.2       5 UNK         0.5000 
     46 O           3.3856  -16.1491  -40.3691 O.2       5 UNK        -0.5000 
     47 CA          4.8816  -14.2846  -40.5091 C.3       5 UNK         0.1400 
     48 CB          5.8936  -14.6200  -41.6160 C.3       5 UNK        -0.1800 
     49 N           4.7534  -12.8299  -40.4105 N.am      5 UNK        -0.5000 
     50 C           4.1121  -12.1760  -39.4307 C.2       4 UNK         0.5000 
     51 O           3.6665  -12.7247  -38.4222 O.2       4 UNK        -0.5000 
     52 CA          3.9081  -10.6561  -39.6196 C.3       4 UNK         0.1400 
     53 CB          4.9373   -9.8698  -38.7930 C.3       4 UNK        -0.1800 
     54 N           3.9723  -10.2020  -41.0155 N.am      4 UNK        -0.5000 
     55 C           3.1643  -10.6147  -42.0021 C.2       3 UNK         0.5000 
     56 O           2.2608  -11.4368  -41.8353 O.2       3 UNK        -0.5000 
     57 CA          3.4633  -10.0601  -43.4091 C.3       3 UNK         0.1400 
     58 CB          4.8949  -10.4161  -43.8468 C.3       3 UNK        -0.1800 
     59 N           2.5334  -10.5925  -44.4044 N.am      3 UNK        -0.5000 
     60 C           1.2642  -10.1962  -44.5674 C.2       2 UNK         0.5000 
     61 O           0.7620   -9.2566  -43.9481 O.2       2 UNK        -0.5000 
     62 CA          0.4156  -10.9622  -45.6028 C.3       2 UNK         0.1400 
     63 CB         -0.1960   -9.9986  -46.6344 C.3       2 UNK        -0.1800 
     64 N           1.1933  -11.9744  -46.3232 N.am      2 UNK        -0.5000 
     65 C           1.1390  -13.2936  -46.1014 C.2       1 UNK         0.5000 
     66 O           0.4501  -13.8281  -45.2318 O.2       1 UNK        -0.5000 
     67 C          -0.9592  -22.3073  -48.3555 C.2       11 UNK         0.5000 
     68 O          -0.9715  -23.2634  -49.1271 O.2       11 UNK        -0.5000 
     69 N          -2.0693  -21.6583  -47.9720 N.am      12 UNK        -0.5000 
     70 CA         -3.4232  -22.0244  -48.3916 C.3       12 UNK         0.1400 
     71 CB         -4.4367  -20.9890  -47.8854 C.3       12 UNK        -0.1800 
     72 C          -3.8290  -23.4367  -47.9408 C.2       12 UNK         0.5000 
     73 O          -4.4363  -24.1621  -48.7286 O.2       12 UNK        -0.5000 
     74 N          -3.4620  -23.8133  -46.7075 N.am      13 UNK        -0.5000 
     75 CA         -3.6639  -25.1561  -46.1630 C.3       13 UNK         0.1400 
     76 CB         -3.3342  -25.1672  -44.6629 C.3       13 UNK        -0.1800 
     77 C          -2.8509  -26.2222  -46.9198 C.2       13 UNK         0.5000 
     78 O          -3.4099  -27.2533  -47.2964 O.2       13 UNK        -0.5000 
     79 N          -1.5656  -25.9357  -47.1764 N.am      14 UNK        -0.5000 
     80 CA         -0.6631  -26.7797  -47.9665 C.3       14 UNK         0.1400 
     81 CB          0.7614  -26.2092  -47.8994 C.3       14 UNK        -0.1800 
     82 C          -1.1186  -26.9415  -49.4304 C.2       14 UNK         0.5000 
     83 O          -0.9984  -28.0303  -49.9921 O.2       14 UNK        -0.5000 
     84 N          -1.6812  -25.8684  -49.9986 N.am      15 UNK        -0.5000 
     85 CA         -2.2919  -25.8124  -51.3259 C.3       15 UNK         0.1400 
     86 CB         -2.2047  -24.3673  -51.8481 C.3       15 UNK        -0.1800 
     87 C          -3.7419  -26.3440  -51.3650 C.2       15 UNK         0.5000 
     88 O          -4.4285  -26.1067  -52.3569 O.2       15 UNK        -0.5000 
     89 N          -4.1928  -27.0439  -50.3117 N.am      16 UNK        -0.5000 
     90 CA         -5.4832  -27.7328  -50.1943 C.3       16 UNK         0.1400 
     91 CB         -5.5272  -28.9491  -51.1430 C.3       16 UNK        -0.1800 
     92 C          -6.6869  -26.7851  -50.3735 C.2       16 UNK         0.5000 
     93 O          -7.5272  -27.0010  -51.2487 O.2       16 UNK        -0.5000 
     94 N          -6.7180  -25.7394  -49.5374 N.am      17 UNK        -0.5000 
     95 CA         -7.6598  -24.6163  -49.5462 C.3       17 UNK         0.1400 
     96 CB         -9.1258  -25.0784  -49.3990 C.3       17 UNK        -0.1800 
     97 C          -7.4144  -23.6798  -50.7453 C.2       17 UNK         0.5000 
     98 O          -8.3579  -23.2712  -51.4244 O.2       17 UNK        -0.5000 
     99 N          -6.1320  -23.3449  -50.9493 N.am      18 UNK        -0.5000 
    100 CA        -5.6060  -22.3735  -51.9125 C.3       18 UNK         0.1400 
    101 CB        -6.0417  -20.9441  -51.5247 C.3       18 UNK        -0.1800 
    102 C         -5.9046  -22.7093  -53.3893 C.2       18 UNK         0.5000 
    103 O         -6.1516  -21.8002  -54.1853 O.2       18 UNK        -0.5000 
    104 N         -5.8535  -23.9998  -53.7504 N.am      19 UNK        -0.5000 
    105 CA        -6.0433  -24.4771  -55.1202 C.3       19 UNK         0.1400 
    106 CB        -6.1473  -26.0109  -55.1306 C.3       19 UNK        -0.1800 
    107 C         -4.9050  -23.9772  -56.0295 C.2       19 UNK         0.5000 
    108 O         -3.7574  -24.3930  -55.8586 O.2       19 UNK        -0.5000 
    109 N         -5.2503  -23.0552  -56.9392 N.am      20 UNK        -0.5000 
    110 CA        -4.3567  -22.3209  -57.8430 C.3       20 UNK         0.1400 
    111 CB        -3.6836  -23.2757  -58.8524 C.3       20 UNK        -0.1800 
    112 C         -3.3470  -21.4021  -57.1149 C.2       20 UNK         0.5000 
    113 O         -2.2843  -21.1103  -57.6676 O.2       20 UNK        -0.5000 
    114 N         -3.6992  -20.9467  -55.9043 N.am      21 UNK        -0.5000 
    115 CA        -2.9352  -19.9842  -55.1118 C.3       21 UNK         0.1400 
    116 CB        -2.6053  -20.6023  -53.7384 C.3       21 UNK        -0.1800 
    117 C         -3.7207  -18.6590  -55.0409 C.2       21 UNK         0.5000 
    118 O         -4.1859  -18.1808  -56.0784 O.2       21 UNK        -0.5000 
    119 N         -3.8363  -18.0720  -53.8435 N.am      22 UNK        -0.5000 
    120 CA        -4.5985  -16.8453  -53.5643 C.3       22 UNK         0.1400 
    121 C         -6.1292  -16.9645  -53.8298 C.2       22 UNK         0.5000 
    122 N         -6.7998  -15.8539  -54.1081 N.am      22 UNK        -0.7600 
    123 O         -6.7220  -18.0383  -53.7602 O.2       22 UNK        -0.5000 
    124 C124       -4.3025  -16.3061  -52.1392 C.3       23 UNK        -0.0398 
    125 S125       -4.5947  -17.5234  -50.8044 S.3       23 UNK        -0.2404 
    126 C126       -3.2992  -17.0847  -49.6029 C.3       23 UNK        -0.0205 
    127 H127        6.0786  -13.8069  -46.8920 H         1 UNK         0.0600 
    128 H128        5.7748  -12.2668  -46.0784 H         1 UNK         0.0600 
    129 H129        6.2538  -13.6869  -45.1409 H         1 UNK         0.0600 
    130 H130        3.8834  -13.5406  -47.8144 H         1 UNK         0.3000 
    131 H131        1.9969  -15.1785  -46.6083 H         1 UNK         0.0600 
    132 H132        0.4619  -14.5272  -48.4559 H         1 UNK         0.0800 
    133 H133        1.5108  -13.2031  -48.8938 H         1 UNK         0.0800 
    134 H134        1.9067  -15.6557  -51.8548 H         1 UNK         0.0800 
    135 H135        0.8067  -14.5126  -51.1344 H         1 UNK         0.0800 
    136 H136       -1.2751  -15.3094  -50.0767 H         1 UNK         0.1150 
    137 H137       -2.2080  -19.4894  -50.2433 H         1 UNK         0.1150 
    138 H138        1.6744  -18.1091  -51.4303 H         1 UNK         0.1150 
    139 H139       -0.6377  -21.0732  -51.0476 H         1 UNK         0.0800 
    140 H140        0.4992  -20.4604  -52.2198 H         1 UNK         0.0800 
    141 H141        0.2413  -19.7873  -48.4277 H         1 UNK         0.0800 
    142 H142        1.8172  -20.2452  -47.8757 H         1 UNK         0.0800 
    143 H143        1.0932  -22.6761  -47.8936 H         1 UNK         0.0600 
    144 H144        0.4394  -20.7123  -45.9692 H         1 UNK         0.3000 
    145 H145       -0.6427  -22.9600  -43.4001 H         1 UNK         0.0600 
    146 H146        1.1598  -21.7001  -42.2513 H         1 UNK         0.0600 
    147 H147        1.8559  -22.8603  -43.3719 H         1 UNK         0.0600 
    148 H148        1.8069  -21.1537  -43.7978 H         1 UNK         0.0600 
    149 H149       -0.4171  -20.1013  -43.5762 H         1 UNK         0.3000 
    150 H150       -3.8070  -19.4706  -44.5076 H         1 UNK         0.0600 
    151 H151       -3.7290  -19.8521  -42.0315 H         1 UNK         0.0600 
    152 H152       -3.6421  -18.1435  -42.4299 H         1 UNK         0.0600 
    153 H153       -2.1854  -19.0099  -41.9453 H         1 UNK         0.0600 
    154 H154       -1.6041  -17.7296  -43.9766 H         1 UNK         0.3000 
    155 H155       -0.5217  -17.4033  -47.3776 H         1 UNK         0.0600 
    156 H156       -1.9479  -15.4870  -45.4577 H         1 UNK         0.0600 
    157 H157       -2.6616  -16.0411  -46.9622 H         1 UNK         0.0600 
    158 H158       -1.1929  -15.0922  -46.9982 H         1 UNK         0.0600 
    159 H159        0.3935  -16.0193  -45.1275 H         1 UNK         0.3000 
    160 H160        2.4603  -18.2561  -43.5299 H         1 UNK         0.0600 
    161 H161        4.5092  -17.0962  -44.3842 H         1 UNK         0.0600 
    162 H162        3.6420  -16.6505  -45.8526 H         1 UNK         0.0600 
    163 H163        3.9399  -18.3401  -45.4864 H         1 UNK         0.0600 
    164 H164        2.7584  -15.4391  -43.7519 H         1 UNK         0.3000 
    165 H165        0.8595  -13.9630  -42.4840 H         1 UNK         0.0600 
    166 H166        0.3747  -13.7719  -40.0449 H         1 UNK         0.0600 
    167 H167       -0.6885  -14.9387  -40.8146 H         1 UNK         0.0600 
    168 H168        0.6651  -15.4988  -39.8389 H         1 UNK         0.0600 
    169 H169        2.8198  -13.3447  -41.7068 H         1 UNK         0.3000 
    170 H170        5.2723  -14.6577  -39.5601 H         1 UNK         0.0600 
    171 H171        6.0280  -15.6985  -41.7091 H         1 UNK         0.0600 
    172 H172        5.5661  -14.2465  -42.5870 H         1 UNK         0.0600 
    173 H173        6.8715  -14.1885  -41.4020 H         1 UNK         0.0600 
    174 H174        5.1014  -12.2922  -41.1896 H         1 UNK         0.3000 
    175 H175        2.9118  -10.4172  -39.2423 H         1 UNK         0.0600 
    176 H176        5.9546  -10.0469  -39.1444 H         1 UNK         0.0600 
    177 H177        4.7462   -8.7976  -38.8399 H         1 UNK         0.0600 
    178 H178        4.8983  -10.1587  -37.7418 H         1 UNK         0.0600 
    179 H179        4.6959   -9.5305  -41.2289 H         1 UNK         0.3000 
    180 H180        3.3638   -8.9732  -43.3772 H         1 UNK         0.0600 
    181 H181        5.0797  -11.4886  -43.7790 H         1 UNK         0.0600 
    182 H182        5.6379   -9.9168  -43.2243 H         1 UNK         0.0600 
    183 H183        5.0829  -10.1053  -44.8747 H         1 UNK         0.0600 
    184 H184        2.8318  -11.4187  -44.9000 H         1 UNK         0.3000 
    185 H185       -0.4026  -11.4352  -45.0557 H         1 UNK         0.0600 
    186 H186       -0.8177  -10.5340  -47.3522 H         1 UNK         0.0600 
    187 H187       -0.8307   -9.2546  -46.1513 H         1 UNK         0.0600 
    188 H188        0.5739   -9.4628  -47.1908 H         1 UNK         0.0600 
    189 H189        1.8178  -11.6272  -47.0375 H         1 UNK         0.3000 
    190 H190       -1.9944  -20.8449  -47.3644 H         1 UNK         0.3000 
    191 H191       -3.4449  -22.0085  -49.4826 H         1 UNK         0.0600 
    192 H192       -4.3944  -20.8818  -46.8009 H         1 UNK         0.0600 
    193 H193       -5.4564  -21.2747  -48.1467 H         1 UNK         0.0600 
    194 H194       -4.2514  -20.0102  -48.3276 H         1 UNK         0.0600 
    195 H195       -3.0041  -23.1395  -46.1034 H         1 UNK         0.3000 
    196 H196       -4.7212  -25.4050  -46.2756 H         1 UNK         0.0600 
    197 H197       -3.4950  -26.1575  -44.2351 H         1 UNK         0.0600 
    198 H198       -3.9692  -24.4697  -44.1164 H         1 UNK         0.0600 
    199 H199       -2.2971  -24.8914  -44.4727 H         1 UNK         0.0600 
    200 H200       -1.1715  -25.0764  -46.8031 H         1 UNK         0.3000 
    201 H201       -0.6541  -27.7722  -47.5114 H         1 UNK         0.0600 
    202 H202        1.1168  -26.1568  -46.8701 H         1 UNK         0.0600 
    203 H203        0.8134  -25.2054  -48.3218 H         1 UNK         0.0600 
    204 H204        1.4603  -26.8361  -48.4542 H         1 UNK         0.0600 
    205 H205       -1.6640  -24.9913  -49.4843 H         1 UNK         0.3000 
    206 H206       -1.7124  -26.4435  -52.0022 H         1 UNK         0.0600 
    207 H207       -1.1686  -24.0329  -51.9047 H         1 UNK         0.0600 
    208 H208       -2.6283  -24.2719  -52.8491 H         1 UNK         0.0600 
    209 H209       -2.7369  -23.6804  -51.1923 H         1 UNK         0.0600 
    210 H210       -3.5832  -27.1336  -49.5085 H         1 UNK         0.3000 
    211 H211       -5.5378  -28.1121  -49.1728 H         1 UNK         0.0600 
    212 H212       -5.4929  -28.6488  -52.1909 H         1 UNK         0.0600 
    213 H213       -6.4422  -29.5243  -50.9974 H         1 UNK         0.0600 
    214 H214       -4.6889  -29.6212  -50.9599 H         1 UNK         0.0600 
    215 H215       -5.9156  -25.6078  -48.9313 H         1 UNK         0.3000 
    216 H216       -7.4232  -24.0282  -48.6581 H         1 UNK         0.0600 
    217 H217       -9.7839  -24.2248  -49.2337 H         1 UNK         0.0600 
    218 H218       -9.2450  -25.7494  -48.5484 H         1 UNK         0.0600 
    219 H219       -9.4867  -25.5942  -50.2888 H         1 UNK         0.0600 
    220 H220       -5.4484  -23.7589  -50.3221 H         1 UNK         0.3000 
    221 H221       -4.5228  -22.4150  -51.8160 H         1 UNK         0.0600 
    222 H222       -7.1213  -20.8146  -51.6041 H         1 UNK         0.0600 
    223 H223       -5.7495  -20.7018  -50.5042 H         1 UNK         0.0600 
    224 H224       -5.5829  -20.1970  -52.1726 H         1 UNK         0.0600 
    225 H225       -5.5572  -24.6986  -53.0741 H         1 UNK         0.3000 
    226 H226       -6.9941  -24.0802  -55.4821 H         1 UNK         0.0600 
    227 H227       -6.9255  -26.3597  -54.4512 H         1 UNK         0.0600 
    228 H228       -6.3951  -26.3749  -56.1282 H         1 UNK         0.0600 
    229 H229       -5.2104  -26.4842  -54.8358 H         1 UNK         0.0600 
    230 H230       -6.2164  -22.7583  -56.9621 H         1 UNK         0.3000 
    231 H231       -5.0002  -21.6506  -58.4145 H         1 UNK         0.0600 
    232 H232       -4.4199  -23.9051  -59.3520 H         1 UNK         0.0600 
    233 H233       -2.9549  -23.9282  -58.3708 H         1 UNK         0.0600 
    234 H234       -3.1576  -22.7179  -59.6280 H         1 UNK         0.0600 
    235 H235       -4.6064  -21.2052  -55.5311 H         1 UNK         0.3000 
    236 H236       -1.9873  -19.7513  -55.6005 H         1 UNK         0.0600 
    237 H237       -1.9381  -19.9557  -53.1689 H         1 UNK         0.0600 
    238 H238       -3.5002  -20.7664  -53.1430 H         1 UNK         0.0600 
    239 H239       -2.1009  -21.5624  -53.8509 H         1 UNK         0.0600 
    240 H240       -3.4529  -18.5333  -53.0323 H         1 UNK         0.3000 
    241 H241       -4.2277  -16.0984  -54.2692 H         1 UNK         0.0600 
    242 H242       -7.7930  -15.9135  -54.2717 H         1 UNK         0.3800 
    243 H243       -6.3430  -14.9571  -54.1710 H         1 UNK         0.3800 
    244 H244       -3.2632  -15.9797  -52.1017 H         1 UNK         0.0800 
    245 H245       -4.8926  -15.4125  -51.9294 H         1 UNK         0.0800 
    246 H246       -3.4107  -16.0345  -49.3294 H         1 UNK         0.0800 
    247 H247       -3.4616  -17.6603  -48.6914 H         1 UNK         0.0800 
@<TRIPOS>BOND
     1    1    2 1    
     2    1  127 1    
     3    1  128 1    
     4    1  129 1    
     5    2    3 2    
     6    2    4 am   BACKBONE|DICT|INTERRES
     7    4    5 1    
     8    4  130 1    
     9    5    6 1    
    10    5   65 1    
    11    5  131 1    
    12    6    7 1    
    13    6  132 1    
    14    6  133 1    
    15    7    8 1    
    16    8    9 1    
    17    8  134 1    
    18    8  135 1    
    19    9   10 ar   
    20    9   14 ar   
    21   10   11 ar   
    22   10  136 1    
    23   11   12 ar   
    24   11  126 1    
    25   12   13 ar   
    26   12  137 1    
    27   13   14 ar   
    28   13   15 1    
    29   14  138 1    
    30   15   16 1    
    31   15  139 1    
    32   15  140 1    
    33   16   17 1    
    34   17   18 1    
    35   17  141 1    
    36   17  142 1    
    37   18   19 1    
    38   18   67 1    
    39   18  143 1    
    40   19   20 am   BACKBONE|DICT|INTERRES
    41   19  144 1    
    42   20   21 2    
    43   20   22 1    
    44   22   23 1    
    45   22   24 1    
    46   22  145 1    
    47   23  146 1    
    48   23  147 1    
    49   23  148 1    
    50   24   25 am   BACKBONE|DICT|INTERRES
    51   24  149 1    
    52   25   26 2    
    53   25   27 1    
    54   27   28 1    
    55   27   29 1    
    56   27  150 1    
    57   28  151 1    
    58   28  152 1    
    59   28  153 1    
    60   29   30 am   BACKBONE|DICT|INTERRES
    61   29  154 1    
    62   30   31 2    
    63   30   32 1    
    64   32   33 1    
    65   32   34 1    
    66   32  155 1    
    67   33  156 1    
    68   33  157 1    
    69   33  158 1    
    70   34   35 am   BACKBONE|DICT|INTERRES
    71   34  159 1    
    72   35   36 2    
    73   35   37 1    
    74   37   38 1    
    75   37   39 1    
    76   37  160 1    
    77   38  161 1    
    78   38  162 1    
    79   38  163 1    
    80   39   40 am   BACKBONE|DICT|INTERRES
    81   39  164 1    
    82   40   41 2    
    83   40   42 1    
    84   42   43 1    
    85   42   44 1    
    86   42  165 1    
    87   43  166 1    
    88   43  167 1    
    89   43  168 1    
    90   44   45 am   BACKBONE|DICT|INTERRES
    91   44  169 1    
    92   45   46 2    
    93   45   47 1    
    94   47   48 1    
    95   47   49 1    
    96   47  170 1    
    97   48  171 1    
    98   48  172 1    
    99   48  173 1    
   100   49   50 am   BACKBONE|DICT|INTERRES
   101   49  174 1    
   102   50   51 2    
   103   50   52 1    
   104   52   53 1    
   105   52   54 1    
   106   52  175 1    
   107   53  176 1    
   108   53  177 1    
   109   53  178 1    
   110   54   55 am   BACKBONE|DICT|INTERRES
   111   54  179 1    
   112   55   56 2    
   113   55   57 1    
   114   57   58 1    
   115   57   59 1    
   116   57  180 1    
   117   58  181 1    
   118   58  182 1    
   119   58  183 1    
   120   59   60 am   BACKBONE|DICT|INTERRES
   121   59  184 1    
   122   60   61 2    
   123   60   62 1    
   124   62   63 1    
   125   62   64 1    
   126   62  185 1    
   127   63  186 1    
   128   63  187 1    
   129   63  188 1    
   130   64   65 am   BACKBONE|DICT|INTERRES
   131   64  189 1    
   132   65   66 2    
   133   67   68 2    
   134   67   69 am   BACKBONE|DICT|INTERRES
   135   69   70 1    
   136   69  190 1    
   137   70   71 1    
   138   70   72 1    
   139   70  191 1    
   140   71  192 1    
   141   71  193 1    
   142   71  194 1    
   143   72   73 2    
   144   72   74 am   BACKBONE|DICT|INTERRES
   145   74   75 1    
   146   74  195 1    
   147   75   76 1    
   148   75   77 1    
   149   75  196 1    
   150   76  197 1    
   151   76  198 1    
   152   76  199 1    
   153   77   78 2    
   154   77   79 am   BACKBONE|DICT|INTERRES
   155   79   80 1    
   156   79  200 1    
   157   80   81 1    
   158   80   82 1    
   159   80  201 1    
   160   81  202 1    
   161   81  203 1    
   162   81  204 1    
   163   82   83 2    
   164   82   84 am   BACKBONE|DICT|INTERRES
   165   84   85 1    
   166   84  205 1    
   167   85   86 1    
   168   85   87 1    
   169   85  206 1    
   170   86  207 1    
   171   86  208 1    
   172   86  209 1    
   173   87   88 2    
   174   87   89 am   BACKBONE|DICT|INTERRES
   175   89   90 1    
   176   89  210 1    
   177   90   91 1    
   178   90   92 1    
   179   90  211 1    
   180   91  212 1    
   181   91  213 1    
   182   91  214 1    
   183   92   93 2    
   184   92   94 am   BACKBONE|DICT|INTERRES
   185   94   95 1    
   186   94  215 1    
   187   95   96 1    
   188   95   97 1    
   189   95  216 1    
   190   96  217 1    
   191   96  218 1    
   192   96  219 1    
   193   97   98 2    
   194   97   99 am   BACKBONE|DICT|INTERRES
   195   99  100 1    
   196   99  220 1    
   197  100  101 1    
   198  100  102 1    
   199  100  221 1    
   200  101  222 1    
   201  101  223 1    
   202  101  224 1    
   203  102  103 2    
   204  102  104 am   BACKBONE|DICT|INTERRES
   205  104  105 1    
   206  104  225 1    
   207  105  106 1    
   208  105  107 1    
   209  105  226 1    
   210  106  227 1    
   211  106  228 1    
   212  106  229 1    
   213  107  108 2    
   214  107  109 am   BACKBONE|DICT|INTERRES
   215  109  110 1    
   216  109  230 1    
   217  110  111 1    
   218  110  112 1    
   219  110  231 1    
   220  111  232 1    
   221  111  233 1    
   222  111  234 1    
   223  112  113 2    
   224  112  114 am   BACKBONE|DICT|INTERRES
   225  114  115 1    
   226  114  235 1    
   227  115  116 1    
   228  115  117 1    
   229  115  236 1    
   230  116  237 1    
   231  116  238 1    
   232  116  239 1    
   233  117  118 2    
   234  117  119 am   BACKBONE|DICT|INTERRES
   235  119  120 1    
   236  119  240 1    
   237  120  121 1    
   238  120  124 1    
   239  120  241 1    
   240  121  122 am   BACKBONE|DICT|INTERRES
   241  121  123 2    
   242  122  242 1    
   243  122  243 1    
   244  124  125 1    
   245  124  244 1    
   246  124  245 1    
   247  125  126 1    
   248  126  246 1    
   249  126  247 1    
@<TRIPOS>SUBSTRUCTURE
     1 UNK         1 GROUP             0       ****    0 ROOT    
