@<TRIPOS>MOLECULE
3R540
247   249    1
SMALL
USER_CHARGES


@<TRIPOS>ATOM
      1 CA         -1.0218  -14.2304  -49.7218 C.3       0 UNK        -0.1800 
      2 C           0.0162  -13.1774  -49.3593 C.2       0 UNK         0.5000 
      3 O          -0.0512  -12.0494  -49.8480 O.2       0 UNK        -0.5000 
      4 N           0.9795  -13.5505  -48.5101 N.am      1 UNK        -0.5000 
      5 CA          2.0514  -12.6893  -48.0028 C.3       1 UNK         0.1400 
      6 C6          3.1364  -13.4978  -47.2477 C.3       23 UNK        -0.0398 
      7 S7          4.0044  -14.6882  -48.3199 S.3       23 UNK        -0.2404 
      8 C8          3.0281  -16.2030  -48.0376 C.3       23 UNK        -0.0205 
      9 C9          2.8384  -17.0298  -49.3032 C.ar      23 UNK        -0.0193 
     10 C10         2.4856  -16.4249  -50.5162 C.ar      23 UNK        -0.1150 
     11 C11         2.3114  -17.1904  -51.6725 C.ar      23 UNK        -0.0193 
     12 C12         2.4749  -18.5758  -51.6049 C.ar      23 UNK        -0.1150 
     13 C13         2.8082  -19.1963  -50.3987 C.ar      23 UNK        -0.0193 
     14 C14         2.9930  -18.4180  -49.2524 C.ar      23 UNK        -0.1150 
     15 C15         2.9730  -20.7075  -50.3436 C.3       23 UNK        -0.0205 
     16 S16         1.3624  -21.5540  -50.3104 S.3       23 UNK        -0.2404 
     17 C17         0.7352  -21.0785  -48.6651 C.3       23 UNK        -0.0398 
     18 CA          0.2319  -22.2979  -47.8602 C.3       11 UNK         0.1400 
     19 N           0.3447  -22.0864  -46.4164 N.am      11 UNK        -0.5000 
     20 C           0.1770  -23.0430  -45.4934 C.2       10 UNK         0.5000 
     21 O          -0.0349  -24.2249  -45.7648 O.2       10 UNK        -0.5000 
     22 CA          0.1967  -22.5932  -44.0214 C.3       10 UNK         0.1400 
     23 CB          1.6384  -22.4723  -43.5068 C.3       10 UNK        -0.1800 
     24 N          -0.5133  -21.3290  -43.8145 N.am      10 UNK        -0.5000 
     25 C          -1.8263  -21.1599  -44.0284 C.2       9 UNK         0.5000 
     26 O          -2.5835  -22.0720  -44.3579 O.2       9 UNK        -0.5000 
     27 CA         -2.3826  -19.7309  -43.9010 C.3       9 UNK         0.1400 
     28 CB         -2.6595  -19.3844  -42.4310 C.3       9 UNK        -0.1800 
     29 N          -1.5038  -18.7203  -44.4915 N.am      9 UNK        -0.5000 
     30 C          -1.1823  -18.6460  -45.7913 C.2       8 UNK         0.5000 
     31 O          -1.6158  -19.4155  -46.6482 O.2       8 UNK        -0.5000 
     32 CA         -0.1571  -17.5676  -46.1915 C.3       8 UNK         0.1400 
     33 CB         -0.8132  -16.1806  -46.2790 C.3       8 UNK        -0.1800 
     34 N           0.9775  -17.5216  -45.2681 N.am      8 UNK        -0.5000 
     35 C           1.8465  -18.5285  -45.0947 C.2       7 UNK         0.5000 
     36 O           1.8269  -19.5701  -45.7500 O.2       7 UNK        -0.5000 
     37 CA          2.8738  -18.3656  -43.9631 C.3       7 UNK         0.1400 
     38 CB          4.0945  -17.5621  -44.4365 C.3       7 UNK        -0.1800 
     39 N           2.2814  -17.7301  -42.7852 N.am      7 UNK        -0.5000 
     40 C           1.4051  -18.3365  -41.9702 C.2       6 UNK         0.5000 
     41 O           1.0378  -19.5020  -42.1130 O.2       6 UNK        -0.5000 
     42 CA          0.8063  -17.4915  -40.8299 C.3       6 UNK         0.1400 
     43 CB          1.7245  -17.5177  -39.5992 C.3       6 UNK        -0.1800 
     44 N           0.5596  -16.1033  -41.2202 N.am      6 UNK        -0.5000 
     45 C          -0.3195  -15.7191  -42.1567 C.2       5 UNK         0.5000 
     46 O          -1.0615  -16.4973  -42.7530 O.2       5 UNK        -0.5000 
     47 CA         -0.3342  -14.2248  -42.5285 C.3       5 UNK         0.1400 
     48 CB         -1.3816  -13.4698  -41.6979 C.3       5 UNK        -0.1800 
     49 N           0.9685  -13.5765  -42.3657 N.am      5 UNK        -0.5000 
     50 C           2.0819  -13.8989  -43.0353 C.2       4 UNK         0.5000 
     51 O           2.1252  -14.7998  -43.8761 O.2       4 UNK        -0.5000 
     52 CA          3.3474  -13.0891  -42.6818 C.3       4 UNK         0.1400 
     53 CB          4.5772  -13.5232  -43.4982 C.3       4 UNK        -0.1800 
     54 N           3.1459  -11.6508  -42.8583 N.am      4 UNK        -0.5000 
     55 C           2.4840  -10.8285  -42.0360 C.2       3 UNK         0.5000 
     56 O           1.9656  -11.2031  -40.9831 O.2       3 UNK        -0.5000 
     57 CA          2.3355   -9.3557  -42.4724 C.3       3 UNK         0.1400 
     58 CB          3.6186   -8.5537  -42.1814 C.3       3 UNK        -0.1800 
     59 N           1.8850   -9.1775  -43.8621 N.am      3 UNK        -0.5000 
     60 C           2.5252   -9.4907  -44.9963 C.2       2 UNK         0.5000 
     61 O           3.6653   -9.9613  -45.0414 O.2       2 UNK        -0.5000 
     62 CA          1.7552   -9.2576  -46.3079 C.3       2 UNK         0.1400 
     63 CB          2.1948   -7.9425  -46.9688 C.3       2 UNK        -0.1800 
     64 N           1.9947  -10.3648  -47.2320 N.am      2 UNK        -0.5000 
     65 C           1.4880  -11.5943  -47.0763 C.2       1 UNK         0.5000 
     66 O           0.6514  -11.8886  -46.2186 O.2       1 UNK        -0.5000 
     67 C          -1.1998  -22.7025  -48.2684 C.2       11 UNK         0.5000 
     68 O          -1.3651  -23.6537  -49.0303 O.2       11 UNK        -0.5000 
     69 N          -2.2101  -22.0142  -47.7162 N.am      12 UNK        -0.5000 
     70 CA         -3.6276  -22.3300  -47.9015 C.3       12 UNK         0.1400 
     71 CB         -4.4966  -21.2399  -47.2590 C.3       12 UNK        -0.1800 
     72 C          -4.0025  -23.7244  -47.3701 C.2       12 UNK         0.5000 
     73 O          -4.7411  -24.4447  -48.0395 O.2       12 UNK        -0.5000 
     74 N          -3.4570  -24.1045  -46.2070 N.am      13 UNK        -0.5000 
     75 CA         -3.6041  -25.4396  -45.6271 C.3       13 UNK         0.1400 
     76 CB         -3.0196  -25.4601  -44.2069 C.3       13 UNK        -0.1800 
     77 C          -2.9719  -26.5353  -46.5062 C.2       13 UNK         0.5000 
     78 O          -3.6084  -27.5634  -46.7378 O.2       13 UNK        -0.5000 
     79 N          -1.7597  -26.2782  -47.0192 N.am      14 UNK        -0.5000 
     80 CA         -1.0389  -27.1612  -47.9405 C.3       14 UNK         0.1400 
     81 CB          0.3976  -26.6484  -48.1241 C.3       14 UNK        -0.1800 
     82 C          -1.7419  -27.3221  -49.3034 C.2       14 UNK         0.5000 
     83 O          -1.7580  -28.4244  -49.8519 O.2       14 UNK        -0.5000 
     84 N          -2.3358  -26.2324  -49.8084 N.am      15 UNK        -0.5000 
     85 CA         -3.1315  -26.1947  -51.0386 C.3       15 UNK         0.1400 
     86 CB         -3.2730  -24.7328  -51.4931 C.3       15 UNK        -0.1800 
     87 C          -4.5232  -26.8485  -50.9032 C.2       15 UNK         0.5000 
     88 O          -5.1723  -27.0770  -51.9245 O.2       15 UNK        -0.5000 
     89 N          -4.9500  -27.1325  -49.6629 N.am      16 UNK        -0.5000 
     90 CA         -6.2648  -27.6404  -49.2618 C.3       16 UNK         0.1400 
     91 CB         -6.5372  -29.0402  -49.8525 C.3       16 UNK        -0.1800 
     92 C          -7.3827  -26.6162  -49.5461 C.2       16 UNK         0.5000 
     93 O          -8.4005  -26.9515  -50.1557 O.2       16 UNK        -0.5000 
     94 N          -7.1522  -25.3827  -49.0762 N.am      17 UNK        -0.5000 
     95 CA         -7.9766  -24.1825  -49.2239 C.3       17 UNK         0.1400 
     96 CB         -9.3895  -24.3939  -48.6329 C.3       17 UNK        -0.1800 
     97 C          -7.9786  -23.6357  -50.6673 C.2       17 UNK         0.5000 
     98 O          -7.1076  -23.9905  -51.4654 O.2       17 UNK        -0.5000 
     99 N          -8.9374  -22.7408  -50.9497 N.am      18 UNK        -0.5000 
    100 CA        -9.1067  -21.9557  -52.1785 C.3       18 UNK         0.1400 
    101 CB        -9.2968  -22.8772  -53.4042 C.3       18 UNK        -0.1800 
    102 C         -7.9837  -20.9167  -52.3953 C.2       18 UNK         0.5000 
    103 O         -7.0666  -20.7911  -51.5799 O.2       18 UNK        -0.5000 
    104 N         -8.0902  -20.1616  -53.4960 N.am      19 UNK        -0.5000 
    105 CA        -7.1281  -19.1291  -53.8930 C.3       19 UNK         0.1400 
    106 CB        -7.8076  -18.1770  -54.8893 C.3       19 UNK        -0.1800 
    107 C         -5.8299  -19.6983  -54.4990 C.2       19 UNK         0.5000 
    108 O         -4.8559  -18.9570  -54.6319 O.2       19 UNK        -0.5000 
    109 N         -5.8313  -20.9924  -54.8520 N.am      20 UNK        -0.5000 
    110 CA        -4.7721  -21.7237  -55.5588 C.3       20 UNK         0.1400 
    111 CB        -5.2220  -23.1844  -55.7228 C.3       20 UNK        -0.1800 
    112 C         -3.3672  -21.6691  -54.9218 C.2       20 UNK         0.5000 
    113 O         -2.3829  -21.9213  -55.6178 O.2       20 UNK        -0.5000 
    114 N         -3.2943  -21.3391  -53.6265 N.am      21 UNK        -0.5000 
    115 CA        -2.0567  -21.1375  -52.8778 C.3       21 UNK         0.1400 
    116 CB        -2.4054  -20.9578  -51.3933 C.3       21 UNK        -0.1800 
    117 C         -1.2152  -19.9439  -53.3716 C.2       21 UNK         0.5000 
    118 O          0.0115  -20.0351  -53.3559 O.2       21 UNK        -0.5000 
    119 N         -1.8695  -18.8476  -53.7815 N.am      22 UNK        -0.5000 
    120 CA        -1.2017  -17.5732  -54.1038 C.3       22 UNK         0.1400 
    121 C         -1.9476  -16.6930  -55.1524 C.2       22 UNK         0.5000 
    122 N         -3.1694  -17.0023  -55.5650 N.am      22 UNK        -0.7600 
    123 O         -1.3926  -15.7167  -55.6480 O.2       22 UNK        -0.5000 
    124 C124       -0.8278  -16.8046  -52.8009 C.3       23 UNK        -0.0398 
    125 S125        0.4693  -15.5325  -52.9870 S.3       23 UNK        -0.2404 
    126 C126        1.9980  -16.5244  -53.0061 C.3       23 UNK        -0.0205 
    127 H127       -1.2776  -14.1606  -50.7790 H         1 UNK         0.0600 
    128 H128       -1.9306  -14.0783  -49.1397 H         1 UNK         0.0600 
    129 H129       -0.6541  -15.2394  -49.5316 H         1 UNK         0.0600 
    130 H130        0.9636  -14.4848  -48.1354 H         1 UNK         0.3000 
    131 H131        2.5197  -12.2065  -48.8635 H         1 UNK         0.0600 
    132 H132        3.8956  -12.8223  -46.8492 H         1 UNK         0.0800 
    133 H133        2.7135  -14.0179  -46.3862 H         1 UNK         0.0800 
    134 H134        3.5317  -16.7898  -47.2691 H         1 UNK         0.0800 
    135 H135        2.0445  -15.9617  -47.6395 H         1 UNK         0.0800 
    136 H136        2.3583  -15.3527  -50.5683 H         1 UNK         0.1150 
    137 H137        2.3429  -19.1785  -52.4925 H         1 UNK         0.1150 
    138 H138        3.2536  -18.8946  -48.3175 H         1 UNK         0.1150 
    139 H139        3.5286  -21.0427  -51.2206 H         1 UNK         0.0800 
    140 H140        3.5643  -21.0051  -49.4761 H         1 UNK         0.0800 
    141 H141       -0.0318  -20.3095  -48.7724 H         1 UNK         0.0800 
    142 H142        1.5506  -20.6042  -48.1216 H         1 UNK         0.0800 
    143 H143        0.8827  -23.1451  -48.0882 H         1 UNK         0.0600 
    144 H144        0.5587  -21.1435  -46.1089 H         1 UNK         0.3000 
    145 H145       -0.3100  -23.3609  -43.4331 H         1 UNK         0.0600 
    146 H146        1.6580  -22.2318  -42.4438 H         1 UNK         0.0600 
    147 H147        2.1795  -23.4101  -43.6380 H         1 UNK         0.0600 
    148 H148        2.1922  -21.6965  -44.0356 H         1 UNK         0.0600 
    149 H149        0.0370  -20.5457  -43.4766 H         1 UNK         0.3000 
    150 H150       -3.3314  -19.6963  -44.4398 H         1 UNK         0.0600 
    151 H151       -3.3363  -20.1108  -41.9794 H         1 UNK         0.0600 
    152 H152       -3.1263  -18.4036  -42.3384 H         1 UNK         0.0600 
    153 H153       -1.7439  -19.3765  -41.8398 H         1 UNK         0.0600 
    154 H154       -1.1490  -18.0069  -43.8594 H         1 UNK         0.3000 
    155 H155        0.2293  -17.8241  -47.1805 H         1 UNK         0.0600 
    156 H156       -1.3015  -15.9026  -45.3453 H         1 UNK         0.0600 
    157 H157       -1.5730  -16.1610  -47.0610 H         1 UNK         0.0600 
    158 H158       -0.0836  -15.4057  -46.5106 H         1 UNK         0.0600 
    159 H159        1.0724  -16.6971  -44.6887 H         1 UNK         0.3000 
    160 H160        3.2183  -19.3619  -43.6778 H         1 UNK         0.0600 
    161 H161        3.8209  -16.5637  -44.7770 H         1 UNK         0.0600 
    162 H162        4.5896  -18.0652  -45.2680 H         1 UNK         0.0600 
    163 H163        4.8297  -17.4543  -43.6390 H         1 UNK         0.0600 
    164 H164        2.4841  -16.7498  -42.6488 H         1 UNK         0.3000 
    165 H165       -0.1504  -17.9382  -40.5516 H         1 UNK         0.0600 
    166 H166        1.2742  -16.9876  -38.7598 H         1 UNK         0.0600 
    167 H167        1.9100  -18.5421  -39.2732 H         1 UNK         0.0600 
    168 H168        2.6919  -17.0589  -39.8070 H         1 UNK         0.0600 
    169 H169        1.1254  -15.3955  -40.7761 H         1 UNK         0.3000 
    170 H170       -0.6119  -14.1505  -43.5819 H         1 UNK         0.0600 
    171 H171       -2.3699  -13.9160  -41.8166 H         1 UNK         0.0600 
    172 H172       -1.1390  -13.4844  -40.6346 H         1 UNK         0.0600 
    173 H173       -1.4561  -12.4282  -42.0111 H         1 UNK         0.0600 
    174 H174        1.0263  -12.8126  -41.6998 H         1 UNK         0.3000 
    175 H175        3.5662  -13.2826  -41.6298 H         1 UNK         0.0600 
    176 H176        4.4348  -13.3501  -44.5642 H         1 UNK         0.0600 
    177 H177        5.4680  -12.9768  -43.1879 H         1 UNK         0.0600 
    178 H178        4.7858  -14.5849  -43.3611 H         1 UNK         0.0600 
    179 H179        3.5052  -11.2419  -43.7175 H         1 UNK         0.3000 
    180 H180        1.5440   -8.9296  -41.8538 H         1 UNK         0.0600 
    181 H181        4.4761   -8.9318  -42.7384 H         1 UNK         0.0600 
    182 H182        3.8740   -8.6036  -41.1222 H         1 UNK         0.0600 
    183 H183        3.4913   -7.5014  -42.4354 H         1 UNK         0.0600 
    184 H184        0.9433   -8.8200  -43.9476 H         1 UNK         0.3000 
    185 H185        0.6852   -9.2015  -46.0961 H         1 UNK         0.0600 
    186 H186        2.0083   -7.0937  -46.3096 H         1 UNK         0.0600 
    187 H187        3.2596   -7.9458  -47.2059 H         1 UNK         0.0600 
    188 H188        1.6453   -7.7624  -47.8930 H         1 UNK         0.0600 
    189 H189        2.7001  -10.2084  -47.9372 H         1 UNK         0.3000 
    190 H190       -1.9942  -21.2071  -47.1364 H         1 UNK         0.3000 
    191 H191       -3.8320  -22.3276  -48.9724 H         1 UNK         0.0600 
    192 H192       -4.3494  -21.1879  -46.1807 H         1 UNK         0.0600 
    193 H193       -5.5554  -21.4318  -47.4369 H         1 UNK         0.0600 
    194 H194       -4.2687  -20.2586  -47.6757 H         1 UNK         0.0600 
    195 H195       -2.9136  -23.4291  -45.6763 H         1 UNK         0.3000 
    196 H196       -4.6728  -25.6513  -45.5526 H         1 UNK         0.0600 
    197 H197       -3.1547  -26.4384  -43.7441 H         1 UNK         0.0600 
    198 H198       -3.5121  -24.7267  -43.5682 H         1 UNK         0.0600 
    199 H199       -1.9522  -25.2409  -44.2039 H         1 UNK         0.0600 
    200 H200       -1.2864  -25.4214  -46.7477 H         1 UNK         0.3000 
    201 H201       -0.9873  -28.1493  -47.4787 H         1 UNK         0.0600 
    202 H202        0.9237  -26.6003  -47.1706 H         1 UNK         0.0600 
    203 H203        0.4171  -25.6523  -48.5664 H         1 UNK         0.0600 
    204 H204        0.9677  -27.3093  -48.7781 H         1 UNK         0.0600 
    205 H205       -2.1985  -25.3433  -49.3340 H         1 UNK         0.3000 
    206 H206       -2.5889  -26.7403  -51.8132 H         1 UNK         0.0600 
    207 H207       -2.2982  -24.2691  -51.6449 H         1 UNK         0.0600 
    208 H208       -3.8165  -24.6626  -52.4363 H         1 UNK         0.0600 
    209 H209       -3.8188  -24.1401  -50.7584 H         1 UNK         0.0600 
    210 H210       -4.3326  -26.8902  -48.8989 H         1 UNK         0.3000 
    211 H211       -6.2237  -27.7515  -48.1772 H         1 UNK         0.0600 
    212 H212       -6.6583  -29.0129  -50.9355 H         1 UNK         0.0600 
    213 H213       -7.4509  -29.4645  -49.4353 H         1 UNK         0.0600 
    214 H214       -5.7245  -29.7292  -49.6223 H         1 UNK         0.0600 
    215 H215       -6.2387  -25.2013  -48.6619 H         1 UNK         0.3000 
    216 H216       -7.4813  -23.4209  -48.6198 H         1 UNK         0.0600 
    217 H217       -9.9104  -23.4459  -48.4969 H         1 UNK         0.0600 
    218 H218       -9.3385  -24.8687  -47.6529 H         1 UNK         0.0600 
    219 H219      -10.0097  -25.0201  -49.2750 H         1 UNK         0.0600 
    220 H220       -9.5804  -22.5045  -50.2076 H         1 UNK         0.3000 
    221 H221      -10.0288  -21.3889  -52.0420 H         1 UNK         0.0600 
    222 H222       -8.3689  -23.3722  -53.6922 H         1 UNK         0.0600 
    223 H223      -10.0379  -23.6509  -53.2029 H         1 UNK         0.0600 
    224 H224       -9.6492  -22.3186  -54.2715 H         1 UNK         0.0600 
    225 H225       -8.8784  -20.2993  -54.1125 H         1 UNK         0.3000 
    226 H226       -6.8479  -18.5518  -53.0093 H         1 UNK         0.0600 
    227 H227       -8.6919  -17.7133  -54.4518 H         1 UNK         0.0600 
    228 H228       -7.1333  -17.3713  -55.1835 H         1 UNK         0.0600 
    229 H229       -8.1142  -18.6963  -55.7982 H         1 UNK         0.0600 
    230 H230       -6.6776  -21.5121  -54.6761 H         1 UNK         0.3000 
    231 H231       -4.6849  -21.2788  -56.5518 H         1 UNK         0.0600 
    232 H232       -4.4799  -23.7660  -56.2714 H         1 UNK         0.0600 
    233 H233       -6.1578  -23.2508  -56.2782 H         1 UNK         0.0600 
    234 H234       -5.3694  -23.6684  -54.7561 H         1 UNK         0.0600 
    235 H235       -4.1577  -21.1521  -53.1381 H         1 UNK         0.3000 
    236 H236       -1.4480  -22.0384  -52.9800 H         1 UNK         0.0600 
    237 H237       -3.0720  -20.1098  -51.2320 H         1 UNK         0.0600 
    238 H238       -2.8919  -21.8480  -51.0002 H         1 UNK         0.0600 
    239 H239       -1.5098  -20.7878  -50.7966 H         1 UNK         0.0600 
    240 H240       -2.8809  -18.8595  -53.8279 H         1 UNK         0.3000 
    241 H241       -0.2708  -17.8332  -54.6104 H         1 UNK         0.0600 
    242 H242       -3.6005  -16.4127  -56.2586 H         1 UNK         0.3800 
    243 H243       -3.7009  -17.7902  -55.1990 H         1 UNK         0.3800 
    244 H244       -1.7161  -16.3296  -52.3822 H         1 UNK         0.0800 
    245 H245       -0.4851  -17.4993  -52.0331 H         1 UNK         0.0800 
    246 H246        2.8306  -15.8702  -53.2676 H         1 UNK         0.0800 
    247 H247        1.9328  -17.2646  -53.8048 H         1 UNK         0.0800 
@<TRIPOS>BOND
     1    1    2 1    
     2    1  127 1    
     3    1  128 1    
     4    1  129 1    
     5    2    3 2    
     6    2    4 am   BACKBONE|DICT|INTERRES
     7    4    5 1    
     8    4  130 1    
     9    5    6 1    
    10    5   65 1    
    11    5  131 1    
    12    6    7 1    
    13    6  132 1    
    14    6  133 1    
    15    7    8 1    
    16    8    9 1    
    17    8  134 1    
    18    8  135 1    
    19    9   10 ar   
    20    9   14 ar   
    21   10   11 ar   
    22   10  136 1    
    23   11   12 ar   
    24   11  126 1    
    25   12   13 ar   
    26   12  137 1    
    27   13   14 ar   
    28   13   15 1    
    29   14  138 1    
    30   15   16 1    
    31   15  139 1    
    32   15  140 1    
    33   16   17 1    
    34   17   18 1    
    35   17  141 1    
    36   17  142 1    
    37   18   19 1    
    38   18   67 1    
    39   18  143 1    
    40   19   20 am   BACKBONE|DICT|INTERRES
    41   19  144 1    
    42   20   21 2    
    43   20   22 1    
    44   22   23 1    
    45   22   24 1    
    46   22  145 1    
    47   23  146 1    
    48   23  147 1    
    49   23  148 1    
    50   24   25 am   BACKBONE|DICT|INTERRES
    51   24  149 1    
    52   25   26 2    
    53   25   27 1    
    54   27   28 1    
    55   27   29 1    
    56   27  150 1    
    57   28  151 1    
    58   28  152 1    
    59   28  153 1    
    60   29   30 am   BACKBONE|DICT|INTERRES
    61   29  154 1    
    62   30   31 2    
    63   30   32 1    
    64   32   33 1    
    65   32   34 1    
    66   32  155 1    
    67   33  156 1    
    68   33  157 1    
    69   33  158 1    
    70   34   35 am   BACKBONE|DICT|INTERRES
    71   34  159 1    
    72   35   36 2    
    73   35   37 1    
    74   37   38 1    
    75   37   39 1    
    76   37  160 1    
    77   38  161 1    
    78   38  162 1    
    79   38  163 1    
    80   39   40 am   BACKBONE|DICT|INTERRES
    81   39  164 1    
    82   40   41 2    
    83   40   42 1    
    84   42   43 1    
    85   42   44 1    
    86   42  165 1    
    87   43  166 1    
    88   43  167 1    
    89   43  168 1    
    90   44   45 am   BACKBONE|DICT|INTERRES
    91   44  169 1    
    92   45   46 2    
    93   45   47 1    
    94   47   48 1    
    95   47   49 1    
    96   47  170 1    
    97   48  171 1    
    98   48  172 1    
    99   48  173 1    
   100   49   50 am   BACKBONE|DICT|INTERRES
   101   49  174 1    
   102   50   51 2    
   103   50   52 1    
   104   52   53 1    
   105   52   54 1    
   106   52  175 1    
   107   53  176 1    
   108   53  177 1    
   109   53  178 1    
   110   54   55 am   BACKBONE|DICT|INTERRES
   111   54  179 1    
   112   55   56 2    
   113   55   57 1    
   114   57   58 1    
   115   57   59 1    
   116   57  180 1    
   117   58  181 1    
   118   58  182 1    
   119   58  183 1    
   120   59   60 am   BACKBONE|DICT|INTERRES
   121   59  184 1    
   122   60   61 2    
   123   60   62 1    
   124   62   63 1    
   125   62   64 1    
   126   62  185 1    
   127   63  186 1    
   128   63  187 1    
   129   63  188 1    
   130   64   65 am   BACKBONE|DICT|INTERRES
   131   64  189 1    
   132   65   66 2    
   133   67   68 2    
   134   67   69 am   BACKBONE|DICT|INTERRES
   135   69   70 1    
   136   69  190 1    
   137   70   71 1    
   138   70   72 1    
   139   70  191 1    
   140   71  192 1    
   141   71  193 1    
   142   71  194 1    
   143   72   73 2    
   144   72   74 am   BACKBONE|DICT|INTERRES
   145   74   75 1    
   146   74  195 1    
   147   75   76 1    
   148   75   77 1    
   149   75  196 1    
   150   76  197 1    
   151   76  198 1    
   152   76  199 1    
   153   77   78 2    
   154   77   79 am   BACKBONE|DICT|INTERRES
   155   79   80 1    
   156   79  200 1    
   157   80   81 1    
   158   80   82 1    
   159   80  201 1    
   160   81  202 1    
   161   81  203 1    
   162   81  204 1    
   163   82   83 2    
   164   82   84 am   BACKBONE|DICT|INTERRES
   165   84   85 1    
   166   84  205 1    
   167   85   86 1    
   168   85   87 1    
   169   85  206 1    
   170   86  207 1    
   171   86  208 1    
   172   86  209 1    
   173   87   88 2    
   174   87   89 am   BACKBONE|DICT|INTERRES
   175   89   90 1    
   176   89  210 1    
   177   90   91 1    
   178   90   92 1    
   179   90  211 1    
   180   91  212 1    
   181   91  213 1    
   182   91  214 1    
   183   92   93 2    
   184   92   94 am   BACKBONE|DICT|INTERRES
   185   94   95 1    
   186   94  215 1    
   187   95   96 1    
   188   95   97 1    
   189   95  216 1    
   190   96  217 1    
   191   96  218 1    
   192   96  219 1    
   193   97   98 2    
   194   97   99 am   BACKBONE|DICT|INTERRES
   195   99  100 1    
   196   99  220 1    
   197  100  101 1    
   198  100  102 1    
   199  100  221 1    
   200  101  222 1    
   201  101  223 1    
   202  101  224 1    
   203  102  103 2    
   204  102  104 am   BACKBONE|DICT|INTERRES
   205  104  105 1    
   206  104  225 1    
   207  105  106 1    
   208  105  107 1    
   209  105  226 1    
   210  106  227 1    
   211  106  228 1    
   212  106  229 1    
   213  107  108 2    
   214  107  109 am   BACKBONE|DICT|INTERRES
   215  109  110 1    
   216  109  230 1    
   217  110  111 1    
   218  110  112 1    
   219  110  231 1    
   220  111  232 1    
   221  111  233 1    
   222  111  234 1    
   223  112  113 2    
   224  112  114 am   BACKBONE|DICT|INTERRES
   225  114  115 1    
   226  114  235 1    
   227  115  116 1    
   228  115  117 1    
   229  115  236 1    
   230  116  237 1    
   231  116  238 1    
   232  116  239 1    
   233  117  118 2    
   234  117  119 am   BACKBONE|DICT|INTERRES
   235  119  120 1    
   236  119  240 1    
   237  120  121 1    
   238  120  124 1    
   239  120  241 1    
   240  121  122 am   BACKBONE|DICT|INTERRES
   241  121  123 2    
   242  122  242 1    
   243  122  243 1    
   244  124  125 1    
   245  124  244 1    
   246  124  245 1    
   247  125  126 1    
   248  126  246 1    
   249  126  247 1    
@<TRIPOS>SUBSTRUCTURE
     1 UNK         1 GROUP             0       ****    0 ROOT    
