@<TRIPOS>MOLECULE
3R540
247   249    1
SMALL
USER_CHARGES


@<TRIPOS>ATOM
      1 CA         -4.7670  -11.7049  -50.1525 C.3       0 UNK        -0.1800 
      2 C          -4.0872  -12.6600  -49.1816 C.2       0 UNK         0.5000 
      3 O          -4.5575  -12.8198  -48.0554 O.2       0 UNK        -0.5000 
      4 N          -2.9846  -13.2852  -49.6181 N.am      1 UNK        -0.5000 
      5 CA         -2.1673  -14.2468  -48.8638 C.3       1 UNK         0.1400 
      6 C6         -2.9090  -15.5671  -48.5047 C.3       23 UNK        -0.0398 
      7 S7         -3.5819  -16.5497  -49.8928 S.3       23 UNK        -0.2404 
      8 C8         -2.4136  -16.3249  -51.2806 C.3       23 UNK        -0.0205 
      9 C9         -0.9608  -16.7464  -51.0425 C.ar      23 UNK        -0.0193 
     10 C10         0.0022  -16.2871  -51.9461 C.ar      23 UNK        -0.1150 
     11 C11         1.3483  -16.6517  -51.8219 C.ar      23 UNK        -0.0193 
     12 C12         1.7278  -17.4656  -50.7525 C.ar      23 UNK        -0.1150 
     13 C13         0.7865  -17.9250  -49.8289 C.ar      23 UNK        -0.0193 
     14 C14        -0.5586  -17.5755  -49.9858 C.ar      23 UNK        -0.1150 
     15 C15         1.2419  -18.7683  -48.6474 C.3       23 UNK        -0.0205 
     16 S16         0.9038  -20.5408  -48.8826 S.3       23 UNK        -0.2404 
     17 C17        -0.7712  -20.6965  -48.1785 C.3       23 UNK        -0.0398 
     18 CA         -0.9403  -21.9975  -47.3577 C.3       11 UNK         0.1400 
     19 N          -0.1240  -22.0331  -46.1385 N.am      11 UNK        -0.5000 
     20 C           0.0491  -23.1249  -45.3784 C.2       10 UNK         0.5000 
     21 O          -0.4336  -24.2239  -45.6486 O.2       10 UNK        -0.5000 
     22 CA          0.8353  -22.9549  -44.0659 C.3       10 UNK         0.1400 
     23 CB          2.3498  -22.9222  -44.3197 C.3       10 UNK        -0.1800 
     24 N           0.4175  -21.7655  -43.3224 N.am      10 UNK        -0.5000 
     25 C          -0.7965  -21.6149  -42.7728 C.2       9 UNK         0.5000 
     26 O          -1.6669  -22.4849  -42.7979 O.2       9 UNK        -0.5000 
     27 CA         -1.1112  -20.2542  -42.1242 C.3       9 UNK         0.1400 
     28 CB         -0.6131  -20.2164  -40.6722 C.3       9 UNK        -0.1800 
     29 N          -0.5459  -19.1262  -42.8635 N.am      9 UNK        -0.5000 
     30 C          -0.8859  -18.7860  -44.1151 C.2       8 UNK         0.5000 
     31 O          -1.7544  -19.3602  -44.7720 O.2       8 UNK        -0.5000 
     32 CA         -0.0605  -17.6617  -44.7661 C.3       8 UNK         0.1400 
     33 CB         -0.5030  -16.2856  -44.2517 C.3       8 UNK        -0.1800 
     34 N           1.3792  -17.8369  -44.5531 N.am      8 UNK        -0.5000 
     35 C           2.0840  -18.9053  -44.9538 C.2       7 UNK         0.5000 
     36 O           1.6005  -19.8273  -45.6059 O.2       7 UNK        -0.5000 
     37 CA          3.5493  -19.0028  -44.4986 C.3       7 UNK         0.1400 
     38 CB          4.5216  -18.4575  -45.5542 C.3       7 UNK        -0.1800 
     39 N           3.7633  -18.3426  -43.2105 N.am      7 UNK        -0.5000 
     40 C           3.4071  -18.8947  -42.0420 C.2       6 UNK         0.5000 
     41 O           2.9036  -20.0147  -41.9429 O.2       6 UNK        -0.5000 
     42 CA          3.6186  -18.0437  -40.7786 C.3       6 UNK         0.1400 
     43 CB          5.1087  -17.9622  -40.4137 C.3       6 UNK        -0.1800 
     44 N           3.0750  -16.6915  -40.8984 N.am      6 UNK        -0.5000 
     45 C           1.7821  -16.3815  -41.0470 C.2       5 UNK         0.5000 
     46 O           0.8932  -17.2253  -41.1577 O.2       5 UNK        -0.5000 
     47 CA          1.4100  -14.8837  -41.0897 C.3       5 UNK         0.1400 
     48 CB          1.3781  -14.2764  -39.6743 C.3       5 UNK        -0.1800 
     49 N           2.2299  -14.0818  -42.0085 N.am      5 UNK        -0.5000 
     50 C           3.5388  -13.7976  -41.9435 C.2       4 UNK         0.5000 
     51 O           4.2608  -14.1317  -41.0019 O.2       4 UNK        -0.5000 
     52 CA          4.1512  -13.0405  -43.1447 C.3       4 UNK         0.1400 
     53 CB          5.6438  -13.3814  -43.3360 C.3       4 UNK        -0.1800 
     54 N           3.4450  -13.2078  -44.4245 N.am      4 UNK        -0.5000 
     55 C           3.1532  -14.3536  -45.0569 C.2       3 UNK         0.5000 
     56 O           3.2661  -15.4681  -44.5433 O.2       3 UNK        -0.5000 
     57 CA          2.6216  -14.2059  -46.4960 C.3       3 UNK         0.1400 
     58 CB          2.4236  -15.5507  -47.2179 C.3       3 UNK        -0.1800 
     59 N           1.3564  -13.4798  -46.5297 N.am      3 UNK        -0.5000 
     60 C           1.1962  -12.1524  -46.5429 C.2       2 UNK         0.5000 
     61 O           2.1361  -11.3642  -46.4221 O.2       2 UNK        -0.5000 
     62 CA         -0.2494  -11.6329  -46.7427 C.3       2 UNK         0.1400 
     63 CB         -0.2950  -10.1346  -47.0917 C.3       2 UNK        -0.1800 
     64 N          -0.9865  -12.3773  -47.7736 N.am      2 UNK        -0.5000 
     65 C          -1.5045  -13.6047  -47.6246 C.2       1 UNK         0.5000 
     66 O          -1.4268  -14.2325  -46.5685 O.2       1 UNK        -0.5000 
     67 C          -2.4311  -22.2588  -47.0672 C.2       11 UNK         0.5000 
     68 O          -3.0916  -22.9010  -47.8838 O.2       11 UNK        -0.5000 
     69 N          -2.9384  -21.7837  -45.9215 N.am      12 UNK        -0.5000 
     70 CA         -4.2932  -22.0670  -45.4472 C.3       12 UNK         0.1400 
     71 CB         -4.6380  -21.1538  -44.2619 C.3       12 UNK        -0.1800 
     72 C          -4.4864  -23.5511  -45.0898 C.2       12 UNK         0.5000 
     73 O          -5.4718  -24.1505  -45.5200 O.2       12 UNK        -0.5000 
     74 N          -3.5255  -24.1274  -44.3534 N.am      13 UNK        -0.5000 
     75 CA         -3.5058  -25.5399  -43.9647 C.3       13 UNK         0.1400 
     76 CB         -2.3736  -25.7758  -42.9535 C.3       13 UNK        -0.1800 
     77 C          -3.3732  -26.4974  -45.1646 C.2       13 UNK         0.5000 
     78 O          -4.0383  -27.5334  -45.1933 O.2       13 UNK        -0.5000 
     79 N          -2.5390  -26.1221  -46.1432 N.am      14 UNK        -0.5000 
     80 CA         -2.3236  -26.8583  -47.3912 C.3       14 UNK         0.1400 
     81 CB         -1.0042  -26.3804  -48.0195 C.3       14 UNK        -0.1800 
     82 C          -3.4737  -26.7097  -48.4083 C.2       14 UNK         0.5000 
     83 O          -3.5000  -27.4522  -49.3900 O.2       14 UNK        -0.5000 
     84 N          -4.3677  -25.7345  -48.1832 N.am      15 UNK        -0.5000 
     85 CA         -5.4579  -25.2864  -49.0602 C.3       15 UNK         0.1400 
     86 CB         -6.4701  -26.4157  -49.3392 C.3       15 UNK        -0.1800 
     87 C          -4.9694  -24.5932  -50.3516 C.2       15 UNK         0.5000 
     88 O          -5.7638  -24.3599  -51.2632 O.2       15 UNK        -0.5000 
     89 N          -3.6871  -24.2087  -50.3855 N.am      16 UNK        -0.5000 
     90 CA         -3.0673  -23.4053  -51.4370 C.3       16 UNK         0.1400 
     91 CB         -1.5469  -23.3815  -51.2211 C.3       16 UNK        -0.1800 
     92 C          -3.6360  -21.9766  -51.4750 C.2       16 UNK         0.5000 
     93 O          -3.7984  -21.4180  -52.5585 O.2       16 UNK        -0.5000 
     94 N          -3.9809  -21.4367  -50.2965 N.am      17 UNK        -0.5000 
     95 CA         -4.6527  -20.1460  -50.1445 C.3       17 UNK         0.1400 
     96 CB         -4.6583  -19.7414  -48.6631 C.3       17 UNK        -0.1800 
     97 C          -6.0885  -20.1653  -50.6997 C.2       17 UNK         0.5000 
     98 O          -6.5094  -19.1960  -51.3296 O.2       17 UNK        -0.5000 
     99 N          -6.7993  -21.2838  -50.4902 N.am      18 UNK        -0.5000 
    100 CA        -8.1492  -21.5210  -51.0084 C.3       18 UNK         0.1400 
    101 CB        -8.7718  -22.7278  -50.2895 C.3       18 UNK        -0.1800 
    102 C         -8.1596  -21.7209  -52.5353 C.2       18 UNK         0.5000 
    103 O         -9.0772  -21.2479  -53.2062 O.2       18 UNK        -0.5000 
    104 N         -7.1149  -22.3778  -53.0583 N.am      19 UNK        -0.5000 
    105 CA        -6.8493  -22.5329  -54.4905 C.3       19 UNK         0.1400 
    106 CB        -5.8190  -23.6578  -54.6788 C.3       19 UNK        -0.1800 
    107 C         -6.3565  -21.2360  -55.1698 C.2       19 UNK         0.5000 
    108 O         -6.3408  -21.1746  -56.3998 O.2       19 UNK        -0.5000 
    109 N         -5.9537  -20.2414  -54.3641 N.am      20 UNK        -0.5000 
    110 CA        -5.3616  -18.9543  -54.7412 C.3       20 UNK         0.1400 
    111 CB        -6.3716  -18.0858  -55.5196 C.3       20 UNK        -0.1800 
    112 C         -4.0040  -19.1087  -55.4597 C.2       20 UNK         0.5000 
    113 O         -3.6899  -18.3388  -56.3701 O.2       20 UNK        -0.5000 
    114 N         -3.2212  -20.1069  -55.0333 N.am      21 UNK        -0.5000 
    115 CA        -1.8599  -20.3574  -55.4953 C.3       21 UNK         0.1400 
    116 CB        -1.5136  -21.8294  -55.2236 C.3       21 UNK        -0.1800 
    117 C         -0.8630  -19.4198  -54.7902 C.2       21 UNK         0.5000 
    118 O         -1.1316  -18.9565  -53.6808 O.2       21 UNK        -0.5000 
    119 N          0.2766  -19.1743  -55.4436 N.am      22 UNK        -0.5000 
    120 CA         1.3560  -18.2925  -54.9681 C.3       22 UNK         0.1400 
    121 C          2.7617  -18.7910  -55.4225 C.2       22 UNK         0.5000 
    122 N          2.9343  -20.0687  -55.7429 N.am      22 UNK        -0.7600 
    123 O          3.7176  -18.0244  -55.4887 O.2       22 UNK        -0.5000 
    124 C124        1.0599  -16.8073  -55.3358 C.3       23 UNK        -0.0398 
    125 S125        1.8546  -15.4593  -54.3742 S.3       23 UNK        -0.2404 
    126 C126        2.4329  -16.1873  -52.7971 C.3       23 UNK        -0.0205 
    127 H127       -4.2491  -11.6624  -51.1109 H         1 UNK         0.0600 
    128 H128       -4.7910  -10.6987  -49.7340 H         1 UNK         0.0600 
    129 H129       -5.7931  -12.0240  -50.3352 H         1 UNK         0.0600 
    130 H130       -2.6622  -13.0911  -50.5554 H         1 UNK         0.3000 
    131 H131       -1.3281  -14.4996  -49.5106 H         1 UNK         0.0600 
    132 H132       -2.2411  -16.2331  -47.9565 H         1 UNK         0.0800 
    133 H133       -3.7329  -15.3612  -47.8201 H         1 UNK         0.0800 
    134 H134       -2.4490  -15.2828  -51.5991 H         1 UNK         0.0800 
    135 H135       -2.7886  -16.9074  -52.1235 H         1 UNK         0.0800 
    136 H136       -0.3150  -15.6513  -52.7591 H         1 UNK         0.1150 
    137 H137        2.7670  -17.7399  -50.6351 H         1 UNK         0.1150 
    138 H138       -1.2829  -17.9538  -49.2810 H         1 UNK         0.1150 
    139 H139        0.7702  -18.4055  -47.7371 H         1 UNK         0.0800 
    140 H140        2.3143  -18.6448  -48.4890 H         1 UNK         0.0800 
    141 H141       -1.4676  -20.6691  -49.0184 H         1 UNK         0.0800 
    142 H142       -1.0057  -19.8310  -47.5569 H         1 UNK         0.0800 
    143 H143       -0.6026  -22.8270  -47.9819 H         1 UNK         0.0600 
    144 H144        0.3580  -21.1734  -45.8833 H         1 UNK         0.3000 
    145 H145        0.6244  -23.8238  -43.4390 H         1 UNK         0.0600 
    146 H146        2.6873  -23.8651  -44.7512 H         1 UNK         0.0600 
    147 H147        2.9041  -22.7706  -43.3932 H         1 UNK         0.0600 
    148 H148        2.6323  -22.1321  -45.0138 H         1 UNK         0.0600 
    149 H149        1.0808  -21.0055  -43.2562 H         1 UNK         0.3000 
    150 H150       -2.1963  -20.1347  -42.1142 H         1 UNK         0.0600 
    151 H151        0.4735  -20.2919  -40.6173 H         1 UNK         0.0600 
    152 H152       -1.0311  -21.0409  -40.0933 H         1 UNK         0.0600 
    153 H153       -0.9078  -19.2898  -40.1793 H         1 UNK         0.0600 
    154 H154        0.1502  -18.5691  -42.3762 H         1 UNK         0.3000 
    155 H155       -0.2466  -17.6904  -45.8400 H         1 UNK         0.0600 
    156 H156        0.1173  -15.4882  -44.6591 H         1 UNK         0.0600 
    157 H157       -0.4617  -16.2234  -43.1665 H         1 UNK         0.0600 
    158 H158       -1.5333  -16.0807  -44.5445 H         1 UNK         0.0600 
    159 H159        1.8726  -17.0983  -44.0683 H         1 UNK         0.3000 
    160 H160        3.7744  -20.0651  -44.3837 H         1 UNK         0.0600 
    161 H161        4.4534  -17.3780  -45.6611 H         1 UNK         0.0600 
    162 H162        4.3244  -18.8984  -46.5323 H         1 UNK         0.0600 
    163 H163        5.5523  -18.6968  -45.2929 H         1 UNK         0.0600 
    164 H164        4.1137  -17.3942  -43.2320 H         1 UNK         0.3000 
    165 H165        3.0956  -18.5388  -39.9577 H         1 UNK         0.0600 
    166 H166        5.5424  -18.9582  -40.3145 H         1 UNK         0.0600 
    167 H167        5.6819  -17.4267  -41.1716 H         1 UNK         0.0600 
    168 H168        5.2527  -17.4494  -39.4625 H         1 UNK         0.0600 
    169 H169        3.7305  -15.9170  -40.8325 H         1 UNK         0.3000 
    170 H170        0.3938  -14.8250  -41.4808 H         1 UNK         0.0600 
    171 H171        1.0595  -13.2344  -39.7001 H         1 UNK         0.0600 
    172 H172        2.3517  -14.3176  -39.1858 H         1 UNK         0.0600 
    173 H173        0.6749  -14.8155  -39.0384 H         1 UNK         0.0600 
    174 H174        1.7548  -13.7828  -42.8479 H         1 UNK         0.3000 
    175 H175        4.0825  -11.9808  -42.8955 H         1 UNK         0.0600 
    176 H176        5.7901  -14.4433  -43.5377 H         1 UNK         0.0600 
    177 H177        6.2248  -13.1326  -42.4471 H         1 UNK         0.0600 
    178 H178        6.0734  -12.8206  -44.1661 H         1 UNK         0.0600 
    179 H179        3.2409  -12.3500  -44.9269 H         1 UNK         0.3000 
    180 H180        3.3697  -13.6422  -47.0575 H         1 UNK         0.0600 
    181 H181        1.6762  -16.1692  -46.7239 H         1 UNK         0.0600 
    182 H182        3.3535  -16.1167  -47.2598 H         1 UNK         0.0600 
    183 H183        2.0967  -15.3990  -48.2469 H         1 UNK         0.0600 
    184 H184        0.5116  -14.0410  -46.5583 H         1 UNK         0.3000 
    185 H185       -0.7641  -11.7639  -45.7886 H         1 UNK         0.0600 
    186 H186        0.1763   -9.5343  -46.3124 H         1 UNK         0.0600 
    187 H187        0.2226   -9.9244  -48.0284 H         1 UNK         0.0600 
    188 H188       -1.3226   -9.7837  -47.1895 H         1 UNK         0.0600 
    189 H189       -1.0684  -11.9294  -48.6747 H         1 UNK         0.3000 
    190 H190       -2.3612  -21.1886  -45.3357 H         1 UNK         0.3000 
    191 H191       -4.9895  -21.8375  -46.2543 H         1 UNK         0.0600 
    192 H192       -4.5507  -20.1026  -44.5374 H         1 UNK         0.0600 
    193 H193       -5.6632  -21.3193  -43.9287 H         1 UNK         0.0600 
    194 H194       -3.9846  -21.3306  -43.4085 H         1 UNK         0.0600 
    195 H195       -2.7639  -23.5516  -44.0051 H         1 UNK         0.3000 
    196 H196       -4.4534  -25.7611  -43.4693 H         1 UNK         0.0600 
    197 H197       -2.3477  -26.8173  -42.6305 H         1 UNK         0.0600 
    198 H198       -2.5073  -25.1618  -42.0627 H         1 UNK         0.0600 
    199 H199       -1.3980  -25.5383  -43.3787 H         1 UNK         0.0600 
    200 H200       -1.9664  -25.2930  -46.0024 H         1 UNK         0.3000 
    201 H201       -2.2270  -27.9203  -47.1568 H         1 UNK         0.0600 
    202 H202       -0.7811  -26.9297  -48.9350 H         1 UNK         0.0600 
    203 H203       -0.1661  -26.5318  -47.3390 H         1 UNK         0.0600 
    204 H204       -1.0416  -25.3203  -48.2730 H         1 UNK         0.0600 
    205 H205       -4.2415  -25.1795  -47.3466 H         1 UNK         0.3000 
    206 H206       -5.9832  -24.5149  -48.4955 H         1 UNK         0.0600 
    207 H207       -6.7968  -26.8895  -48.4137 H         1 UNK         0.0600 
    208 H208       -7.3601  -26.0276  -49.8356 H         1 UNK         0.0600 
    209 H209       -6.0522  -27.1882  -49.9848 H         1 UNK         0.0600 
    210 H210       -3.1421  -24.3524  -49.5463 H         1 UNK         0.3000 
    211 H211       -3.2742  -23.8784  -52.3987 H         1 UNK         0.0600 
    212 H212       -1.1281  -24.3873  -51.2579 H         1 UNK         0.0600 
    213 H213       -1.0471  -22.7924  -51.9900 H         1 UNK         0.0600 
    214 H214       -1.2839  -22.9450  -50.2586 H         1 UNK         0.0600 
    215 H215       -3.8083  -21.9745  -49.4530 H         1 UNK         0.3000 
    216 H216       -4.0850  -19.4016  -50.7066 H         1 UNK         0.0600 
    217 H217       -5.1845  -20.4729  -48.0521 H         1 UNK         0.0600 
    218 H218       -5.1592  -18.7830  -48.5222 H         1 UNK         0.0600 
    219 H219       -3.6465  -19.6350  -48.2735 H         1 UNK         0.0600 
    220 H220       -6.3660  -22.0439  -49.9895 H         1 UNK         0.3000 
    221 H221       -8.7581  -20.6426  -50.7838 H         1 UNK         0.0600 
    222 H222       -8.2180  -23.6465  -50.4817 H         1 UNK         0.0600 
    223 H223       -8.8020  -22.5729  -49.2108 H         1 UNK         0.0600 
    224 H224       -9.7975  -22.8904  -50.6227 H         1 UNK         0.0600 
    225 H225       -6.4486  -22.8088  -52.4265 H         1 UNK         0.3000 
    226 H226       -7.7770  -22.8312  -54.9830 H         1 UNK         0.0600 
    227 H227       -6.1611  -24.5883  -54.2252 H         1 UNK         0.0600 
    228 H228       -5.6448  -23.8561  -55.7371 H         1 UNK         0.0600 
    229 H229       -4.8585  -23.4003  -54.2322 H         1 UNK         0.0600 
    230 H230       -5.9855  -20.4184  -53.3695 H         1 UNK         0.3000 
    231 H231       -5.1444  -18.4406  -53.8035 H         1 UNK         0.0600 
    232 H232       -6.5901  -18.4994  -56.5043 H         1 UNK         0.0600 
    233 H233       -5.9851  -17.0769  -55.6681 H         1 UNK         0.0600 
    234 H234       -7.3123  -17.9950  -54.9764 H         1 UNK         0.0600 
    235 H235       -3.5177  -20.6346  -54.2150 H         1 UNK         0.3000 
    236 H236       -1.8110  -20.1808  -56.5719 H         1 UNK         0.0600 
    237 H237       -1.5421  -22.0556  -54.1583 H         1 UNK         0.0600 
    238 H238       -2.2141  -22.4977  -55.7248 H         1 UNK         0.0600 
    239 H239       -0.5144  -22.0732  -55.5858 H         1 UNK         0.0600 
    240 H240        0.4277  -19.5891  -56.3527 H         1 UNK         0.3000 
    241 H241        1.3748  -18.3902  -53.8843 H         1 UNK         0.0600 
    242 H242        2.1894  -20.7400  -55.6462 H         1 UNK         0.3800 
    243 H243        3.8474  -20.3800  -56.0366 H         1 UNK         0.3800 
    244 H244        1.2757  -16.6388  -56.3919 H         1 UNK         0.0800 
    245 H245       -0.0112  -16.6256  -55.2368 H         1 UNK         0.0800 
    246 H246        3.1198  -17.0068  -53.0098 H         1 UNK         0.0800 
    247 H247        3.0283  -15.4290  -52.2871 H         1 UNK         0.0800 
@<TRIPOS>BOND
     1    1    2 1    
     2    1  127 1    
     3    1  128 1    
     4    1  129 1    
     5    2    3 2    
     6    2    4 am   BACKBONE|DICT|INTERRES
     7    4    5 1    
     8    4  130 1    
     9    5    6 1    
    10    5   65 1    
    11    5  131 1    
    12    6    7 1    
    13    6  132 1    
    14    6  133 1    
    15    7    8 1    
    16    8    9 1    
    17    8  134 1    
    18    8  135 1    
    19    9   10 ar   
    20    9   14 ar   
    21   10   11 ar   
    22   10  136 1    
    23   11   12 ar   
    24   11  126 1    
    25   12   13 ar   
    26   12  137 1    
    27   13   14 ar   
    28   13   15 1    
    29   14  138 1    
    30   15   16 1    
    31   15  139 1    
    32   15  140 1    
    33   16   17 1    
    34   17   18 1    
    35   17  141 1    
    36   17  142 1    
    37   18   19 1    
    38   18   67 1    
    39   18  143 1    
    40   19   20 am   BACKBONE|DICT|INTERRES
    41   19  144 1    
    42   20   21 2    
    43   20   22 1    
    44   22   23 1    
    45   22   24 1    
    46   22  145 1    
    47   23  146 1    
    48   23  147 1    
    49   23  148 1    
    50   24   25 am   BACKBONE|DICT|INTERRES
    51   24  149 1    
    52   25   26 2    
    53   25   27 1    
    54   27   28 1    
    55   27   29 1    
    56   27  150 1    
    57   28  151 1    
    58   28  152 1    
    59   28  153 1    
    60   29   30 am   BACKBONE|DICT|INTERRES
    61   29  154 1    
    62   30   31 2    
    63   30   32 1    
    64   32   33 1    
    65   32   34 1    
    66   32  155 1    
    67   33  156 1    
    68   33  157 1    
    69   33  158 1    
    70   34   35 am   BACKBONE|DICT|INTERRES
    71   34  159 1    
    72   35   36 2    
    73   35   37 1    
    74   37   38 1    
    75   37   39 1    
    76   37  160 1    
    77   38  161 1    
    78   38  162 1    
    79   38  163 1    
    80   39   40 am   BACKBONE|DICT|INTERRES
    81   39  164 1    
    82   40   41 2    
    83   40   42 1    
    84   42   43 1    
    85   42   44 1    
    86   42  165 1    
    87   43  166 1    
    88   43  167 1    
    89   43  168 1    
    90   44   45 am   BACKBONE|DICT|INTERRES
    91   44  169 1    
    92   45   46 2    
    93   45   47 1    
    94   47   48 1    
    95   47   49 1    
    96   47  170 1    
    97   48  171 1    
    98   48  172 1    
    99   48  173 1    
   100   49   50 am   BACKBONE|DICT|INTERRES
   101   49  174 1    
   102   50   51 2    
   103   50   52 1    
   104   52   53 1    
   105   52   54 1    
   106   52  175 1    
   107   53  176 1    
   108   53  177 1    
   109   53  178 1    
   110   54   55 am   BACKBONE|DICT|INTERRES
   111   54  179 1    
   112   55   56 2    
   113   55   57 1    
   114   57   58 1    
   115   57   59 1    
   116   57  180 1    
   117   58  181 1    
   118   58  182 1    
   119   58  183 1    
   120   59   60 am   BACKBONE|DICT|INTERRES
   121   59  184 1    
   122   60   61 2    
   123   60   62 1    
   124   62   63 1    
   125   62   64 1    
   126   62  185 1    
   127   63  186 1    
   128   63  187 1    
   129   63  188 1    
   130   64   65 am   BACKBONE|DICT|INTERRES
   131   64  189 1    
   132   65   66 2    
   133   67   68 2    
   134   67   69 am   BACKBONE|DICT|INTERRES
   135   69   70 1    
   136   69  190 1    
   137   70   71 1    
   138   70   72 1    
   139   70  191 1    
   140   71  192 1    
   141   71  193 1    
   142   71  194 1    
   143   72   73 2    
   144   72   74 am   BACKBONE|DICT|INTERRES
   145   74   75 1    
   146   74  195 1    
   147   75   76 1    
   148   75   77 1    
   149   75  196 1    
   150   76  197 1    
   151   76  198 1    
   152   76  199 1    
   153   77   78 2    
   154   77   79 am   BACKBONE|DICT|INTERRES
   155   79   80 1    
   156   79  200 1    
   157   80   81 1    
   158   80   82 1    
   159   80  201 1    
   160   81  202 1    
   161   81  203 1    
   162   81  204 1    
   163   82   83 2    
   164   82   84 am   BACKBONE|DICT|INTERRES
   165   84   85 1    
   166   84  205 1    
   167   85   86 1    
   168   85   87 1    
   169   85  206 1    
   170   86  207 1    
   171   86  208 1    
   172   86  209 1    
   173   87   88 2    
   174   87   89 am   BACKBONE|DICT|INTERRES
   175   89   90 1    
   176   89  210 1    
   177   90   91 1    
   178   90   92 1    
   179   90  211 1    
   180   91  212 1    
   181   91  213 1    
   182   91  214 1    
   183   92   93 2    
   184   92   94 am   BACKBONE|DICT|INTERRES
   185   94   95 1    
   186   94  215 1    
   187   95   96 1    
   188   95   97 1    
   189   95  216 1    
   190   96  217 1    
   191   96  218 1    
   192   96  219 1    
   193   97   98 2    
   194   97   99 am   BACKBONE|DICT|INTERRES
   195   99  100 1    
   196   99  220 1    
   197  100  101 1    
   198  100  102 1    
   199  100  221 1    
   200  101  222 1    
   201  101  223 1    
   202  101  224 1    
   203  102  103 2    
   204  102  104 am   BACKBONE|DICT|INTERRES
   205  104  105 1    
   206  104  225 1    
   207  105  106 1    
   208  105  107 1    
   209  105  226 1    
   210  106  227 1    
   211  106  228 1    
   212  106  229 1    
   213  107  108 2    
   214  107  109 am   BACKBONE|DICT|INTERRES
   215  109  110 1    
   216  109  230 1    
   217  110  111 1    
   218  110  112 1    
   219  110  231 1    
   220  111  232 1    
   221  111  233 1    
   222  111  234 1    
   223  112  113 2    
   224  112  114 am   BACKBONE|DICT|INTERRES
   225  114  115 1    
   226  114  235 1    
   227  115  116 1    
   228  115  117 1    
   229  115  236 1    
   230  116  237 1    
   231  116  238 1    
   232  116  239 1    
   233  117  118 2    
   234  117  119 am   BACKBONE|DICT|INTERRES
   235  119  120 1    
   236  119  240 1    
   237  120  121 1    
   238  120  124 1    
   239  120  241 1    
   240  121  122 am   BACKBONE|DICT|INTERRES
   241  121  123 2    
   242  122  242 1    
   243  122  243 1    
   244  124  125 1    
   245  124  244 1    
   246  124  245 1    
   247  125  126 1    
   248  126  246 1    
   249  126  247 1    
@<TRIPOS>SUBSTRUCTURE
     1 UNK         1 GROUP             0       ****    0 ROOT    
