@<TRIPOS>MOLECULE
3R540
247   249    1
SMALL
USER_CHARGES


@<TRIPOS>ATOM
      1 CA         -5.4134  -11.9824  -48.8297 C.3       0 UNK        -0.1800 
      2 C          -4.3693  -12.8107  -49.5659 C.2       0 UNK         0.5000 
      3 O          -4.3406  -12.8043  -50.7970 O.2       0 UNK        -0.5000 
      4 N          -3.5183  -13.5223  -48.8171 N.am      1 UNK        -0.5000 
      5 CA         -2.4271  -14.3452  -49.3458 C.3       1 UNK         0.1400 
      6 C6         -1.9835  -15.4207  -48.3165 C.3       23 UNK        -0.0398 
      7 S7         -1.4563  -16.9885  -49.0950 S.3       23 UNK        -0.2404 
      8 C8          0.3327  -17.0126  -48.7472 C.3       23 UNK        -0.0205 
      9 C9          1.0641  -18.1538  -49.4434 C.ar      23 UNK        -0.0193 
     10 C10         0.9144  -18.3667  -50.8196 C.ar      23 UNK        -0.1150 
     11 C11         1.6059  -19.3981  -51.4622 C.ar      23 UNK        -0.0193 
     12 C12         2.4762  -20.2008  -50.7209 C.ar      23 UNK        -0.1150 
     13 C13         2.6439  -19.9965  -49.3506 C.ar      23 UNK        -0.0193 
     14 C14         1.9355  -18.9713  -48.7157 C.ar      23 UNK        -0.1150 
     15 C15         3.6012  -20.8847  -48.5714 C.3       23 UNK        -0.0205 
     16 S16         2.8110  -22.4457  -48.0715 S.3       23 UNK        -0.2404 
     17 C17         1.7863  -21.8505  -46.6905 C.3       23 UNK        -0.0398 
     18 CA          1.0405  -22.9789  -45.9342 C.3       11 UNK         0.1400 
     19 N           0.9225  -22.6379  -44.5145 N.am      11 UNK        -0.5000 
     20 C           0.8807  -23.4959  -43.4897 C.2       10 UNK         0.5000 
     21 O           0.8954  -24.7198  -43.6183 O.2       10 UNK        -0.5000 
     22 CA          0.7752  -22.8674  -42.0874 C.3       10 UNK         0.1400 
     23 CB          2.1604  -22.4521  -41.5685 C.3       10 UNK        -0.1800 
     24 N          -0.1161  -21.7052  -42.0726 N.am      10 UNK        -0.5000 
     25 C          -1.4516  -21.7840  -42.1520 C.2       9 UNK         0.5000 
     26 O          -2.0669  -22.8489  -42.1933 O.2       9 UNK        -0.5000 
     27 CA         -2.2314  -20.4578  -42.2128 C.3       9 UNK         0.1400 
     28 CB         -2.4794  -19.9150  -40.7976 C.3       9 UNK        -0.1800 
     29 N          -1.5558  -19.4377  -43.0144 N.am      9 UNK        -0.5000 
     30 C          -1.4013  -19.4921  -44.3449 C.2       8 UNK         0.5000 
     31 O          -1.8713  -20.3803  -45.0532 O.2       8 UNK        -0.5000 
     32 CA         -0.5550  -18.3826  -44.9951 C.3       8 UNK         0.1400 
     33 CB         -1.4251  -17.1612  -45.3091 C.3       8 UNK        -0.1800 
     34 N           0.5819  -17.9587  -44.1789 N.am      8 UNK        -0.5000 
     35 C           1.5927  -18.7486  -43.7956 C.2       7 UNK         0.5000 
     36 O           1.6699  -19.9424  -44.0748 O.2       7 UNK        -0.5000 
     37 CA          2.6688  -18.1085  -42.9072 C.3       7 UNK         0.1400 
     38 CB          3.6377  -17.2542  -43.7406 C.3       7 UNK        -0.1800 
     39 N           2.0642  -17.2964  -41.8536 N.am      7 UNK        -0.5000 
     40 C           1.4276  -17.8014  -40.7873 C.2       6 UNK         0.5000 
     41 O           1.3386  -19.0066  -40.5497 O.2       6 UNK        -0.5000 
     42 CA          0.7458  -16.7877  -39.8492 C.3       6 UNK         0.1400 
     43 CB          1.7525  -16.2269  -38.8335 C.3       6 UNK        -0.1800 
     44 N           0.1182  -15.6792  -40.5720 N.am      6 UNK        -0.5000 
     45 C          -0.9374  -15.8125  -41.3871 C.2       5 UNK         0.5000 
     46 O          -1.5067  -16.8825  -41.5967 O.2       5 UNK        -0.5000 
     47 CA         -1.4113  -14.5477  -42.1273 C.3       5 UNK         0.1400 
     48 CB         -2.3994  -13.7555  -41.2584 C.3       5 UNK        -0.1800 
     49 N          -0.3292  -13.6592  -42.5647 N.am      5 UNK        -0.5000 
     50 C           0.6831  -14.0140  -43.3671 C.2       4 UNK         0.5000 
     51 O           0.8848  -15.1699  -43.7444 O.2       4 UNK        -0.5000 
     52 CA          1.6561  -12.8933  -43.7801 C.3       4 UNK         0.1400 
     53 CB          2.7495  -12.7291  -42.7130 C.3       4 UNK        -0.1800 
     54 N           2.2981  -13.1443  -45.0733 N.am      4 UNK        -0.5000 
     55 C           1.6576  -13.2921  -46.2403 C.2       3 UNK         0.5000 
     56 O           0.4345  -13.1838  -46.3753 O.2       3 UNK        -0.5000 
     57 CA          2.5339  -13.6227  -47.4596 C.3       3 UNK         0.1400 
     58 CB          3.2173  -14.9960  -47.3057 C.3       3 UNK        -0.1800 
     59 N           1.6833  -13.6258  -48.6432 N.am      3 UNK        -0.5000 
     60 C           2.0534  -13.4057  -49.9086 C.2       2 UNK         0.5000 
     61 O           3.2135  -13.1481  -50.2326 O.2       2 UNK        -0.5000 
     62 CA          0.9607  -13.5109  -51.0030 C.3       2 UNK         0.1400 
     63 CB          1.4510  -14.3490  -52.1971 C.3       2 UNK        -0.1800 
     64 N          -0.3034  -14.0925  -50.5368 N.am      2 UNK        -0.5000 
     65 C          -1.2366  -13.4720  -49.8066 C.2       1 UNK         0.5000 
     66 O          -1.1471  -12.2921  -49.4592 O.2       1 UNK        -0.5000 
     67 C          -0.3243  -23.2943  -46.5915 C.2       11 UNK         0.5000 
     68 O          -0.3781  -23.4729  -47.8086 O.2       11 UNK        -0.5000 
     69 N          -1.4069  -23.3486  -45.8005 N.am      12 UNK        -0.5000 
     70 CA         -2.8039  -23.4461  -46.2372 C.3       12 UNK         0.1400 
     71 CB         -3.7166  -23.4932  -45.0038 C.3       12 UNK        -0.1800 
     72 C          -3.1310  -24.6150  -47.1840 C.2       12 UNK         0.5000 
     73 O          -4.0447  -24.4812  -47.9982 O.2       12 UNK        -0.5000 
     74 N          -2.3781  -25.7177  -47.0828 N.am      13 UNK        -0.5000 
     75 CA         -2.4878  -26.8807  -47.9644 C.3       13 UNK         0.1400 
     76 CB         -1.6978  -28.0476  -47.3529 C.3       13 UNK        -0.1800 
     77 C          -2.0107  -26.6030  -49.4047 C.2       13 UNK         0.5000 
     78 O          -2.5437  -27.2016  -50.3394 O.2       13 UNK        -0.5000 
     79 N          -1.0275  -25.7061  -49.5599 N.am      14 UNK        -0.5000 
     80 CA         -0.4912  -25.2748  -50.8509 C.3       14 UNK         0.1400 
     81 CB          1.0201  -25.0289  -50.7194 C.3       14 UNK        -0.1800 
     82 C          -1.2015  -24.0038  -51.3390 C.2       14 UNK         0.5000 
     83 O          -1.5554  -23.9168  -52.5143 O.2       14 UNK        -0.5000 
     84 N          -1.4192  -23.0559  -50.4166 N.am      15 UNK        -0.5000 
     85 CA         -2.0470  -21.7591  -50.6683 C.3       15 UNK         0.1400 
     86 CB         -1.7124  -20.8155  -49.5029 C.3       15 UNK        -0.1800 
     87 C          -3.5694  -21.8275  -50.8917 C.2       15 UNK         0.5000 
     88 O          -4.1539  -20.8109  -51.2655 O.2       15 UNK        -0.5000 
     89 N          -4.1810  -22.9949  -50.6451 N.am      16 UNK        -0.5000 
     90 CA         -5.6097  -23.3003  -50.7624 C.3       16 UNK         0.1400 
     91 CB         -6.0801  -23.1860  -52.2253 C.3       16 UNK        -0.1800 
     92 C          -6.4483  -22.4492  -49.7920 C.2       16 UNK         0.5000 
     93 O          -7.3115  -21.6806  -50.2173 O.2       16 UNK        -0.5000 
     94 N          -6.1378  -22.5910  -48.4963 N.am      17 UNK        -0.5000 
     95 CA         -6.7384  -21.8755  -47.3654 C.3       17 UNK         0.1400 
     96 CB         -8.2188  -22.2716  -47.1844 C.3       17 UNK        -0.1800 
     97 C          -6.5172  -20.3509  -47.4514 C.2       17 UNK         0.5000 
     98 O          -7.4599  -19.5734  -47.2942 O.2       17 UNK        -0.5000 
     99 N          -5.2554  -19.9679  -47.7002 N.am      18 UNK        -0.5000 
    100 CA        -4.7434  -18.5934  -47.7697 C.3       18 UNK         0.1400 
    101 CB        -4.9293  -17.8683  -46.4181 C.3       18 UNK        -0.1800 
    102 C         -5.2746  -17.7752  -48.9687 C.2       18 UNK         0.5000 
    103 O         -5.2879  -16.5453  -48.9096 O.2       18 UNK        -0.5000 
    104 N         -5.6773  -18.4593  -50.0483 N.am      19 UNK        -0.5000 
    105 CA        -6.1036  -17.8407  -51.3069 C.3       19 UNK         0.1400 
    106 CB        -7.0355  -18.8144  -52.0444 C.3       19 UNK        -0.1800 
    107 C         -4.9176  -17.4524  -52.2133 C.2       19 UNK         0.5000 
    108 O         -5.0966  -16.6454  -53.1255 O.2       19 UNK        -0.5000 
    109 N         -3.7484  -18.0593  -51.9611 N.am      20 UNK        -0.5000 
    110 CA        -2.5088  -18.0051  -52.7418 C.3       20 UNK         0.1400 
    111 CB        -1.9526  -16.5696  -52.8456 C.3       20 UNK        -0.1800 
    112 C         -2.6351  -18.6884  -54.1169 C.2       20 UNK         0.5000 
    113 O         -1.9082  -18.3339  -55.0464 O.2       20 UNK        -0.5000 
    114 N         -3.5243  -19.6855  -54.2265 N.am      21 UNK        -0.5000 
    115 CA        -3.7963  -20.4436  -55.4527 C.3       21 UNK         0.1400 
    116 CB        -5.2356  -20.9824  -55.3974 C.3       21 UNK        -0.1800 
    117 C         -2.7513  -21.5543  -55.7057 C.2       21 UNK         0.5000 
    118 O         -3.1118  -22.6867  -56.0324 O.2       21 UNK        -0.5000 
    119 N         -1.4729  -21.2078  -55.5332 N.am      22 UNK        -0.5000 
    120 CA        -0.3090  -22.0775  -55.7307 C.3       22 UNK         0.1400 
    121 C         -0.0549  -22.3933  -57.2303 C.2       22 UNK         0.5000 
    122 N          0.4089  -23.5946  -57.5467 N.am      22 UNK        -0.7600 
    123 O         -0.2325  -21.5483  -58.1054 O.2       22 UNK        -0.5000 
    124 C124        0.9566  -21.4669  -55.0791 C.3       23 UNK        -0.0398 
    125 S125        0.7867  -21.3198  -53.2690 S.3       23 UNK        -0.2404 
    126 C126        1.4343  -19.6479  -52.9545 C.3       23 UNK        -0.0205 
    127 H127       -5.3011  -10.9277  -49.0809 H         1 UNK         0.0600 
    128 H128       -6.4153  -12.2988  -49.1198 H         1 UNK         0.0600 
    129 H129       -5.3247  -12.0858  -47.7480 H         1 UNK         0.0600 
    130 H130       -3.5733  -13.4553  -47.8116 H         1 UNK         0.3000 
    131 H131       -2.8270  -14.8546  -50.2243 H         1 UNK         0.0600 
    132 H132       -1.2136  -15.0445  -47.6409 H         1 UNK         0.0800 
    133 H133       -2.8258  -15.6808  -47.6758 H         1 UNK         0.0800 
    134 H134        0.7874  -16.0830  -49.0756 H         1 UNK         0.0800 
    135 H135        0.4772  -17.0647  -47.6680 H         1 UNK         0.0800 
    136 H136        0.2598  -17.7251  -51.3887 H         1 UNK         0.1150 
    137 H137        3.0176  -20.9970  -51.2125 H         1 UNK         0.1150 
    138 H138        2.0704  -18.8065  -47.6559 H         1 UNK         0.1150 
    139 H139        4.4696  -21.1146  -49.1906 H         1 UNK         0.0800 
    140 H140        3.9858  -20.3617  -47.6945 H         1 UNK         0.0800 
    141 H141        2.4810  -21.3478  -46.0177 H         1 UNK         0.0800 
    142 H142        1.0960  -21.0798  -47.0378 H         1 UNK         0.0800 
    143 H143        1.6361  -23.8915  -46.0031 H         1 UNK         0.0600 
    144 H144        0.9584  -21.6437  -44.3001 H         1 UNK         0.3000 
    145 H145        0.3728  -23.6233  -41.4097 H         1 UNK         0.0600 
    146 H146        2.0972  -22.0510  -40.5567 H         1 UNK         0.0600 
    147 H147        2.8382  -23.3060  -41.5392 H         1 UNK         0.0600 
    148 H148        2.6187  -21.6903  -42.1999 H         1 UNK         0.0600 
    149 H149        0.3203  -20.7934  -42.0397 H         1 UNK         0.3000 
    150 H150       -3.2003  -20.6629  -42.6728 H         1 UNK         0.0600 
    151 H151       -2.9761  -20.6588  -40.1733 H         1 UNK         0.0600 
    152 H152       -3.1191  -19.0327  -40.8218 H         1 UNK         0.0600 
    153 H153       -1.5469  -19.6384  -40.3037 H         1 UNK         0.0600 
    154 H154       -1.2140  -18.6214  -42.5168 H         1 UNK         0.3000 
    155 H155       -0.1565  -18.7735  -45.9335 H         1 UNK         0.0600 
    156 H156       -1.9689  -16.8146  -44.4305 H         1 UNK         0.0600 
    157 H157       -2.1565  -17.4093  -46.0755 H         1 UNK         0.0600 
    158 H158       -0.8262  -16.3300  -45.6797 H         1 UNK         0.0600 
    159 H159        0.6168  -16.9737  -43.9234 H         1 UNK         0.3000 
    160 H160        3.2425  -18.9123  -42.4406 H         1 UNK         0.0600 
    161 H161        4.4226  -16.8273  -43.1163 H         1 UNK         0.0600 
    162 H162        3.1303  -16.4332  -44.2473 H         1 UNK         0.0600 
    163 H163        4.1246  -17.8578  -44.5075 H         1 UNK         0.0600 
    164 H164        2.0213  -16.3009  -42.0188 H         1 UNK         0.3000 
    165 H165       -0.0345  -17.3184  -39.2993 H         1 UNK         0.0600 
    166 H166        1.2628  -15.5695  -38.1149 H         1 UNK         0.0600 
    167 H167        2.2244  -17.0312  -38.2676 H         1 UNK         0.0600 
    168 H168        2.5458  -15.6597  -39.3220 H         1 UNK         0.0600 
    169 H169        0.5295  -14.7644  -40.4601 H         1 UNK         0.3000 
    170 H170       -1.9404  -14.8756  -43.0237 H         1 UNK         0.0600 
    171 H171       -3.2280  -14.3869  -40.9344 H         1 UNK         0.0600 
    172 H172       -1.9199  -13.3579  -40.3631 H         1 UNK         0.0600 
    173 H173       -2.8281  -12.9189  -41.8104 H         1 UNK         0.0600 
    174 H174       -0.4078  -12.6929  -42.2821 H         1 UNK         0.3000 
    175 H175        1.0958  -11.9597  -43.8613 H         1 UNK         0.0600 
    176 H176        3.3483  -13.6352  -42.6087 H         1 UNK         0.0600 
    177 H177        3.4231  -11.9083  -42.9606 H         1 UNK         0.0600 
    178 H178        2.3174  -12.5072  -41.7364 H         1 UNK         0.0600 
    179 H179        3.2985  -13.2734  -45.0514 H         1 UNK         0.3000 
    180 H180        3.2895  -12.8409  -47.5600 H         1 UNK         0.0600 
    181 H181        2.4947  -15.7842  -47.0939 H         1 UNK         0.0600 
    182 H182        3.9376  -14.9883  -46.4873 H         1 UNK         0.0600 
    183 H183        3.7611  -15.2748  -48.2084 H         1 UNK         0.0600 
    184 H184        0.6976  -13.6991  -48.4281 H         1 UNK         0.3000 
    185 H185        0.7654  -12.4968  -51.3572 H         1 UNK         0.0600 
    186 H186        2.3488  -13.9177  -52.6414 H         1 UNK         0.0600 
    187 H187        1.6903  -15.3707  -51.8990 H         1 UNK         0.0600 
    188 H188        0.6968  -14.3963  -52.9830 H         1 UNK         0.0600 
    189 H189       -0.4408  -15.0678  -50.7568 H         1 UNK         0.3000 
    190 H190       -1.2673  -23.1710  -44.8164 H         1 UNK         0.3000 
    191 H191       -3.0293  -22.5288  -46.7832 H         1 UNK         0.0600 
    192 H192       -3.4334  -24.2998  -44.3266 H         1 UNK         0.0600 
    193 H193       -4.7587  -23.6530  -45.2815 H         1 UNK         0.0600 
    194 H194       -3.6712  -22.5563  -44.4489 H         1 UNK         0.0600 
    195 H195       -1.6496  -25.7381  -46.3843 H         1 UNK         0.3000 
    196 H196       -3.5396  -27.1703  -48.0152 H         1 UNK         0.0600 
    197 H197       -1.7782  -28.9413  -47.9733 H         1 UNK         0.0600 
    198 H198       -2.0765  -28.3052  -46.3637 H         1 UNK         0.0600 
    199 H199       -0.6378  -27.8093  -47.2560 H         1 UNK         0.0600 
    200 H200       -0.6916  -25.2018  -48.7465 H         1 UNK         0.3000 
    201 H201       -0.6401  -26.0562  -51.5992 H         1 UNK         0.0600 
    202 H202        1.5424  -25.9367  -50.4178 H         1 UNK         0.0600 
    203 H203        1.2412  -24.2554  -49.9833 H         1 UNK         0.0600 
    204 H204        1.4467  -24.7059  -51.6699 H         1 UNK         0.0600 
    205 H205       -1.0620  -23.2064  -49.4754 H         1 UNK         0.3000 
    206 H206       -1.6143  -21.3393  -51.5774 H         1 UNK         0.0600 
    207 H207       -2.1166  -19.8190  -49.6780 H         1 UNK         0.0600 
    208 H208       -0.6339  -20.7088  -49.3824 H         1 UNK         0.0600 
    209 H209       -2.1180  -21.1762  -48.5581 H         1 UNK         0.0600 
    210 H210       -3.6091  -23.7458  -50.2843 H         1 UNK         0.3000 
    211 H211       -5.7299  -24.3409  -50.4573 H         1 UNK         0.0600 
    212 H212       -6.0888  -22.1503  -52.5616 H         1 UNK         0.0600 
    213 H213       -7.0944  -23.5704  -52.3372 H         1 UNK         0.0600 
    214 H214       -5.4367  -23.7557  -52.8960 H         1 UNK         0.0600 
    215 H215       -5.4067  -23.2614  -48.2660 H         1 UNK         0.3000 
    216 H216       -6.2055  -22.2061  -46.4740 H         1 UNK         0.0600 
    217 H217       -8.6303  -21.8342  -46.2741 H         1 UNK         0.0600 
    218 H218       -8.3298  -23.3528  -47.1029 H         1 UNK         0.0600 
    219 H219       -8.8369  -21.9327  -48.0163 H         1 UNK         0.0600 
    220 H220       -4.5685  -20.6934  -47.8390 H         1 UNK         0.3000 
    221 H221       -3.6699  -18.6889  -47.9348 H         1 UNK         0.0600 
    222 H222       -5.9809  -17.7019  -46.1853 H         1 UNK         0.0600 
    223 H223       -4.4907  -18.4412  -45.6008 H         1 UNK         0.0600 
    224 H224       -4.4489  -16.8904  -46.4216 H         1 UNK         0.0600 
    225 H225       -5.6377  -19.4705  -50.0375 H         1 UNK         0.3000 
    226 H226       -6.6667  -16.9311  -51.0878 H         1 UNK         0.0600 
    227 H227       -7.9022  -19.0692  -51.4342 H         1 UNK         0.0600 
    228 H228       -7.4068  -18.3766  -52.9718 H         1 UNK         0.0600 
    229 H229       -6.5246  -19.7428  -52.3014 H         1 UNK         0.0600 
    230 H230       -3.7702  -18.7737  -51.2436 H         1 UNK         0.3000 
    231 H231       -1.7864  -18.6006  -52.1830 H         1 UNK         0.0600 
    232 H232       -1.8770  -16.1063  -51.8668 H         1 UNK         0.0600 
    233 H233       -2.5791  -15.9326  -53.4699 H         1 UNK         0.0600 
    234 H234       -0.9530  -16.5668  -53.2817 H         1 UNK         0.0600 
    235 H235       -4.0325  -19.9665  -53.3973 H         1 UNK         0.3000 
    236 H236       -3.7403  -19.7590  -56.3016 H         1 UNK         0.0600 
    237 H237       -5.5261  -21.4147  -56.3556 H         1 UNK         0.0600 
    238 H238       -5.3387  -21.7624  -54.6457 H         1 UNK         0.0600 
    239 H239       -5.9503  -20.1918  -55.1676 H         1 UNK         0.0600 
    240 H240       -1.2779  -20.2380  -55.3162 H         1 UNK         0.3000 
    241 H241       -0.5245  -23.0222  -55.2264 H         1 UNK         0.0600 
    242 H242        0.5929  -23.8093  -58.5148 H         1 UNK         0.3800 
    243 H243        0.5683  -24.3023  -56.8461 H         1 UNK         0.3800 
    244 H244        1.8296  -22.0922  -55.2743 H         1 UNK         0.0800 
    245 H245        1.1756  -20.4898  -55.5134 H         1 UNK         0.0800 
    246 H246        0.7636  -18.9122  -53.4013 H         1 UNK         0.0800 
    247 H247        2.4021  -19.5333  -53.4449 H         1 UNK         0.0800 
@<TRIPOS>BOND
     1    1    2 1    
     2    1  127 1    
     3    1  128 1    
     4    1  129 1    
     5    2    3 2    
     6    2    4 am   BACKBONE|DICT|INTERRES
     7    4    5 1    
     8    4  130 1    
     9    5    6 1    
    10    5   65 1    
    11    5  131 1    
    12    6    7 1    
    13    6  132 1    
    14    6  133 1    
    15    7    8 1    
    16    8    9 1    
    17    8  134 1    
    18    8  135 1    
    19    9   10 ar   
    20    9   14 ar   
    21   10   11 ar   
    22   10  136 1    
    23   11   12 ar   
    24   11  126 1    
    25   12   13 ar   
    26   12  137 1    
    27   13   14 ar   
    28   13   15 1    
    29   14  138 1    
    30   15   16 1    
    31   15  139 1    
    32   15  140 1    
    33   16   17 1    
    34   17   18 1    
    35   17  141 1    
    36   17  142 1    
    37   18   19 1    
    38   18   67 1    
    39   18  143 1    
    40   19   20 am   BACKBONE|DICT|INTERRES
    41   19  144 1    
    42   20   21 2    
    43   20   22 1    
    44   22   23 1    
    45   22   24 1    
    46   22  145 1    
    47   23  146 1    
    48   23  147 1    
    49   23  148 1    
    50   24   25 am   BACKBONE|DICT|INTERRES
    51   24  149 1    
    52   25   26 2    
    53   25   27 1    
    54   27   28 1    
    55   27   29 1    
    56   27  150 1    
    57   28  151 1    
    58   28  152 1    
    59   28  153 1    
    60   29   30 am   BACKBONE|DICT|INTERRES
    61   29  154 1    
    62   30   31 2    
    63   30   32 1    
    64   32   33 1    
    65   32   34 1    
    66   32  155 1    
    67   33  156 1    
    68   33  157 1    
    69   33  158 1    
    70   34   35 am   BACKBONE|DICT|INTERRES
    71   34  159 1    
    72   35   36 2    
    73   35   37 1    
    74   37   38 1    
    75   37   39 1    
    76   37  160 1    
    77   38  161 1    
    78   38  162 1    
    79   38  163 1    
    80   39   40 am   BACKBONE|DICT|INTERRES
    81   39  164 1    
    82   40   41 2    
    83   40   42 1    
    84   42   43 1    
    85   42   44 1    
    86   42  165 1    
    87   43  166 1    
    88   43  167 1    
    89   43  168 1    
    90   44   45 am   BACKBONE|DICT|INTERRES
    91   44  169 1    
    92   45   46 2    
    93   45   47 1    
    94   47   48 1    
    95   47   49 1    
    96   47  170 1    
    97   48  171 1    
    98   48  172 1    
    99   48  173 1    
   100   49   50 am   BACKBONE|DICT|INTERRES
   101   49  174 1    
   102   50   51 2    
   103   50   52 1    
   104   52   53 1    
   105   52   54 1    
   106   52  175 1    
   107   53  176 1    
   108   53  177 1    
   109   53  178 1    
   110   54   55 am   BACKBONE|DICT|INTERRES
   111   54  179 1    
   112   55   56 2    
   113   55   57 1    
   114   57   58 1    
   115   57   59 1    
   116   57  180 1    
   117   58  181 1    
   118   58  182 1    
   119   58  183 1    
   120   59   60 am   BACKBONE|DICT|INTERRES
   121   59  184 1    
   122   60   61 2    
   123   60   62 1    
   124   62   63 1    
   125   62   64 1    
   126   62  185 1    
   127   63  186 1    
   128   63  187 1    
   129   63  188 1    
   130   64   65 am   BACKBONE|DICT|INTERRES
   131   64  189 1    
   132   65   66 2    
   133   67   68 2    
   134   67   69 am   BACKBONE|DICT|INTERRES
   135   69   70 1    
   136   69  190 1    
   137   70   71 1    
   138   70   72 1    
   139   70  191 1    
   140   71  192 1    
   141   71  193 1    
   142   71  194 1    
   143   72   73 2    
   144   72   74 am   BACKBONE|DICT|INTERRES
   145   74   75 1    
   146   74  195 1    
   147   75   76 1    
   148   75   77 1    
   149   75  196 1    
   150   76  197 1    
   151   76  198 1    
   152   76  199 1    
   153   77   78 2    
   154   77   79 am   BACKBONE|DICT|INTERRES
   155   79   80 1    
   156   79  200 1    
   157   80   81 1    
   158   80   82 1    
   159   80  201 1    
   160   81  202 1    
   161   81  203 1    
   162   81  204 1    
   163   82   83 2    
   164   82   84 am   BACKBONE|DICT|INTERRES
   165   84   85 1    
   166   84  205 1    
   167   85   86 1    
   168   85   87 1    
   169   85  206 1    
   170   86  207 1    
   171   86  208 1    
   172   86  209 1    
   173   87   88 2    
   174   87   89 am   BACKBONE|DICT|INTERRES
   175   89   90 1    
   176   89  210 1    
   177   90   91 1    
   178   90   92 1    
   179   90  211 1    
   180   91  212 1    
   181   91  213 1    
   182   91  214 1    
   183   92   93 2    
   184   92   94 am   BACKBONE|DICT|INTERRES
   185   94   95 1    
   186   94  215 1    
   187   95   96 1    
   188   95   97 1    
   189   95  216 1    
   190   96  217 1    
   191   96  218 1    
   192   96  219 1    
   193   97   98 2    
   194   97   99 am   BACKBONE|DICT|INTERRES
   195   99  100 1    
   196   99  220 1    
   197  100  101 1    
   198  100  102 1    
   199  100  221 1    
   200  101  222 1    
   201  101  223 1    
   202  101  224 1    
   203  102  103 2    
   204  102  104 am   BACKBONE|DICT|INTERRES
   205  104  105 1    
   206  104  225 1    
   207  105  106 1    
   208  105  107 1    
   209  105  226 1    
   210  106  227 1    
   211  106  228 1    
   212  106  229 1    
   213  107  108 2    
   214  107  109 am   BACKBONE|DICT|INTERRES
   215  109  110 1    
   216  109  230 1    
   217  110  111 1    
   218  110  112 1    
   219  110  231 1    
   220  111  232 1    
   221  111  233 1    
   222  111  234 1    
   223  112  113 2    
   224  112  114 am   BACKBONE|DICT|INTERRES
   225  114  115 1    
   226  114  235 1    
   227  115  116 1    
   228  115  117 1    
   229  115  236 1    
   230  116  237 1    
   231  116  238 1    
   232  116  239 1    
   233  117  118 2    
   234  117  119 am   BACKBONE|DICT|INTERRES
   235  119  120 1    
   236  119  240 1    
   237  120  121 1    
   238  120  124 1    
   239  120  241 1    
   240  121  122 am   BACKBONE|DICT|INTERRES
   241  121  123 2    
   242  122  242 1    
   243  122  243 1    
   244  124  125 1    
   245  124  244 1    
   246  124  245 1    
   247  125  126 1    
   248  126  246 1    
   249  126  247 1    
@<TRIPOS>SUBSTRUCTURE
     1 UNK         1 GROUP             0       ****    0 ROOT    
