@<TRIPOS>MOLECULE
3R540
247   249    1
SMALL
USER_CHARGES


@<TRIPOS>ATOM
      1 CA          1.1652  -17.1413  -54.5130 C.3       0 UNK        -0.1800 
      2 C           0.9563  -17.5076  -53.0506 C.2       0 UNK         0.5000 
      3 O           0.9059  -18.6909  -52.7179 O.2       0 UNK        -0.5000 
      4 N           0.8273  -16.4961  -52.1820 N.am      1 UNK        -0.5000 
      5 CA          0.6887  -16.6531  -50.7310 C.3       1 UNK         0.1400 
      6 C6          0.1236  -15.3554  -50.0886 C.3       23 UNK        -0.0398 
      7 S7         -0.4316  -15.5279  -48.3503 S.3       23 UNK        -0.2404 
      8 C8         -2.2422  -15.2586  -48.4687 C.3       23 UNK        -0.0205 
      9 C9         -3.0758  -16.4260  -49.0057 C.ar      23 UNK        -0.0193 
     10 C10        -4.4423  -16.2297  -49.2289 C.ar      23 UNK        -0.1150 
     11 C11        -5.2457  -17.2704  -49.7048 C.ar      23 UNK        -0.0193 
     12 C12        -4.6727  -18.5175  -49.9672 C.ar      23 UNK        -0.1150 
     13 C13        -3.3109  -18.7404  -49.7539 C.ar      23 UNK        -0.0193 
     14 C14        -2.5301  -17.6880  -49.2613 C.ar      23 UNK        -0.1150 
     15 C15        -2.7349  -20.1230  -50.0788 C.3       23 UNK        -0.0205 
     16 S16        -1.0244  -20.4369  -49.5163 S.3       23 UNK        -0.2404 
     17 C17        -1.2454  -20.2902  -47.7152 C.3       23 UNK        -0.0398 
     18 CA         -0.6009  -21.4372  -46.9142 C.3       11 UNK         0.1400 
     19 N          -0.2891  -20.9934  -45.5523 N.am      11 UNK        -0.5000 
     20 C           0.3232  -21.7151  -44.6048 C.2       10 UNK         0.5000 
     21 O           0.7174  -22.8688  -44.7691 O.2       10 UNK        -0.5000 
     22 CA          0.4608  -21.0457  -43.2295 C.3       10 UNK         0.1400 
     23 CB          1.6359  -20.0560  -43.2250 C.3       10 UNK        -0.1800 
     24 N          -0.7872  -20.3702  -42.8612 N.am      10 UNK        -0.5000 
     25 C          -1.8690  -21.0210  -42.4040 C.2       9 UNK         0.5000 
     26 O          -1.8599  -22.2108  -42.0885 O.2       9 UNK        -0.5000 
     27 CA         -3.1970  -20.2419  -42.3270 C.3       9 UNK         0.1400 
     28 CB         -3.4796  -19.7436  -40.9025 C.3       9 UNK        -0.1800 
     29 N          -3.2603  -19.1218  -43.2684 N.am      9 UNK        -0.5000 
     30 C          -3.4634  -19.2733  -44.5856 C.2       8 UNK         0.5000 
     31 O          -3.6193  -20.3692  -45.1216 O.2       8 UNK        -0.5000 
     32 CA         -3.4468  -18.0073  -45.4648 C.3       8 UNK         0.1400 
     33 CB         -4.8648  -17.4425  -45.6275 C.3       8 UNK        -0.1800 
     34 N          -2.5622  -16.9536  -44.9706 N.am      8 UNK        -0.5000 
     35 C          -1.2409  -17.0722  -44.7858 C.2       7 UNK         0.5000 
     36 O          -0.6126  -18.1089  -45.0109 O.2       7 UNK        -0.5000 
     37 CA         -0.5010  -15.8443  -44.2172 C.3       7 UNK         0.1400 
     38 CB         -1.2986  -14.5269  -44.3222 C.3       7 UNK        -0.1800 
     39 N          -0.0541  -16.0366  -42.8339 N.am      7 UNK        -0.5000 
     40 C          -0.7712  -16.4599  -41.7794 C.2       6 UNK         0.5000 
     41 O          -1.9466  -16.8203  -41.8524 O.2       6 UNK        -0.5000 
     42 CA         -0.0666  -16.4892  -40.4048 C.3       6 UNK         0.1400 
     43 CB          0.2447  -17.9312  -39.9775 C.3       6 UNK        -0.1800 
     44 N           1.1816  -15.7258  -40.3769 N.am      6 UNK        -0.5000 
     45 C           1.2716  -14.3943  -40.2539 C.2       5 UNK         0.5000 
     46 O           0.3046  -13.6563  -40.0635 O.2       5 UNK        -0.5000 
     47 CA          2.6830  -13.7851  -40.4025 C.3       5 UNK         0.1400 
     48 CB          3.3455  -13.6192  -39.0264 C.3       5 UNK        -0.1800 
     49 N           3.5726  -14.5648  -41.2748 N.am      5 UNK        -0.5000 
     50 C           3.3420  -14.7994  -42.5733 C.2       4 UNK         0.5000 
     51 O           2.3528  -14.3704  -43.1718 O.2       4 UNK        -0.5000 
     52 CA          4.3318  -15.7300  -43.2980 C.3       4 UNK         0.1400 
     53 CB          4.1172  -17.1855  -42.8514 C.3       4 UNK        -0.1800 
     54 N           4.1361  -15.6640  -44.7443 N.am      4 UNK        -0.5000 
     55 C           4.5385  -14.6600  -45.5325 C.2       3 UNK         0.5000 
     56 O           5.2579  -13.7391  -45.1407 O.2       3 UNK        -0.5000 
     57 CA          4.0190  -14.6603  -46.9875 C.3       3 UNK         0.1400 
     58 CB          5.0969  -14.2141  -47.9972 C.3       3 UNK        -0.1800 
     59 N           3.3852  -15.9159  -47.4171 N.am      3 UNK        -0.5000 
     60 C           3.9675  -17.1139  -47.5893 C.2       2 UNK         0.5000 
     61 O           5.1469  -17.3518  -47.3299 O.2       2 UNK        -0.5000 
     62 CA          3.0764  -18.2445  -48.1446 C.3       2 UNK         0.1400 
     63 CB          2.5454  -19.1191  -46.9969 C.3       2 UNK        -0.1800 
     64 N           1.9402  -17.7725  -48.9421 N.am      2 UNK        -0.5000 
     65 C           2.0271  -17.0927  -50.0947 C.2       1 UNK         0.5000 
     66 O           3.0963  -16.7907  -50.6317 O.2       1 UNK        -0.5000 
     67 C          -1.4591  -22.7203  -46.9508 C.2       11 UNK         0.5000 
     68 O          -1.2065  -23.5986  -47.7754 O.2       11 UNK        -0.5000 
     69 N          -2.3980  -22.8460  -46.0036 N.am      12 UNK        -0.5000 
     70 CA         -3.2278  -24.0302  -45.7729 C.3       12 UNK         0.1400 
     71 CB         -4.2430  -23.7152  -44.6640 C.3       12 UNK        -0.1800 
     72 C          -2.4407  -25.3152  -45.4324 C.2       12 UNK         0.5000 
     73 O          -2.9862  -26.4051  -45.6054 O.2       12 UNK        -0.5000 
     74 N          -1.1888  -25.1783  -44.9759 N.am      13 UNK        -0.5000 
     75 CA         -0.2602  -26.2850  -44.7574 C.3       13 UNK         0.1400 
     76 CB          0.4080  -26.1210  -43.3828 C.3       13 UNK        -0.1800 
     77 C           0.7986  -26.3458  -45.8722 C.2       13 UNK         0.5000 
     78 O           1.0912  -27.4348  -46.3664 O.2       13 UNK        -0.5000 
     79 N           1.3669  -25.1861  -46.2342 N.am      14 UNK        -0.5000 
     80 CA          2.4807  -25.0585  -47.1754 C.3       14 UNK         0.1400 
     81 CB          3.0762  -23.6452  -47.0706 C.3       14 UNK        -0.1800 
     82 C           2.1070  -25.3845  -48.6324 C.2       14 UNK         0.5000 
     83 O           2.8654  -26.0841  -49.3056 O.2       14 UNK        -0.5000 
     84 N           0.9579  -24.8740  -49.0902 N.am      15 UNK        -0.5000 
     85 CA          0.4158  -25.1122  -50.4283 C.3       15 UNK         0.1400 
     86 CB         -0.0420  -23.7785  -51.0424 C.3       15 UNK        -0.1800 
     87 C          -0.7588  -26.0990  -50.3698 C.2       15 UNK         0.5000 
     88 O          -0.8718  -26.9550  -51.2476 O.2       15 UNK        -0.5000 
     89 N          -1.6063  -25.9546  -49.3383 N.am      16 UNK        -0.5000 
     90 CA         -2.8274  -26.7265  -49.0776 C.3       16 UNK         0.1400 
     91 CB         -2.4914  -28.1946  -48.7452 C.3       16 UNK        -0.1800 
     92 C          -3.8947  -26.5757  -50.1834 C.2       16 UNK         0.5000 
     93 O          -4.6790  -27.4954  -50.4236 O.2       16 UNK        -0.5000 
     94 N          -3.9108  -25.4036  -50.8251 N.am      17 UNK        -0.5000 
     95 CA         -4.8116  -25.0043  -51.8970 C.3       17 UNK         0.1400 
     96 CB         -4.3804  -25.6639  -53.2202 C.3       17 UNK        -0.1800 
     97 C          -4.7593  -23.4752  -52.0082 C.2       17 UNK         0.5000 
     98 O          -3.8140  -22.8562  -51.5093 O.2       17 UNK        -0.5000 
     99 N          -5.7532  -22.8881  -52.6847 N.am      18 UNK        -0.5000 
    100 CA        -5.8468  -21.4544  -52.9681 C.3       18 UNK         0.1400 
    101 CB        -7.3117  -21.0981  -53.2768 C.3       18 UNK        -0.1800 
    102 C         -4.8798  -21.0380  -54.0965 C.2       18 UNK         0.5000 
    103 O         -5.3127  -20.6930  -55.1969 O.2       18 UNK        -0.5000 
    104 N         -3.5764  -21.1237  -53.8053 N.am      19 UNK        -0.5000 
    105 CA        -2.4798  -20.7664  -54.7058 C.3       19 UNK         0.1400 
    106 CB        -1.1681  -21.3173  -54.1250 C.3       19 UNK        -0.1800 
    107 C         -2.3667  -19.2494  -54.9527 C.2       19 UNK         0.5000 
    108 O         -1.9180  -18.8402  -56.0245 O.2       19 UNK        -0.5000 
    109 N         -2.7719  -18.4487  -53.9601 N.am      20 UNK        -0.5000 
    110 CA        -2.8057  -16.9910  -54.0216 C.3       20 UNK         0.1400 
    111 CB        -2.7335  -16.4482  -52.5867 C.3       20 UNK        -0.1800 
    112 C         -4.0880  -16.4815  -54.7015 C.2       20 UNK         0.5000 
    113 O         -5.0665  -17.2201  -54.8308 O.2       20 UNK        -0.5000 
    114 N         -4.0784  -15.1910  -55.0593 N.am      21 UNK        -0.5000 
    115 CA        -5.2645  -14.4509  -55.5018 C.3       21 UNK         0.1400 
    116 CB        -4.8110  -13.1738  -56.2264 C.3       21 UNK        -0.1800 
    117 C         -6.2202  -14.1027  -54.3390 C.2       21 UNK         0.5000 
    118 O         -7.3882  -13.8036  -54.5890 O.2       21 UNK        -0.5000 
    119 N         -5.7033  -14.1421  -53.1013 N.am      22 UNK        -0.5000 
    120 CA        -6.4108  -13.8923  -51.8313 C.3       22 UNK         0.1400 
    121 C         -6.8327  -12.4083  -51.5973 C.2       22 UNK         0.5000 
    122 N         -6.3217  -11.4453  -52.3547 N.am      22 UNK        -0.7600 
    123 O         -7.6099  -12.1145  -50.6928 O.2       22 UNK        -0.5000 
    124 C124       -7.5770  -14.8867  -51.5624 C.3       23 UNK        -0.0398 
    125 S125       -7.0891  -16.6456  -51.6682 S.3       23 UNK        -0.2404 
    126 C126       -6.7345  -17.0624  -49.9308 C.3       23 UNK        -0.0205 
    127 H127        1.0501  -16.0708  -54.6838 H         1 UNK         0.0600 
    128 H128        0.4422  -17.6637  -55.1389 H         1 UNK         0.0600 
    129 H129        2.1656  -17.4333  -54.8323 H         1 UNK         0.0600 
    130 H130        0.9261  -15.5479  -52.5141 H         1 UNK         0.3000 
    131 H131       -0.0247  -17.4613  -50.5780 H         1 UNK         0.0600 
    132 H132       -0.7222  -14.9994  -50.6779 H         1 UNK         0.0800 
    133 H133        0.8655  -14.5560  -50.1314 H         1 UNK         0.0800 
    134 H134       -2.4290  -14.3708  -49.0746 H         1 UNK         0.0800 
    135 H135       -2.6088  -15.0257  -47.4688 H         1 UNK         0.0800 
    136 H136       -4.8842  -15.2651  -49.0235 H         1 UNK         0.1150 
    137 H137       -5.2948  -19.3187  -50.3390 H         1 UNK         0.1150 
    138 H138       -1.4879  -17.8536  -49.0675 H         1 UNK         0.1150 
    139 H139       -3.3828  -20.8930  -49.6569 H         1 UNK         0.0800 
    140 H140       -2.7585  -20.2572  -51.1595 H         1 UNK         0.0800 
    141 H141       -2.3048  -20.2029  -47.4735 H         1 UNK         0.0800 
    142 H142       -0.7939  -19.3404  -47.4274 H         1 UNK         0.0800 
    143 H143        0.3538  -21.6835  -47.3800 H         1 UNK         0.0600 
    144 H144       -0.5406  -20.0359  -45.3261 H         1 UNK         0.3000 
    145 H145        0.6795  -21.8276  -42.4990 H         1 UNK         0.0600 
    146 H146        1.8596  -19.7173  -42.2157 H         1 UNK         0.0600 
    147 H147        2.5431  -20.5255  -43.6081 H         1 UNK         0.0600 
    148 H148        1.4393  -19.1797  -43.8411 H         1 UNK         0.0600 
    149 H149       -0.8846  -19.4044  -43.1440 H         1 UNK         0.3000 
    150 H150       -3.9907  -20.9471  -42.5841 H         1 UNK         0.0600 
    151 H151       -3.4256  -20.5615  -40.1829 H         1 UNK         0.0600 
    152 H152       -4.4786  -19.3136  -40.8303 H         1 UNK         0.0600 
    153 H153       -2.7693  -18.9823  -40.5883 H         1 UNK         0.0600 
    154 H154       -3.0749  -18.1966  -42.8933 H         1 UNK         0.3000 
    155 H155       -3.0871  -18.2934  -46.4530 H         1 UNK         0.0600 
    156 H156       -5.2832  -17.1227  -44.6724 H         1 UNK         0.0600 
    157 H157       -5.5363  -18.1922  -46.0484 H         1 UNK         0.0600 
    158 H158       -4.8742  -16.5870  -46.3027 H         1 UNK         0.0600 
    159 H159       -3.0007  -16.0804  -44.7184 H         1 UNK         0.3000 
    160 H160        0.4002  -15.7316  -44.8218 H         1 UNK         0.0600 
    161 H161       -2.1889  -14.5312  -43.6922 H         1 UNK         0.0600 
    162 H162       -1.6098  -14.3319  -45.3488 H         1 UNK         0.0600 
    163 H163       -0.6840  -13.6816  -44.0115 H         1 UNK         0.0600 
    164 H164        0.8890  -15.7123  -42.6599 H         1 UNK         0.3000 
    165 H165       -0.7598  -16.0620  -39.6772 H         1 UNK         0.0600 
    166 H166        0.6498  -17.9610  -38.9659 H         1 UNK         0.0600 
    167 H167       -0.6485  -18.5534  -39.9826 H         1 UNK         0.0600 
    168 H168        0.9720  -18.3961  -40.6401 H         1 UNK         0.0600 
    169 H169        2.0344  -16.2491  -40.5071 H         1 UNK         0.3000 
    170 H170        2.5653  -12.7946  -40.8470 H         1 UNK         0.0600 
    171 H171        2.7201  -13.0223  -38.3611 H         1 UNK         0.0600 
    172 H172        3.5145  -14.5818  -38.5420 H         1 UNK         0.0600 
    173 H173        4.3061  -13.1106  -39.1092 H         1 UNK         0.0600 
    174 H174        4.3988  -14.9534  -40.8426 H         1 UNK         0.3000 
    175 H175        5.3516  -15.4234  -43.0561 H         1 UNK         0.0600 
    176 H176        3.0923  -17.5116  -43.0301 H         1 UNK         0.0600 
    177 H177        4.7819  -17.8647  -43.3858 H         1 UNK         0.0600 
    178 H178        4.3203  -17.3082  -41.7870 H         1 UNK         0.0600 
    179 H179        3.5295  -16.3596  -45.1491 H         1 UNK         0.3000 
    180 H180        3.2260  -13.9115  -47.0115 H         1 UNK         0.0600 
    181 H181        5.9674  -14.8702  -47.9780 H         1 UNK         0.0600 
    182 H182        5.4460  -13.2045  -47.7781 H         1 UNK         0.0600 
    183 H183        4.7047  -14.2065  -49.0144 H         1 UNK         0.0600 
    184 H184        2.4039  -15.8454  -47.6464 H         1 UNK         0.3000 
    185 H185        3.7024  -18.8650  -48.7890 H         1 UNK         0.0600 
    186 H186        2.0294  -19.9969  -47.3833 H         1 UNK         0.0600 
    187 H187        3.3586  -19.4783  -46.3646 H         1 UNK         0.0600 
    188 H188        1.8498  -18.5725  -46.3589 H         1 UNK         0.0600 
    189 H189        1.0247  -17.9682  -48.5661 H         1 UNK         0.3000 
    190 H190       -2.5984  -22.0405  -45.4193 H         1 UNK         0.3000 
    191 H191       -3.7793  -24.2251  -46.6946 H         1 UNK         0.0600 
    192 H192       -3.7466  -23.4789  -43.7223 H         1 UNK         0.0600 
    193 H193       -4.9038  -24.5640  -44.4834 H         1 UNK         0.0600 
    194 H194       -4.8726  -22.8671  -44.9336 H         1 UNK         0.0600 
    195 H195       -0.8071  -24.2463  -44.8679 H         1 UNK         0.3000 
    196 H196       -0.7924  -27.2385  -44.7550 H         1 UNK         0.0600 
    197 H197        1.1064  -26.9361  -43.1889 H         1 UNK         0.0600 
    198 H198       -0.3332  -26.1304  -42.5836 H         1 UNK         0.0600 
    199 H199        0.9651  -25.1864  -43.3090 H         1 UNK         0.0600 
    200 H200        1.0962  -24.3366  -45.7440 H         1 UNK         0.3000 
    201 H201        3.2530  -25.7674  -46.8690 H         1 UNK         0.0600 
    202 H202        3.4090  -23.4313  -46.0547 H         1 UNK         0.0600 
    203 H203        2.3539  -22.8799  -47.3525 H         1 UNK         0.0600 
    204 H204        3.9412  -23.5363  -47.7260 H         1 UNK         0.0600 
    205 H205        0.3664  -24.3425  -48.4585 H         1 UNK         0.3000 
    206 H206        1.1800  -25.5370  -51.0825 H         1 UNK         0.0600 
    207 H207        0.7781  -23.0620  -51.0906 H         1 UNK         0.0600 
    208 H208       -0.4085  -23.9238  -52.0592 H         1 UNK         0.0600 
    209 H209       -0.8499  -23.3220  -50.4699 H         1 UNK         0.0600 
    210 H210       -1.4390  -25.1789  -48.7021 H         1 UNK         0.3000 
    211 H211       -3.2768  -26.2848  -48.1901 H         1 UNK         0.0600 
    212 H212       -2.0969  -28.7276  -49.6105 H         1 UNK         0.0600 
    213 H213       -3.3778  -28.7313  -48.4058 H         1 UNK         0.0600 
    214 H214       -1.7524  -28.2552  -47.9458 H         1 UNK         0.0600 
    215 H215       -3.2616  -24.6755  -50.5517 H         1 UNK         0.3000 
    216 H216       -5.8306  -25.3028  -51.6429 H         1 UNK         0.0600 
    217 H217       -5.0301  -25.3622  -54.0425 H         1 UNK         0.0600 
    218 H218       -4.4265  -26.7511  -53.1566 H         1 UNK         0.0600 
    219 H219       -3.3594  -25.3892  -53.4889 H         1 UNK         0.0600 
    220 H220       -6.4728  -23.4674  -53.0927 H         1 UNK         0.3000 
    221 H221       -5.5581  -20.9007  -52.0729 H         1 UNK         0.0600 
    222 H222       -7.6838  -21.6346  -54.1504 H         1 UNK         0.0600 
    223 H223       -7.9609  -21.3369  -52.4342 H         1 UNK         0.0600 
    224 H224       -7.4186  -20.0304  -53.4745 H         1 UNK         0.0600 
    225 H225       -3.3234  -21.5206  -52.9062 H         1 UNK         0.3000 
    226 H226       -2.6579  -21.2473  -55.6698 H         1 UNK         0.0600 
    227 H227       -1.2051  -22.4023  -54.0267 H         1 UNK         0.0600 
    228 H228       -0.3222  -21.0769  -54.7703 H         1 UNK         0.0600 
    229 H229       -0.9564  -20.8985  -53.1398 H         1 UNK         0.0600 
    230 H230       -3.1787  -18.8725  -53.1412 H         1 UNK         0.3000 
    231 H231       -1.9378  -16.6348  -54.5803 H         1 UNK         0.0600 
    232 H232       -1.9353  -16.9255  -52.0220 H         1 UNK         0.0600 
    233 H233       -3.6652  -16.6231  -52.0485 H         1 UNK         0.0600 
    234 H234       -2.5438  -15.3748  -52.5760 H         1 UNK         0.0600 
    235 H235       -3.2325  -14.6521  -54.9413 H         1 UNK         0.3000 
    236 H236       -5.8197  -15.0677  -56.2117 H         1 UNK         0.0600 
    237 H237       -5.6681  -12.6077  -56.5939 H         1 UNK         0.0600 
    238 H238       -4.2411  -12.5166  -55.5686 H         1 UNK         0.0600 
    239 H239       -4.1869  -13.4103  -57.0884 H         1 UNK         0.0600 
    240 H240       -4.7309  -14.3906  -53.0103 H         1 UNK         0.3000 
    241 H241       -5.6636  -14.0756  -51.0593 H         1 UNK         0.0600 
    242 H242       -5.6764  -11.6635  -53.0964 H         1 UNK         0.3800 
    243 H243       -6.5914  -10.4881  -52.1893 H         1 UNK         0.3800 
    244 H244       -8.3813  -14.7218  -52.2803 H         1 UNK         0.0800 
    245 H245       -8.0231  -14.7041  -50.5840 H         1 UNK         0.0800 
    246 H246       -7.2720  -17.9771  -49.6766 H         1 UNK         0.0800 
    247 H247       -7.1155  -16.2968  -49.2543 H         1 UNK         0.0800 
@<TRIPOS>BOND
     1    1    2 1    
     2    1  127 1    
     3    1  128 1    
     4    1  129 1    
     5    2    3 2    
     6    2    4 am   BACKBONE|DICT|INTERRES
     7    4    5 1    
     8    4  130 1    
     9    5    6 1    
    10    5   65 1    
    11    5  131 1    
    12    6    7 1    
    13    6  132 1    
    14    6  133 1    
    15    7    8 1    
    16    8    9 1    
    17    8  134 1    
    18    8  135 1    
    19    9   10 ar   
    20    9   14 ar   
    21   10   11 ar   
    22   10  136 1    
    23   11   12 ar   
    24   11  126 1    
    25   12   13 ar   
    26   12  137 1    
    27   13   14 ar   
    28   13   15 1    
    29   14  138 1    
    30   15   16 1    
    31   15  139 1    
    32   15  140 1    
    33   16   17 1    
    34   17   18 1    
    35   17  141 1    
    36   17  142 1    
    37   18   19 1    
    38   18   67 1    
    39   18  143 1    
    40   19   20 am   BACKBONE|DICT|INTERRES
    41   19  144 1    
    42   20   21 2    
    43   20   22 1    
    44   22   23 1    
    45   22   24 1    
    46   22  145 1    
    47   23  146 1    
    48   23  147 1    
    49   23  148 1    
    50   24   25 am   BACKBONE|DICT|INTERRES
    51   24  149 1    
    52   25   26 2    
    53   25   27 1    
    54   27   28 1    
    55   27   29 1    
    56   27  150 1    
    57   28  151 1    
    58   28  152 1    
    59   28  153 1    
    60   29   30 am   BACKBONE|DICT|INTERRES
    61   29  154 1    
    62   30   31 2    
    63   30   32 1    
    64   32   33 1    
    65   32   34 1    
    66   32  155 1    
    67   33  156 1    
    68   33  157 1    
    69   33  158 1    
    70   34   35 am   BACKBONE|DICT|INTERRES
    71   34  159 1    
    72   35   36 2    
    73   35   37 1    
    74   37   38 1    
    75   37   39 1    
    76   37  160 1    
    77   38  161 1    
    78   38  162 1    
    79   38  163 1    
    80   39   40 am   BACKBONE|DICT|INTERRES
    81   39  164 1    
    82   40   41 2    
    83   40   42 1    
    84   42   43 1    
    85   42   44 1    
    86   42  165 1    
    87   43  166 1    
    88   43  167 1    
    89   43  168 1    
    90   44   45 am   BACKBONE|DICT|INTERRES
    91   44  169 1    
    92   45   46 2    
    93   45   47 1    
    94   47   48 1    
    95   47   49 1    
    96   47  170 1    
    97   48  171 1    
    98   48  172 1    
    99   48  173 1    
   100   49   50 am   BACKBONE|DICT|INTERRES
   101   49  174 1    
   102   50   51 2    
   103   50   52 1    
   104   52   53 1    
   105   52   54 1    
   106   52  175 1    
   107   53  176 1    
   108   53  177 1    
   109   53  178 1    
   110   54   55 am   BACKBONE|DICT|INTERRES
   111   54  179 1    
   112   55   56 2    
   113   55   57 1    
   114   57   58 1    
   115   57   59 1    
   116   57  180 1    
   117   58  181 1    
   118   58  182 1    
   119   58  183 1    
   120   59   60 am   BACKBONE|DICT|INTERRES
   121   59  184 1    
   122   60   61 2    
   123   60   62 1    
   124   62   63 1    
   125   62   64 1    
   126   62  185 1    
   127   63  186 1    
   128   63  187 1    
   129   63  188 1    
   130   64   65 am   BACKBONE|DICT|INTERRES
   131   64  189 1    
   132   65   66 2    
   133   67   68 2    
   134   67   69 am   BACKBONE|DICT|INTERRES
   135   69   70 1    
   136   69  190 1    
   137   70   71 1    
   138   70   72 1    
   139   70  191 1    
   140   71  192 1    
   141   71  193 1    
   142   71  194 1    
   143   72   73 2    
   144   72   74 am   BACKBONE|DICT|INTERRES
   145   74   75 1    
   146   74  195 1    
   147   75   76 1    
   148   75   77 1    
   149   75  196 1    
   150   76  197 1    
   151   76  198 1    
   152   76  199 1    
   153   77   78 2    
   154   77   79 am   BACKBONE|DICT|INTERRES
   155   79   80 1    
   156   79  200 1    
   157   80   81 1    
   158   80   82 1    
   159   80  201 1    
   160   81  202 1    
   161   81  203 1    
   162   81  204 1    
   163   82   83 2    
   164   82   84 am   BACKBONE|DICT|INTERRES
   165   84   85 1    
   166   84  205 1    
   167   85   86 1    
   168   85   87 1    
   169   85  206 1    
   170   86  207 1    
   171   86  208 1    
   172   86  209 1    
   173   87   88 2    
   174   87   89 am   BACKBONE|DICT|INTERRES
   175   89   90 1    
   176   89  210 1    
   177   90   91 1    
   178   90   92 1    
   179   90  211 1    
   180   91  212 1    
   181   91  213 1    
   182   91  214 1    
   183   92   93 2    
   184   92   94 am   BACKBONE|DICT|INTERRES
   185   94   95 1    
   186   94  215 1    
   187   95   96 1    
   188   95   97 1    
   189   95  216 1    
   190   96  217 1    
   191   96  218 1    
   192   96  219 1    
   193   97   98 2    
   194   97   99 am   BACKBONE|DICT|INTERRES
   195   99  100 1    
   196   99  220 1    
   197  100  101 1    
   198  100  102 1    
   199  100  221 1    
   200  101  222 1    
   201  101  223 1    
   202  101  224 1    
   203  102  103 2    
   204  102  104 am   BACKBONE|DICT|INTERRES
   205  104  105 1    
   206  104  225 1    
   207  105  106 1    
   208  105  107 1    
   209  105  226 1    
   210  106  227 1    
   211  106  228 1    
   212  106  229 1    
   213  107  108 2    
   214  107  109 am   BACKBONE|DICT|INTERRES
   215  109  110 1    
   216  109  230 1    
   217  110  111 1    
   218  110  112 1    
   219  110  231 1    
   220  111  232 1    
   221  111  233 1    
   222  111  234 1    
   223  112  113 2    
   224  112  114 am   BACKBONE|DICT|INTERRES
   225  114  115 1    
   226  114  235 1    
   227  115  116 1    
   228  115  117 1    
   229  115  236 1    
   230  116  237 1    
   231  116  238 1    
   232  116  239 1    
   233  117  118 2    
   234  117  119 am   BACKBONE|DICT|INTERRES
   235  119  120 1    
   236  119  240 1    
   237  120  121 1    
   238  120  124 1    
   239  120  241 1    
   240  121  122 am   BACKBONE|DICT|INTERRES
   241  121  123 2    
   242  122  242 1    
   243  122  243 1    
   244  124  125 1    
   245  124  244 1    
   246  124  245 1    
   247  125  126 1    
   248  126  246 1    
   249  126  247 1    
@<TRIPOS>SUBSTRUCTURE
     1 UNK         1 GROUP             0       ****    0 ROOT    
