@<TRIPOS>MOLECULE
3R540
247   249    1
SMALL
USER_CHARGES


@<TRIPOS>ATOM
      1 CA          3.1964  -18.9641  -47.2041 C.3       0 UNK        -0.1800 
      2 C           3.3796  -17.5455  -46.6870 C.2       0 UNK         0.5000 
      3 O           3.1743  -17.2947  -45.5006 O.2       0 UNK        -0.5000 
      4 N           3.7810  -16.6170  -47.5673 N.am      1 UNK        -0.5000 
      5 CA          3.9028  -15.1729  -47.3036 C.3       1 UNK         0.1400 
      6 C6          4.2136  -14.3507  -48.5839 C.3       23 UNK        -0.0398 
      7 S7          3.3005  -14.8402  -50.0906 S.3       23 UNK        -0.2404 
      8 C8          1.5547  -14.7840  -49.5734 C.3       23 UNK        -0.0205 
      9 C9          0.6718  -15.4873  -50.5920 C.ar      23 UNK        -0.0193 
     10 C10        -0.2303  -14.7720  -51.3831 C.ar      23 UNK        -0.1150 
     11 C11        -1.0291  -15.4339  -52.3214 C.ar      23 UNK        -0.0193 
     12 C12        -0.9257  -16.8224  -52.4544 C.ar      23 UNK        -0.1150 
     13 C13        -0.0240  -17.5540  -51.6741 C.ar      23 UNK        -0.0193 
     14 C14         0.7739  -16.8710  -50.7484 C.ar      23 UNK        -0.1150 
     15 C15         0.0802  -19.0650  -51.8990 C.3       23 UNK        -0.0205 
     16 S16         0.9456  -20.0219  -50.6043 S.3       23 UNK        -0.2404 
     17 C17        -0.0950  -19.6569  -49.1564 C.3       23 UNK        -0.0398 
     18 CA         -0.1926  -20.8358  -48.1627 C.3       11 UNK         0.1400 
     19 N          -0.3958  -20.3524  -46.7970 N.am      11 UNK        -0.5000 
     20 C          -0.4181  -21.1127  -45.6951 C.2       10 UNK         0.5000 
     21 O          -0.2106  -22.3253  -45.6878 O.2       10 UNK        -0.5000 
     22 CA         -0.7958  -20.3954  -44.3897 C.3       10 UNK         0.1400 
     23 CB          0.4320  -19.7172  -43.7620 C.3       10 UNK        -0.1800 
     24 N          -1.8631  -19.4157  -44.6104 N.am      10 UNK        -0.5000 
     25 C          -3.1320  -19.7494  -44.8931 C.2       9 UNK         0.5000 
     26 O          -3.5422  -20.9102  -44.9088 O.2       9 UNK        -0.5000 
     27 CA         -4.0894  -18.6054  -45.2770 C.3       9 UNK         0.1400 
     28 CB         -4.7297  -17.9782  -44.0304 C.3       9 UNK        -0.1800 
     29 N          -3.4323  -17.5702  -46.0791 N.am      9 UNK        -0.5000 
     30 C          -3.0439  -17.7578  -47.3499 C.2       8 UNK         0.5000 
     31 O          -3.2323  -18.8053  -47.9629 O.2       8 UNK        -0.5000 
     32 CA         -2.2751  -16.6211  -48.0502 C.3       8 UNK         0.1400 
     33 CB         -3.2394  -15.7271  -48.8370 C.3       8 UNK        -0.1800 
     34 N          -1.4795  -15.7988  -47.1417 N.am      8 UNK        -0.5000 
     35 C          -0.4896  -16.2549  -46.3644 C.2       7 UNK         0.5000 
     36 O          -0.1238  -17.4310  -46.3542 O.2       7 UNK        -0.5000 
     37 CA          0.1703  -15.2426  -45.4090 C.3       7 UNK         0.1400 
     38 CB         -0.0288  -13.7690  -45.8241 C.3       7 UNK        -0.1800 
     39 N          -0.2487  -15.4354  -44.0204 N.am      7 UNK        -0.5000 
     40 C          -1.4942  -15.5000  -43.5264 C.2       6 UNK         0.5000 
     41 O          -2.5133  -15.4302  -44.2141 O.2       6 UNK        -0.5000 
     42 CA         -1.6219  -15.6586  -42.0021 C.3       6 UNK         0.1400 
     43 CB         -1.3729  -17.1151  -41.5827 C.3       6 UNK        -0.1800 
     44 N          -0.6614  -14.8037  -41.3073 N.am      6 UNK        -0.5000 
     45 C          -0.9671  -13.7410  -40.5523 C.2       5 UNK         0.5000 
     46 O          -2.1191  -13.3783  -40.3108 O.2       5 UNK        -0.5000 
     47 CA          0.2148  -12.9408  -39.9631 C.3       5 UNK         0.1400 
     48 CB          0.5187  -13.4091  -38.5319 C.3       5 UNK        -0.1800 
     49 N           1.4379  -13.0378  -40.7637 N.am      5 UNK        -0.5000 
     50 C           1.5856  -12.5247  -41.9924 C.2       4 UNK         0.5000 
     51 O           0.7348  -11.8247  -42.5422 O.2       4 UNK        -0.5000 
     52 CA          2.8861  -12.8572  -42.7510 C.3       4 UNK         0.1400 
     53 CB          3.8569  -11.6682  -42.6918 C.3       4 UNK        -0.1800 
     54 N           3.6032  -14.0666  -42.3282 N.am      4 UNK        -0.5000 
     55 C           3.1164  -15.3132  -42.2571 C.2       3 UNK         0.5000 
     56 O           1.9186  -15.5860  -42.3359 O.2       3 UNK        -0.5000 
     57 CA          4.1600  -16.4372  -42.1333 C.3       3 UNK         0.1400 
     58 CB          3.5184  -17.8325  -42.0215 C.3       3 UNK        -0.1800 
     59 N           5.0217  -16.4033  -43.3134 N.am      3 UNK        -0.5000 
     60 C           6.1600  -15.7027  -43.4169 C.2       2 UNK         0.5000 
     61 O           6.6634  -15.0861  -42.4773 O.2       2 UNK        -0.5000 
     62 CA          6.8216  -15.6317  -44.8080 C.3       2 UNK         0.1400 
     63 CB          7.8698  -16.7437  -44.9627 C.3       2 UNK        -0.1800 
     64 N           5.8607  -15.7237  -45.9088 N.am      2 UNK        -0.5000 
     65 C           4.9117  -14.8172  -46.1875 C.2       1 UNK         0.5000 
     66 O           4.8004  -13.7434  -45.5961 O.2       1 UNK        -0.5000 
     67 C          -1.2779  -21.8514  -48.5751 C.2       11 UNK         0.5000 
     68 O          -0.9459  -22.9407  -49.0409 O.2       11 UNK        -0.5000 
     69 N          -2.5499  -21.5002  -48.3339 N.am      12 UNK        -0.5000 
     70 CA         -3.7164  -22.3534  -48.5518 C.3       12 UNK         0.1400 
     71 CB         -5.0023  -21.5722  -48.2418 C.3       12 UNK        -0.1800 
     72 C          -3.6661  -23.6453  -47.7220 C.2       12 UNK         0.5000 
     73 O          -3.9221  -24.7165  -48.2687 O.2       12 UNK        -0.5000 
     74 N          -3.3075  -23.5325  -46.4355 N.am      13 UNK        -0.5000 
     75 CA         -3.1499  -24.6683  -45.5262 C.3       13 UNK         0.1400 
     76 CB         -2.9124  -24.1583  -44.0968 C.3       13 UNK        -0.1800 
     77 C          -2.0303  -25.6330  -45.9604 C.2       13 UNK         0.5000 
     78 O          -2.2349  -26.8471  -45.9373 O.2       13 UNK        -0.5000 
     79 N          -0.8823  -25.0779  -46.3719 N.am      14 UNK        -0.5000 
     80 CA          0.2781  -25.8283  -46.8511 C.3       14 UNK         0.1400 
     81 CB          1.4892  -24.8870  -46.9428 C.3       14 UNK        -0.1800 
     82 C           0.0313  -26.5248  -48.2018 C.2       14 UNK         0.5000 
     83 O           0.4161  -27.6830  -48.3673 O.2       14 UNK        -0.5000 
     84 N          -0.6003  -25.8095  -49.1411 N.am      15 UNK        -0.5000 
     85 CA         -0.8405  -26.2683  -50.5107 C.3       15 UNK         0.1400 
     86 CB         -0.8887  -25.0414  -51.4322 C.3       15 UNK        -0.1800 
     87 C          -2.1220  -27.1059  -50.6781 C.2       15 UNK         0.5000 
     88 O          -2.3796  -27.5713  -51.7879 O.2       15 UNK        -0.5000 
     89 N          -2.9224  -27.2488  -49.6117 N.am      16 UNK        -0.5000 
     90 CA         -4.2432  -27.8911  -49.5830 C.3       16 UNK         0.1400 
     91 CB         -4.1305  -29.4078  -49.8435 C.3       16 UNK        -0.1800 
     92 C          -5.2484  -27.1801  -50.5163 C.2       16 UNK         0.5000 
     93 O          -5.9303  -27.8205  -51.3179 O.2       16 UNK        -0.5000 
     94 N          -5.2831  -25.8467  -50.3930 N.am      17 UNK        -0.5000 
     95 CA         -6.1162  -24.8738  -51.1066 C.3       17 UNK         0.1400 
     96 CB         -7.6140  -25.1310  -50.8431 C.3       17 UNK        -0.1800 
     97 C          -5.8013  -24.7191  -52.6113 C.2       17 UNK         0.5000 
     98 O          -6.5706  -24.0706  -53.3222 O.2       17 UNK        -0.5000 
     99 N          -4.6862  -25.2937  -53.0854 N.am      18 UNK        -0.5000 
    100 CA        -4.2753  -25.2277  -54.4892 C.3       18 UNK         0.1400 
    101 CB        -3.3136  -26.3849  -54.7982 C.3       18 UNK        -0.1800 
    102 C         -3.6343  -23.8776  -54.8591 C.2       18 UNK         0.5000 
    103 O         -3.9294  -23.3376  -55.9258 O.2       18 UNK        -0.5000 
    104 N         -2.7566  -23.3672  -53.9836 N.am      19 UNK        -0.5000 
    105 CA        -1.9634  -22.1584  -54.2292 C.3       19 UNK         0.1400 
    106 CB        -0.6485  -22.2543  -53.4413 C.3       19 UNK        -0.1800 
    107 C         -2.7062  -20.8592  -53.8700 C.2       19 UNK         0.5000 
    108 O         -2.3868  -19.8073  -54.4242 O.2       19 UNK        -0.5000 
    109 N         -3.6675  -20.9483  -52.9467 N.am      20 UNK        -0.5000 
    110 CA        -4.5093  -19.8523  -52.4857 C.3       20 UNK         0.1400 
    111 CB        -3.8723  -19.1848  -51.2544 C.3       20 UNK        -0.1800 
    112 C         -5.8859  -20.4503  -52.1499 C.2       20 UNK         0.5000 
    113 O         -5.9094  -21.4506  -51.4341 O.2       20 UNK        -0.5000 
    114 N         -7.0236  -19.9151  -52.6199 N.am      21 UNK        -0.5000 
    115 CA        -7.2579  -18.7463  -53.4774 C.3       21 UNK         0.1400 
    116 CB        -6.8246  -19.0201  -54.9372 C.3       21 UNK        -0.1800 
    117 C         -6.7370  -17.4283  -52.8645 C.2       21 UNK         0.5000 
    118 O         -6.8933  -17.2311  -51.6588 O.2       21 UNK        -0.5000 
    119 N         -6.1443  -16.5537  -53.6894 N.am      22 UNK        -0.5000 
    120 CA        -5.6566  -15.2131  -53.3101 C.3       22 UNK         0.1400 
    121 C         -6.7955  -14.1898  -52.9872 C.2       22 UNK         0.5000 
    122 N         -8.0197  -14.4026  -53.4563 N.am      22 UNK        -0.7600 
    123 O         -6.5781  -13.1797  -52.3244 O.2       22 UNK        -0.5000 
    124 C124       -4.5371  -15.2736  -52.2277 C.3       23 UNK        -0.0398 
    125 S125       -3.3509  -13.8892  -52.3361 S.3       23 UNK        -0.2404 
    126 C126       -1.9554  -14.6390  -53.2321 C.3       23 UNK        -0.0205 
    127 H127        3.1890  -19.0005  -48.2937 H         1 UNK         0.0600 
    128 H128        2.2512  -19.3690  -46.8451 H         1 UNK         0.0600 
    129 H129        4.0007  -19.6034  -46.8411 H         1 UNK         0.0600 
    130 H130        3.9504  -16.8879  -48.5260 H         1 UNK         0.3000 
    131 H131        2.9318  -14.8435  -46.9332 H         1 UNK         0.0600 
    132 H132        5.2745  -14.4262  -48.8305 H         1 UNK         0.0800 
    133 H133        4.0247  -13.2911  -48.4023 H         1 UNK         0.0800 
    134 H134        1.4247  -15.2831  -48.6142 H         1 UNK         0.0800 
    135 H135        1.2482  -13.7461  -49.4350 H         1 UNK         0.0800 
    136 H136       -0.3040  -13.6983  -51.2813 H         1 UNK         0.1150 
    137 H137       -1.5321  -17.3362  -53.1880 H         1 UNK         0.1150 
    138 H138        1.5008  -17.4010  -50.1519 H         1 UNK         0.1150 
    139 H139       -0.9181  -19.4842  -52.0126 H         1 UNK         0.0800 
    140 H140        0.5940  -19.2296  -52.8465 H         1 UNK         0.0800 
    141 H141       -1.0822  -19.3261  -49.4823 H         1 UNK         0.0800 
    142 H142        0.3572  -18.7966  -48.6628 H         1 UNK         0.0800 
    143 H143        0.7634  -21.3640  -48.1554 H         1 UNK         0.0600 
    144 H144       -0.5249  -19.3521  -46.6832 H         1 UNK         0.3000 
    145 H145       -1.1574  -21.1514  -43.6895 H         1 UNK         0.0600 
    146 H146        0.2127  -19.3690  -42.7546 H         1 UNK         0.0600 
    147 H147        1.2655  -20.4160  -43.6809 H         1 UNK         0.0600 
    148 H148        0.7790  -18.8653  -44.3473 H         1 UNK         0.0600 
    149 H149       -1.5834  -18.4490  -44.6924 H         1 UNK         0.3000 
    150 H150       -4.8923  -19.0381  -45.8778 H         1 UNK         0.0600 
    151 H151       -5.2647  -18.7297  -43.4484 H         1 UNK         0.0600 
    152 H152       -5.4489  -17.2061  -44.3039 H         1 UNK         0.0600 
    153 H153       -3.9878  -17.5252  -43.3747 H         1 UNK         0.0600 
    154 H154       -3.2126  -16.6948  -45.6130 H         1 UNK         0.3000 
    155 H155       -1.5885  -17.0789  -48.7638 H         1 UNK         0.0600 
    156 H156       -2.6984  -14.9983  -49.4408 H         1 UNK         0.0600 
    157 H157       -3.9199  -15.1860  -48.1786 H         1 UNK         0.0600 
    158 H158       -3.8449  -16.3279  -49.5157 H         1 UNK         0.0600 
    159 H159       -1.7497  -14.8301  -47.0555 H         1 UNK         0.3000 
    160 H160        1.2390  -15.4519  -45.4312 H         1 UNK         0.0600 
    161 H161       -1.0690  -13.4528  -45.7392 H         1 UNK         0.0600 
    162 H162        0.2917  -13.5996  -46.8527 H         1 UNK         0.0600 
    163 H163        0.5625  -13.1064  -45.1928 H         1 UNK         0.0600 
    164 H164        0.5249  -15.5536  -43.3677 H         1 UNK         0.3000 
    165 H165       -2.6460  -15.3954  -41.7295 H         1 UNK         0.0600 
    166 H166       -0.3319  -17.3985  -41.7378 H         1 UNK         0.0600 
    167 H167       -1.5995  -17.2598  -40.5264 H         1 UNK         0.0600 
    168 H168       -1.9954  -17.8098  -42.1461 H         1 UNK         0.0600 
    169 H169        0.3191  -15.0053  -41.4800 H         1 UNK         0.3000 
    170 H170       -0.0841  -11.8912  -39.9240 H         1 UNK         0.0600 
    171 H171       -0.3647  -13.3252  -37.8975 H         1 UNK         0.0600 
    172 H172        0.8411  -14.4510  -38.5095 H         1 UNK         0.0600 
    173 H173        1.3028  -12.8040  -38.0763 H         1 UNK         0.0600 
    174 H174        2.1872  -13.5999  -40.3880 H         1 UNK         0.3000 
    175 H175        2.6079  -13.0110  -43.7952 H         1 UNK         0.0600 
    176 H176        4.2162  -11.4942  -41.6768 H         1 UNK         0.0600 
    177 H177        4.7234  -11.8352  -43.3323 H         1 UNK         0.0600 
    178 H178        3.3765  -10.7502  -43.0333 H         1 UNK         0.0600 
    179 H179        4.6066  -13.9668  -42.2480 H         1 UNK         0.3000 
    180 H180        4.7430  -16.2594  -41.2273 H         1 UNK         0.0600 
    181 H181        2.9087  -18.0689  -42.8944 H         1 UNK         0.0600 
    182 H182        2.8738  -17.8974  -41.1442 H         1 UNK         0.0600 
    183 H183        4.2781  -18.6081  -41.9258 H         1 UNK         0.0600 
    184 H184        4.6190  -16.8078  -44.1532 H         1 UNK         0.3000 
    185 H185        7.3293  -14.6679  -44.8835 H         1 UNK         0.0600 
    186 H186        8.3984  -16.6590  -45.9124 H         1 UNK         0.0600 
    187 H187        8.6173  -16.6886  -44.1701 H         1 UNK         0.0600 
    188 H188        7.4155  -17.7344  -44.9173 H         1 UNK         0.0600 
    189 H189        5.8710  -16.5770  -46.4481 H         1 UNK         0.3000 
    190 H190       -2.7447  -20.5593  -47.9979 H         1 UNK         0.3000 
    191 H191       -3.7301  -22.6303  -49.6079 H         1 UNK         0.0600 
    192 H192       -5.0454  -21.2599  -47.1985 H         1 UNK         0.0600 
    193 H193       -5.8848  -22.1815  -48.4408 H         1 UNK         0.0600 
    194 H194       -5.0848  -20.6780  -48.8584 H         1 UNK         0.0600 
    195 H195       -3.1490  -22.6093  -46.0464 H         1 UNK         0.3000 
    196 H196       -4.0876  -25.2279  -45.5322 H         1 UNK         0.0600 
    197 H197       -2.8186  -24.9889  -43.3963 H         1 UNK         0.0600 
    198 H198       -3.7422  -23.5382  -43.7571 H         1 UNK         0.0600 
    199 H199       -2.0012  -23.5643  -44.0258 H         1 UNK         0.0600 
    200 H200       -0.7798  -24.0678  -46.3203 H         1 UNK         0.3000 
    201 H201        0.5066  -26.6018  -46.1150 H         1 UNK         0.0600 
    202 H202        1.7288  -24.4586  -45.9694 H         1 UNK         0.0600 
    203 H203        1.3069  -24.0624  -47.6334 H         1 UNK         0.0600 
    204 H204        2.3748  -25.4197  -47.2912 H         1 UNK         0.0600 
    205 H205       -0.8484  -24.8431  -48.9409 H         1 UNK         0.3000 
    206 H206       -0.0027  -26.8923  -50.8288 H         1 UNK         0.0600 
    207 H207        0.0133  -24.4378  -51.3278 H         1 UNK         0.0600 
    208 H208       -0.9570  -25.3387  -52.4787 H         1 UNK         0.0600 
    209 H209       -1.7455  -24.4058  -51.2055 H         1 UNK         0.0600 
    210 H210       -2.6469  -26.7787  -48.7595 H         1 UNK         0.3000 
    211 H211       -4.6231  -27.7602  -48.5686 H         1 UNK         0.0600 
    212 H212       -3.8034  -29.6252  -50.8606 H         1 UNK         0.0600 
    213 H213       -5.0936  -29.8989  -49.6998 H         1 UNK         0.0600 
    214 H214       -3.4233  -29.8730  -49.1570 H         1 UNK         0.0600 
    215 H215       -4.6859  -25.4436  -49.6704 H         1 UNK         0.3000 
    216 H216       -5.8729  -23.9133  -50.6536 H         1 UNK         0.0600 
    217 H217       -7.8181  -25.2143  -49.7757 H         1 UNK         0.0600 
    218 H218       -7.9596  -26.0457  -51.3253 H         1 UNK         0.0600 
    219 H219       -8.2241  -24.3112  -51.2242 H         1 UNK         0.0600 
    220 H220       -4.1261  -25.8610  -52.4644 H         1 UNK         0.3000 
    221 H221       -5.1596  -25.3596  -55.1167 H         1 UNK         0.0600 
    222 H222       -2.3881  -26.3086  -54.2275 H         1 UNK         0.0600 
    223 H223       -3.7689  -27.3484  -54.5678 H         1 UNK         0.0600 
    224 H224       -3.0453  -26.3962  -55.8553 H         1 UNK         0.0600 
    225 H225       -2.5721  -23.8719  -53.1310 H         1 UNK         0.3000 
    226 H226       -1.7108  -22.1101  -55.2908 H         1 UNK         0.0600 
    227 H227       -0.1096  -23.1713  -53.6794 H         1 UNK         0.0600 
    228 H228        0.0127  -21.4245  -53.6903 H         1 UNK         0.0600 
    229 H229       -0.8173  -22.2280  -52.3638 H         1 UNK         0.0600 
    230 H230       -3.9154  -21.8548  -52.5749 H         1 UNK         0.3000 
    231 H231       -4.5874  -19.1035  -53.2680 H         1 UNK         0.0600 
    232 H232       -4.5741  -18.5156  -50.7558 H         1 UNK         0.0600 
    233 H233       -3.0068  -18.5876  -51.5329 H         1 UNK         0.0600 
    234 H234       -3.5461  -19.9218  -50.5217 H         1 UNK         0.0600 
    235 H235       -7.8756  -20.3622  -52.3151 H         1 UNK         0.3000 
    236 H236       -8.3424  -18.6295  -53.4976 H         1 UNK         0.0600 
    237 H237       -7.2436  -19.9619  -55.2921 H         1 UNK         0.0600 
    238 H238       -7.1965  -18.2440  -55.6070 H         1 UNK         0.0600 
    239 H239       -5.7459  -19.0760  -55.0727 H         1 UNK         0.0600 
    240 H240       -6.0640  -16.7869  -54.6691 H         1 UNK         0.3000 
    241 H241       -5.1997  -14.8292  -54.2229 H         1 UNK         0.0600 
    242 H242       -8.2263  -15.2131  -54.0175 H         1 UNK         0.3800 
    243 H243       -8.7489  -13.7372  -53.2514 H         1 UNK         0.3800 
    244 H244       -4.9789  -15.2773  -51.2310 H         1 UNK         0.0800 
    245 H245       -3.9772  -16.2061  -52.3073 H         1 UNK         0.0800 
    246 H246       -1.3786  -13.8416  -53.7028 H         1 UNK         0.0800 
    247 H247       -2.3338  -15.2581  -54.0471 H         1 UNK         0.0800 
@<TRIPOS>BOND
     1    1    2 1    
     2    1  127 1    
     3    1  128 1    
     4    1  129 1    
     5    2    3 2    
     6    2    4 am   BACKBONE|DICT|INTERRES
     7    4    5 1    
     8    4  130 1    
     9    5    6 1    
    10    5   65 1    
    11    5  131 1    
    12    6    7 1    
    13    6  132 1    
    14    6  133 1    
    15    7    8 1    
    16    8    9 1    
    17    8  134 1    
    18    8  135 1    
    19    9   10 ar   
    20    9   14 ar   
    21   10   11 ar   
    22   10  136 1    
    23   11   12 ar   
    24   11  126 1    
    25   12   13 ar   
    26   12  137 1    
    27   13   14 ar   
    28   13   15 1    
    29   14  138 1    
    30   15   16 1    
    31   15  139 1    
    32   15  140 1    
    33   16   17 1    
    34   17   18 1    
    35   17  141 1    
    36   17  142 1    
    37   18   19 1    
    38   18   67 1    
    39   18  143 1    
    40   19   20 am   BACKBONE|DICT|INTERRES
    41   19  144 1    
    42   20   21 2    
    43   20   22 1    
    44   22   23 1    
    45   22   24 1    
    46   22  145 1    
    47   23  146 1    
    48   23  147 1    
    49   23  148 1    
    50   24   25 am   BACKBONE|DICT|INTERRES
    51   24  149 1    
    52   25   26 2    
    53   25   27 1    
    54   27   28 1    
    55   27   29 1    
    56   27  150 1    
    57   28  151 1    
    58   28  152 1    
    59   28  153 1    
    60   29   30 am   BACKBONE|DICT|INTERRES
    61   29  154 1    
    62   30   31 2    
    63   30   32 1    
    64   32   33 1    
    65   32   34 1    
    66   32  155 1    
    67   33  156 1    
    68   33  157 1    
    69   33  158 1    
    70   34   35 am   BACKBONE|DICT|INTERRES
    71   34  159 1    
    72   35   36 2    
    73   35   37 1    
    74   37   38 1    
    75   37   39 1    
    76   37  160 1    
    77   38  161 1    
    78   38  162 1    
    79   38  163 1    
    80   39   40 am   BACKBONE|DICT|INTERRES
    81   39  164 1    
    82   40   41 2    
    83   40   42 1    
    84   42   43 1    
    85   42   44 1    
    86   42  165 1    
    87   43  166 1    
    88   43  167 1    
    89   43  168 1    
    90   44   45 am   BACKBONE|DICT|INTERRES
    91   44  169 1    
    92   45   46 2    
    93   45   47 1    
    94   47   48 1    
    95   47   49 1    
    96   47  170 1    
    97   48  171 1    
    98   48  172 1    
    99   48  173 1    
   100   49   50 am   BACKBONE|DICT|INTERRES
   101   49  174 1    
   102   50   51 2    
   103   50   52 1    
   104   52   53 1    
   105   52   54 1    
   106   52  175 1    
   107   53  176 1    
   108   53  177 1    
   109   53  178 1    
   110   54   55 am   BACKBONE|DICT|INTERRES
   111   54  179 1    
   112   55   56 2    
   113   55   57 1    
   114   57   58 1    
   115   57   59 1    
   116   57  180 1    
   117   58  181 1    
   118   58  182 1    
   119   58  183 1    
   120   59   60 am   BACKBONE|DICT|INTERRES
   121   59  184 1    
   122   60   61 2    
   123   60   62 1    
   124   62   63 1    
   125   62   64 1    
   126   62  185 1    
   127   63  186 1    
   128   63  187 1    
   129   63  188 1    
   130   64   65 am   BACKBONE|DICT|INTERRES
   131   64  189 1    
   132   65   66 2    
   133   67   68 2    
   134   67   69 am   BACKBONE|DICT|INTERRES
   135   69   70 1    
   136   69  190 1    
   137   70   71 1    
   138   70   72 1    
   139   70  191 1    
   140   71  192 1    
   141   71  193 1    
   142   71  194 1    
   143   72   73 2    
   144   72   74 am   BACKBONE|DICT|INTERRES
   145   74   75 1    
   146   74  195 1    
   147   75   76 1    
   148   75   77 1    
   149   75  196 1    
   150   76  197 1    
   151   76  198 1    
   152   76  199 1    
   153   77   78 2    
   154   77   79 am   BACKBONE|DICT|INTERRES
   155   79   80 1    
   156   79  200 1    
   157   80   81 1    
   158   80   82 1    
   159   80  201 1    
   160   81  202 1    
   161   81  203 1    
   162   81  204 1    
   163   82   83 2    
   164   82   84 am   BACKBONE|DICT|INTERRES
   165   84   85 1    
   166   84  205 1    
   167   85   86 1    
   168   85   87 1    
   169   85  206 1    
   170   86  207 1    
   171   86  208 1    
   172   86  209 1    
   173   87   88 2    
   174   87   89 am   BACKBONE|DICT|INTERRES
   175   89   90 1    
   176   89  210 1    
   177   90   91 1    
   178   90   92 1    
   179   90  211 1    
   180   91  212 1    
   181   91  213 1    
   182   91  214 1    
   183   92   93 2    
   184   92   94 am   BACKBONE|DICT|INTERRES
   185   94   95 1    
   186   94  215 1    
   187   95   96 1    
   188   95   97 1    
   189   95  216 1    
   190   96  217 1    
   191   96  218 1    
   192   96  219 1    
   193   97   98 2    
   194   97   99 am   BACKBONE|DICT|INTERRES
   195   99  100 1    
   196   99  220 1    
   197  100  101 1    
   198  100  102 1    
   199  100  221 1    
   200  101  222 1    
   201  101  223 1    
   202  101  224 1    
   203  102  103 2    
   204  102  104 am   BACKBONE|DICT|INTERRES
   205  104  105 1    
   206  104  225 1    
   207  105  106 1    
   208  105  107 1    
   209  105  226 1    
   210  106  227 1    
   211  106  228 1    
   212  106  229 1    
   213  107  108 2    
   214  107  109 am   BACKBONE|DICT|INTERRES
   215  109  110 1    
   216  109  230 1    
   217  110  111 1    
   218  110  112 1    
   219  110  231 1    
   220  111  232 1    
   221  111  233 1    
   222  111  234 1    
   223  112  113 2    
   224  112  114 am   BACKBONE|DICT|INTERRES
   225  114  115 1    
   226  114  235 1    
   227  115  116 1    
   228  115  117 1    
   229  115  236 1    
   230  116  237 1    
   231  116  238 1    
   232  116  239 1    
   233  117  118 2    
   234  117  119 am   BACKBONE|DICT|INTERRES
   235  119  120 1    
   236  119  240 1    
   237  120  121 1    
   238  120  124 1    
   239  120  241 1    
   240  121  122 am   BACKBONE|DICT|INTERRES
   241  121  123 2    
   242  122  242 1    
   243  122  243 1    
   244  124  125 1    
   245  124  244 1    
   246  124  245 1    
   247  125  126 1    
   248  126  246 1    
   249  126  247 1    
@<TRIPOS>SUBSTRUCTURE
     1 UNK         1 GROUP             0       ****    0 ROOT    
