@<TRIPOS>MOLECULE
3R540
247   249    1
SMALL
USER_CHARGES


@<TRIPOS>ATOM
      1 CA         -5.3263  -14.0019  -47.7874 C.3       0 UNK        -0.1800 
      2 C          -4.2958  -13.6109  -48.8373 C.2       0 UNK         0.5000 
      3 O          -4.2945  -12.4716  -49.3036 O.2       0 UNK        -0.5000 
      4 N          -3.4225  -14.5539  -49.2088 N.am      1 UNK        -0.5000 
      5 CA         -2.3212  -14.3743  -50.1637 C.3       1 UNK         0.1400 
      6 C6         -1.7286  -15.7311  -50.6252 C.3       23 UNK        -0.0398 
      7 S7         -1.3470  -16.8593  -49.2385 S.3       23 UNK        -0.2404 
      8 C8         -1.2936  -18.4661  -50.0808 C.3       23 UNK        -0.0205 
      9 C9          0.1013  -18.8147  -50.5669 C.ar      23 UNK        -0.0193 
     10 C10         0.3657  -18.9432  -51.9319 C.ar      23 UNK        -0.1150 
     11 C11         1.6387  -19.3163  -52.3735 C.ar      23 UNK        -0.0193 
     12 C12         2.6565  -19.5337  -51.4383 C.ar      23 UNK        -0.1150 
     13 C13         2.4078  -19.3861  -50.0696 C.ar      23 UNK        -0.0193 
     14 C14         1.1238  -19.0446  -49.6432 C.ar      23 UNK        -0.1150 
     15 C15         3.5330  -19.5537  -49.0583 C.3       23 UNK        -0.0205 
     16 S16         3.5550  -21.2116  -48.3077 S.3       23 UNK        -0.2404 
     17 C17         2.5965  -20.9788  -46.7685 C.3       23 UNK        -0.0398 
     18 CA          1.5762  -22.1254  -46.5436 C.3       11 UNK         0.1400 
     19 N           1.4938  -22.5438  -45.1393 N.am      11 UNK        -0.5000 
     20 C           0.9768  -23.7174  -44.7456 C.2       10 UNK         0.5000 
     21 O           0.5175  -24.5548  -45.5212 O.2       10 UNK        -0.5000 
     22 CA          0.9264  -23.9866  -43.2319 C.3       10 UNK         0.1400 
     23 CB          2.2905  -24.4735  -42.7213 C.3       10 UNK        -0.1800 
     24 N           0.5037  -22.8260  -42.4490 N.am      10 UNK        -0.5000 
     25 C          -0.6708  -22.1946  -42.5617 C.2       9 UNK         0.5000 
     26 O          -1.5286  -22.5063  -43.3864 O.2       9 UNK        -0.5000 
     27 CA         -0.9334  -21.0017  -41.6253 C.3       9 UNK         0.1400 
     28 CB         -1.5822  -21.4585  -40.3064 C.3       9 UNK        -0.1800 
     29 N           0.2337  -20.1474  -41.3836 N.am      9 UNK        -0.5000 
     30 C           1.3649  -20.4026  -40.7116 C.2       8 UNK         0.5000 
     31 O           1.6344  -21.4888  -40.1981 O.2       8 UNK        -0.5000 
     32 CA          2.3778  -19.2473  -40.6197 C.3       8 UNK         0.1400 
     33 CB          3.3412  -19.2938  -41.8158 C.3       8 UNK        -0.1800 
     34 N           1.7328  -17.9332  -40.5632 N.am      8 UNK        -0.5000 
     35 C           1.0022  -17.4913  -39.5286 C.2       7 UNK         0.5000 
     36 O           0.8579  -18.1156  -38.4766 O.2       7 UNK        -0.5000 
     37 CA          0.2971  -16.1342  -39.7032 C.3       7 UNK         0.1400 
     38 CB          1.2741  -14.9771  -39.4448 C.3       7 UNK        -0.1800 
     39 N          -0.3146  -15.9786  -41.0241 N.am      7 UNK        -0.5000 
     40 C          -1.3649  -16.6846  -41.4689 C.2       6 UNK         0.5000 
     41 O          -1.9628  -17.5225  -40.7939 O.2       6 UNK        -0.5000 
     42 CA         -1.8037  -16.4381  -42.9253 C.3       6 UNK         0.1400 
     43 CB         -2.6934  -15.1906  -43.0317 C.3       6 UNK        -0.1800 
     44 N          -0.6686  -16.3044  -43.8366 N.am      6 UNK        -0.5000 
     45 C           0.1906  -17.2913  -44.1252 C.2       5 UNK         0.5000 
     46 O           0.0847  -18.4431  -43.7045 O.2       5 UNK        -0.5000 
     47 CA          1.3932  -16.9190  -45.0051 C.3       5 UNK         0.1400 
     48 CB          0.9974  -16.9392  -46.4859 C.3       5 UNK        -0.1800 
     49 N           1.9563  -15.6145  -44.6557 N.am      5 UNK        -0.5000 
     50 C           2.5889  -15.3511  -43.5032 C.2       4 UNK         0.5000 
     51 O           2.7886  -16.1900  -42.6261 O.2       4 UNK        -0.5000 
     52 CA          3.0324  -13.8956  -43.2735 C.3       4 UNK         0.1400 
     53 CB          4.3649  -13.6158  -43.9842 C.3       4 UNK        -0.1800 
     54 N           2.0302  -12.9278  -43.7201 N.am      4 UNK        -0.5000 
     55 C           0.8151  -12.7833  -43.1716 C.2       3 UNK         0.5000 
     56 O           0.4190  -13.4318  -42.2048 O.2       3 UNK        -0.5000 
     57 CA         -0.1344  -11.7838  -43.8562 C.3       3 UNK         0.1400 
     58 CB          0.0970  -10.3624  -43.3227 C.3       3 UNK        -0.1800 
     59 N           0.0026  -11.7882  -45.3151 N.am      3 UNK        -0.5000 
     60 C          -0.2938  -12.8365  -46.0928 C.2       2 UNK         0.5000 
     61 O          -0.7316  -13.9084  -45.6639 O.2       2 UNK        -0.5000 
     62 CA         -0.0026  -12.6813  -47.5886 C.3       2 UNK         0.1400 
     63 CB          1.4430  -13.1118  -47.9030 C.3       2 UNK        -0.1800 
     64 N          -0.9525  -13.5066  -48.3206 N.am      2 UNK        -0.5000 
     65 C          -1.2223  -13.4308  -49.6283 C.2       1 UNK         0.5000 
     66 O          -0.6643  -12.6483  -50.3994 O.2       1 UNK        -0.5000 
     67 C           0.1842  -21.7921  -47.1175 C.2       11 UNK         0.5000 
     68 O          -0.0974  -22.1393  -48.2628 O.2       11 UNK        -0.5000 
     69 N          -0.6836  -21.1822  -46.2943 N.am      12 UNK        -0.5000 
     70 CA         -2.0834  -20.9217  -46.6317 C.3       12 UNK         0.1400 
     71 CB         -2.7176  -19.9931  -45.5861 C.3       12 UNK        -0.1800 
     72 C          -2.8915  -22.2195  -46.8054 C.2       12 UNK         0.5000 
     73 O          -3.6499  -22.3325  -47.7687 O.2       12 UNK        -0.5000 
     74 N          -2.6790  -23.1898  -45.9059 N.am      13 UNK        -0.5000 
     75 CA         -3.2623  -24.5299  -45.9652 C.3       13 UNK         0.1400 
     76 CB         -2.9512  -25.2891  -44.6670 C.3       13 UNK        -0.1800 
     77 C          -2.7949  -25.3262  -47.1971 C.2       13 UNK         0.5000 
     78 O          -3.6298  -25.9169  -47.8828 O.2       13 UNK        -0.5000 
     79 N          -1.4863  -25.2854  -47.4914 N.am      14 UNK        -0.5000 
     80 CA         -0.8754  -25.8934  -48.6796 C.3       14 UNK         0.1400 
     81 CB          0.6530  -25.7705  -48.5926 C.3       14 UNK        -0.1800 
     82 C          -1.3918  -25.2905  -50.0009 C.2       14 UNK         0.5000 
     83 O          -1.5399  -26.0131  -50.9863 O.2       14 UNK        -0.5000 
     84 N          -1.7098  -23.9909  -49.9754 N.am      15 UNK        -0.5000 
     85 CA         -2.3550  -23.2403  -51.0512 C.3       15 UNK         0.1400 
     86 CB         -1.9863  -21.7586  -50.8889 C.3       15 UNK        -0.1800 
     87 C          -3.8871  -23.4321  -51.1109 C.2       15 UNK         0.5000 
     88 O          -4.5479  -22.6844  -51.8325 O.2       15 UNK        -0.5000 
     89 N          -4.4310  -24.4032  -50.3607 N.am      16 UNK        -0.5000 
     90 CA         -5.8424  -24.7936  -50.2889 C.3       16 UNK         0.1400 
     91 CB         -6.3272  -25.3547  -51.6424 C.3       16 UNK        -0.1800 
     92 C          -6.7347  -23.6661  -49.7355 C.2       16 UNK         0.5000 
     93 O          -7.7316  -23.2983  -50.3574 O.2       16 UNK        -0.5000 
     94 N          -6.3296  -23.1308  -48.5752 N.am      17 UNK        -0.5000 
     95 CA         -6.9062  -21.9767  -47.8758 C.3       17 UNK         0.1400 
     96 CB         -8.3726  -22.2286  -47.4651 C.3       17 UNK        -0.1800 
     97 C          -6.6982  -20.6739  -48.6731 C.2       17 UNK         0.5000 
     98 O          -7.6213  -19.8695  -48.8117 O.2       17 UNK        -0.5000 
     99 N          -5.4690  -20.5126  -49.1856 N.am      18 UNK        -0.5000 
    100 CA        -4.9807  -19.3986  -50.0044 C.3       18 UNK         0.1400 
    101 CB        -4.8847  -18.1077  -49.1649 C.3       18 UNK        -0.1800 
    102 C         -5.7518  -19.2079  -51.3295 C.2       18 UNK         0.5000 
    103 O         -5.9118  -18.0779  -51.7940 O.2       18 UNK        -0.5000 
    104 N         -6.2104  -20.3185  -51.9197 N.am      19 UNK        -0.5000 
    105 CA        -6.8936  -20.3500  -53.2108 C.3       19 UNK         0.1400 
    106 CB        -7.8061  -21.5833  -53.2687 C.3       19 UNK        -0.1800 
    107 C         -5.9029  -20.3578  -54.3881 C.2       19 UNK         0.5000 
    108 O         -6.2229  -19.8120  -55.4453 O.2       19 UNK        -0.5000 
    109 N         -4.7290  -20.9783  -54.1963 N.am      20 UNK        -0.5000 
    110 CA        -3.6539  -21.0456  -55.1865 C.3       20 UNK         0.1400 
    111 CB        -2.5777  -22.0343  -54.7148 C.3       20 UNK        -0.1800 
    112 C         -3.0410  -19.6598  -55.4667 C.2       20 UNK         0.5000 
    113 O         -2.8252  -18.8816  -54.5347 O.2       20 UNK        -0.5000 
    114 N         -2.7836  -19.3910  -56.7525 N.am      21 UNK        -0.5000 
    115 CA        -2.2679  -18.1260  -57.2744 C.3       21 UNK         0.1400 
    116 CB        -2.3308  -18.1280  -58.8103 C.3       21 UNK        -0.1800 
    117 C         -0.8890  -17.6680  -56.7377 C.2       21 UNK         0.5000 
    118 O         -0.7897  -16.5078  -56.3412 O.2       21 UNK        -0.5000 
    119 N          0.1753  -18.4850  -56.6815 N.am      22 UNK        -0.5000 
    120 CA         0.3767  -19.8464  -57.2141 C.3       22 UNK         0.1400 
    121 C          0.7817  -19.8813  -58.7174 C.2       22 UNK         0.5000 
    122 N          1.0674  -18.7546  -59.3590 N.am      22 UNK        -0.7600 
    123 O          0.8198  -20.9512  -59.3180 O.2       22 UNK        -0.5000 
    124 C124        1.4178  -20.6279  -56.3682 C.3       23 UNK        -0.0398 
    125 S125        0.9437  -20.7983  -54.6136 S.3       23 UNK        -0.2404 
    126 C126        1.9159  -19.4532  -53.8622 C.3       23 UNK        -0.0205 
    127 H127       -5.2271  -15.0466  -47.4910 H         1 UNK         0.0600 
    128 H128       -5.2084  -13.3833  -46.8977 H         1 UNK         0.0600 
    129 H129       -6.3336  -13.8542  -48.1767 H         1 UNK         0.0600 
    130 H130       -3.4656  -15.4674  -48.7802 H         1 UNK         0.3000 
    131 H131       -2.7394  -13.8881  -51.0479 H         1 UNK         0.0600 
    132 H132       -0.8313  -15.5902  -51.2309 H         1 UNK         0.0800 
    133 H133       -2.4516  -16.2209  -51.2788 H         1 UNK         0.0800 
    134 H134       -1.6104  -19.2285  -49.3747 H         1 UNK         0.0800 
    135 H135       -2.0110  -18.4891  -50.9018 H         1 UNK         0.0800 
    136 H136       -0.4217  -18.7735  -52.6541 H         1 UNK         0.1150 
    137 H137        3.6473  -19.8045  -51.7751 H         1 UNK         0.1150 
    138 H138        0.9169  -18.9520  -48.5898 H         1 UNK         0.1150 
    139 H139        4.4931  -19.3896  -49.5498 H         1 UNK         0.0800 
    140 H140        3.4635  -18.7867  -48.2856 H         1 UNK         0.0800 
    141 H141        2.1183  -19.9982  -46.7487 H         1 UNK         0.0800 
    142 H142        3.3276  -20.9600  -45.9590 H         1 UNK         0.0800 
    143 H143        1.9323  -23.0009  -47.0916 H         1 UNK         0.0600 
    144 H144        1.8365  -21.9031  -44.4391 H         1 UNK         0.3000 
    145 H145        0.1960  -24.7805  -43.0631 H         1 UNK         0.0600 
    146 H146        2.2383  -24.7577  -41.6701 H         1 UNK         0.0600 
    147 H147        2.6267  -25.3493  -43.2779 H         1 UNK         0.0600 
    148 H148        3.0573  -23.7044  -42.8220 H         1 UNK         0.0600 
    149 H149        1.1254  -22.5130  -41.7089 H         1 UNK         0.3000 
    150 H150       -1.6538  -20.3615  -42.1371 H         1 UNK         0.0600 
    151 H151       -2.5116  -21.9963  -40.4975 H         1 UNK         0.0600 
    152 H152       -1.8243  -20.6047  -39.6732 H         1 UNK         0.0600 
    153 H153       -0.9319  -22.1247  -39.7390 H         1 UNK         0.0600 
    154 H154        0.1822  -19.2518  -41.8577 H         1 UNK         0.3000 
    155 H155        2.9584  -19.3837  -39.7050 H         1 UNK         0.0600 
    156 H156        4.1134  -18.5293  -41.7286 H         1 UNK         0.0600 
    157 H157        2.8183  -19.1346  -42.7596 H         1 UNK         0.0600 
    158 H158        3.8454  -20.2591  -41.8765 H         1 UNK         0.0600 
    159 H159        1.8695  -17.3253  -41.3661 H         1 UNK         0.3000 
    160 H160       -0.4984  -16.0758  -38.9574 H         1 UNK         0.0600 
    161 H161        0.7619  -14.0154  -39.4757 H         1 UNK         0.0600 
    162 H162        2.0752  -14.9532  -40.1839 H         1 UNK         0.0600 
    163 H163        1.7363  -15.0675  -38.4610 H         1 UNK         0.0600 
    164 H164        0.0756  -15.2542  -41.6198 H         1 UNK         0.3000 
    165 H165       -2.3903  -17.3014  -43.2468 H         1 UNK         0.0600 
    166 H166       -3.0476  -15.0455  -44.0527 H         1 UNK         0.0600 
    167 H167       -3.5713  -15.2817  -42.3911 H         1 UNK         0.0600 
    168 H168       -2.1603  -14.2880  -42.7326 H         1 UNK         0.0600 
    169 H169       -0.5376  -15.3987  -44.2746 H         1 UNK         0.3000 
    170 H170        2.1628  -17.6779  -44.8493 H         1 UNK         0.0600 
    171 H171        0.4841  -17.8691  -46.7294 H         1 UNK         0.0600 
    172 H172        0.3174  -16.1250  -46.7352 H         1 UNK         0.0600 
    173 H173        1.8699  -16.8606  -47.1343 H         1 UNK         0.0600 
    174 H174        1.7938  -14.8592  -45.3035 H         1 UNK         0.3000 
    175 H175        3.1817  -13.7580  -42.2005 H         1 UNK         0.0600 
    176 H176        4.7263  -12.6115  -43.7625 H         1 UNK         0.0600 
    177 H177        5.1350  -14.3163  -43.6580 H         1 UNK         0.0600 
    178 H178        4.2737  -13.7088  -45.0671 H         1 UNK         0.0600 
    179 H179        2.2729  -12.3500  -44.5108 H         1 UNK         0.3000 
    180 H180       -1.1573  -12.0780  -43.6118 H         1 UNK         0.0600 
    181 H181        1.0982   -9.9996  -43.5586 H         1 UNK         0.0600 
    182 H182       -0.0169  -10.3300  -42.2382 H         1 UNK         0.0600 
    183 H183       -0.6230   -9.6609  -43.7446 H         1 UNK         0.0600 
    184 H184        0.3600  -10.9435  -45.7383 H         1 UNK         0.3000 
    185 H185       -0.1482  -11.6365  -47.8706 H         1 UNK         0.0600 
    186 H186        1.6859  -12.9531  -48.9536 H         1 UNK         0.0600 
    187 H187        2.1617  -12.5368  -47.3182 H         1 UNK         0.0600 
    188 H188        1.6058  -14.1669  -47.6818 H         1 UNK         0.0600 
    189 H189       -1.4598  -14.1662  -47.7438 H         1 UNK         0.3000 
    190 H190       -0.3967  -20.9641  -45.3515 H         1 UNK         0.3000 
    191 H191       -2.1057  -20.4006  -47.5872 H         1 UNK         0.0600 
    192 H192       -2.1847  -19.0437  -45.5292 H         1 UNK         0.0600 
    193 H193       -3.7533  -19.7682  -45.8440 H         1 UNK         0.0600 
    194 H194       -2.7165  -20.4374  -44.5910 H         1 UNK         0.0600 
    195 H195       -2.0848  -22.9897  -45.1049 H         1 UNK         0.3000 
    196 H196       -4.3459  -24.4155  -46.0365 H         1 UNK         0.0600 
    197 H197       -3.4008  -26.2827  -44.6779 H         1 UNK         0.0600 
    198 H198       -3.3471  -24.7618  -43.7988 H         1 UNK         0.0600 
    199 H199       -1.8787  -25.4150  -44.5190 H         1 UNK         0.0600 
    200 H200       -0.8531  -24.8207  -46.8460 H         1 UNK         0.3000 
    201 H201       -1.1329  -26.9544  -48.6779 H         1 UNK         0.0600 
    202 H202        1.0381  -26.2563  -47.6959 H         1 UNK         0.0600 
    203 H203        0.9709  -24.7279  -48.5726 H         1 UNK         0.0600 
    204 H204        1.1327  -26.2436  -49.4502 H         1 UNK         0.0600 
    205 H205       -1.4911  -23.4618  -49.1384 H         1 UNK         0.3000 
    206 H206       -1.9564  -23.5837  -52.0075 H         1 UNK         0.0600 
    207 H207       -0.9080  -21.6151  -50.9623 H         1 UNK         0.0600 
    208 H208       -2.4475  -21.1326  -51.6524 H         1 UNK         0.0600 
    209 H209       -2.3061  -21.3830  -49.9187 H         1 UNK         0.0600 
    210 H210       -3.8158  -24.9295  -49.7519 H         1 UNK         0.3000 
    211 H211       -5.8981  -25.6068  -49.5639 H         1 UNK         0.0600 
    212 H212       -6.3154  -24.5991  -52.4275 H         1 UNK         0.0600 
    213 H213       -7.3484  -25.7294  -51.5658 H         1 UNK         0.0600 
    214 H214       -5.7011  -26.1847  -51.9694 H         1 UNK         0.0600 
    215 H215       -5.4405  -23.4443  -48.2049 H         1 UNK         0.3000 
    216 H216       -6.3301  -21.8625  -46.9563 H         1 UNK         0.0600 
    217 H217       -8.4727  -23.1634  -46.9136 H         1 UNK         0.0600 
    218 H218       -9.0386  -22.2733  -48.3270 H         1 UNK         0.0600 
    219 H219       -8.7355  -21.4295  -46.8178 H         1 UNK         0.0600 
    220 H220       -4.7903  -21.2371  -48.9727 H         1 UNK         0.3000 
    221 H221       -3.9694  -19.6709  -50.2988 H         1 UNK         0.0600 
    222 H222       -5.8665  -17.7589  -48.8439 H         1 UNK         0.0600 
    223 H223       -4.2734  -18.2608  -48.2753 H         1 UNK         0.0600 
    224 H224       -4.4253  -17.3031  -49.7388 H         1 UNK         0.0600 
    225 H225       -5.9836  -21.2179  -51.5108 H         1 UNK         0.3000 
    226 H226       -7.5219  -19.4619  -53.3058 H         1 UNK         0.0600 
    227 H227       -8.5479  -21.5616  -52.4700 H         1 UNK         0.0600 
    228 H228       -8.3465  -21.6274  -54.2150 H         1 UNK         0.0600 
    229 H229       -7.2369  -22.5079  -53.1705 H         1 UNK         0.0600 
    230 H230       -4.5646  -21.4365  -53.3051 H         1 UNK         0.3000 
    231 H231       -4.0877  -21.4353  -56.1099 H         1 UNK         0.0600 
    232 H232       -3.0092  -23.0019  -54.4579 H         1 UNK         0.0600 
    233 H233       -2.0413  -21.6598  -53.8440 H         1 UNK         0.0600 
    234 H234       -1.8388  -22.2047  -55.4985 H         1 UNK         0.0600 
    235 H235       -3.0038  -20.0936  -57.4430 H         1 UNK         0.3000 
    236 H236       -2.9749  -17.3620  -56.9435 H         1 UNK         0.0600 
    237 H237       -3.3647  -18.1122  -59.1554 H         1 UNK         0.0600 
    238 H238       -1.8392  -17.2488  -59.2293 H         1 UNK         0.0600 
    239 H239       -1.8581  -19.0091  -59.2412 H         1 UNK         0.0600 
    240 H240        1.0144  -18.0856  -56.2924 H         1 UNK         0.3000 
    241 H241       -0.5509  -20.4081  -57.1507 H         1 UNK         0.0600 
    242 H242        1.0491  -17.8675  -58.8814 H         1 UNK         0.3800 
    243 H243        1.3232  -18.7914  -60.3336 H         1 UNK         0.3800 
    244 H244        2.4012  -20.1596  -56.4370 H         1 UNK         0.0800 
    245 H245        1.5413  -21.6390  -56.7606 H         1 UNK         0.0800 
    246 H246        1.6761  -18.5069  -54.3467 H         1 UNK         0.0800 
    247 H247        2.9765  -19.6360  -54.0417 H         1 UNK         0.0800 
@<TRIPOS>BOND
     1    1    2 1    
     2    1  127 1    
     3    1  128 1    
     4    1  129 1    
     5    2    3 2    
     6    2    4 am   BACKBONE|DICT|INTERRES
     7    4    5 1    
     8    4  130 1    
     9    5    6 1    
    10    5   65 1    
    11    5  131 1    
    12    6    7 1    
    13    6  132 1    
    14    6  133 1    
    15    7    8 1    
    16    8    9 1    
    17    8  134 1    
    18    8  135 1    
    19    9   10 ar   
    20    9   14 ar   
    21   10   11 ar   
    22   10  136 1    
    23   11   12 ar   
    24   11  126 1    
    25   12   13 ar   
    26   12  137 1    
    27   13   14 ar   
    28   13   15 1    
    29   14  138 1    
    30   15   16 1    
    31   15  139 1    
    32   15  140 1    
    33   16   17 1    
    34   17   18 1    
    35   17  141 1    
    36   17  142 1    
    37   18   19 1    
    38   18   67 1    
    39   18  143 1    
    40   19   20 am   BACKBONE|DICT|INTERRES
    41   19  144 1    
    42   20   21 2    
    43   20   22 1    
    44   22   23 1    
    45   22   24 1    
    46   22  145 1    
    47   23  146 1    
    48   23  147 1    
    49   23  148 1    
    50   24   25 am   BACKBONE|DICT|INTERRES
    51   24  149 1    
    52   25   26 2    
    53   25   27 1    
    54   27   28 1    
    55   27   29 1    
    56   27  150 1    
    57   28  151 1    
    58   28  152 1    
    59   28  153 1    
    60   29   30 am   BACKBONE|DICT|INTERRES
    61   29  154 1    
    62   30   31 2    
    63   30   32 1    
    64   32   33 1    
    65   32   34 1    
    66   32  155 1    
    67   33  156 1    
    68   33  157 1    
    69   33  158 1    
    70   34   35 am   BACKBONE|DICT|INTERRES
    71   34  159 1    
    72   35   36 2    
    73   35   37 1    
    74   37   38 1    
    75   37   39 1    
    76   37  160 1    
    77   38  161 1    
    78   38  162 1    
    79   38  163 1    
    80   39   40 am   BACKBONE|DICT|INTERRES
    81   39  164 1    
    82   40   41 2    
    83   40   42 1    
    84   42   43 1    
    85   42   44 1    
    86   42  165 1    
    87   43  166 1    
    88   43  167 1    
    89   43  168 1    
    90   44   45 am   BACKBONE|DICT|INTERRES
    91   44  169 1    
    92   45   46 2    
    93   45   47 1    
    94   47   48 1    
    95   47   49 1    
    96   47  170 1    
    97   48  171 1    
    98   48  172 1    
    99   48  173 1    
   100   49   50 am   BACKBONE|DICT|INTERRES
   101   49  174 1    
   102   50   51 2    
   103   50   52 1    
   104   52   53 1    
   105   52   54 1    
   106   52  175 1    
   107   53  176 1    
   108   53  177 1    
   109   53  178 1    
   110   54   55 am   BACKBONE|DICT|INTERRES
   111   54  179 1    
   112   55   56 2    
   113   55   57 1    
   114   57   58 1    
   115   57   59 1    
   116   57  180 1    
   117   58  181 1    
   118   58  182 1    
   119   58  183 1    
   120   59   60 am   BACKBONE|DICT|INTERRES
   121   59  184 1    
   122   60   61 2    
   123   60   62 1    
   124   62   63 1    
   125   62   64 1    
   126   62  185 1    
   127   63  186 1    
   128   63  187 1    
   129   63  188 1    
   130   64   65 am   BACKBONE|DICT|INTERRES
   131   64  189 1    
   132   65   66 2    
   133   67   68 2    
   134   67   69 am   BACKBONE|DICT|INTERRES
   135   69   70 1    
   136   69  190 1    
   137   70   71 1    
   138   70   72 1    
   139   70  191 1    
   140   71  192 1    
   141   71  193 1    
   142   71  194 1    
   143   72   73 2    
   144   72   74 am   BACKBONE|DICT|INTERRES
   145   74   75 1    
   146   74  195 1    
   147   75   76 1    
   148   75   77 1    
   149   75  196 1    
   150   76  197 1    
   151   76  198 1    
   152   76  199 1    
   153   77   78 2    
   154   77   79 am   BACKBONE|DICT|INTERRES
   155   79   80 1    
   156   79  200 1    
   157   80   81 1    
   158   80   82 1    
   159   80  201 1    
   160   81  202 1    
   161   81  203 1    
   162   81  204 1    
   163   82   83 2    
   164   82   84 am   BACKBONE|DICT|INTERRES
   165   84   85 1    
   166   84  205 1    
   167   85   86 1    
   168   85   87 1    
   169   85  206 1    
   170   86  207 1    
   171   86  208 1    
   172   86  209 1    
   173   87   88 2    
   174   87   89 am   BACKBONE|DICT|INTERRES
   175   89   90 1    
   176   89  210 1    
   177   90   91 1    
   178   90   92 1    
   179   90  211 1    
   180   91  212 1    
   181   91  213 1    
   182   91  214 1    
   183   92   93 2    
   184   92   94 am   BACKBONE|DICT|INTERRES
   185   94   95 1    
   186   94  215 1    
   187   95   96 1    
   188   95   97 1    
   189   95  216 1    
   190   96  217 1    
   191   96  218 1    
   192   96  219 1    
   193   97   98 2    
   194   97   99 am   BACKBONE|DICT|INTERRES
   195   99  100 1    
   196   99  220 1    
   197  100  101 1    
   198  100  102 1    
   199  100  221 1    
   200  101  222 1    
   201  101  223 1    
   202  101  224 1    
   203  102  103 2    
   204  102  104 am   BACKBONE|DICT|INTERRES
   205  104  105 1    
   206  104  225 1    
   207  105  106 1    
   208  105  107 1    
   209  105  226 1    
   210  106  227 1    
   211  106  228 1    
   212  106  229 1    
   213  107  108 2    
   214  107  109 am   BACKBONE|DICT|INTERRES
   215  109  110 1    
   216  109  230 1    
   217  110  111 1    
   218  110  112 1    
   219  110  231 1    
   220  111  232 1    
   221  111  233 1    
   222  111  234 1    
   223  112  113 2    
   224  112  114 am   BACKBONE|DICT|INTERRES
   225  114  115 1    
   226  114  235 1    
   227  115  116 1    
   228  115  117 1    
   229  115  236 1    
   230  116  237 1    
   231  116  238 1    
   232  116  239 1    
   233  117  118 2    
   234  117  119 am   BACKBONE|DICT|INTERRES
   235  119  120 1    
   236  119  240 1    
   237  120  121 1    
   238  120  124 1    
   239  120  241 1    
   240  121  122 am   BACKBONE|DICT|INTERRES
   241  121  123 2    
   242  122  242 1    
   243  122  243 1    
   244  124  125 1    
   245  124  244 1    
   246  124  245 1    
   247  125  126 1    
   248  126  246 1    
   249  126  247 1    
@<TRIPOS>SUBSTRUCTURE
     1 UNK         1 GROUP             0       ****    0 ROOT    
