@<TRIPOS>MOLECULE
3R540
247   249    1
SMALL
USER_CHARGES


@<TRIPOS>ATOM
      1 CA          2.8627  -10.7165  -47.0043 C.3       0 UNK        -0.1800 
      2 C           1.7189  -10.3950  -46.0437 C.2       0 UNK         0.5000 
      3 O           1.4987   -9.2254  -45.7372 O.2       0 UNK        -0.5000 
      4 N           0.9651  -11.3852  -45.5453 N.am      1 UNK        -0.5000 
      5 CA          1.1146  -12.8263  -45.8041 C.3       1 UNK         0.1400 
      6 C6         -0.2263  -13.5986  -45.6822 C.3       23 UNK        -0.0398 
      7 S7         -1.6535  -12.7721  -46.4747 S.3       23 UNK        -0.2404 
      8 C8         -1.2574  -12.8677  -48.2486 C.3       23 UNK        -0.0205 
      9 C9         -1.6155  -14.2200  -48.8418 C.ar      23 UNK        -0.0193 
     10 C10        -2.9119  -14.4601  -49.3059 C.ar      23 UNK        -0.1150 
     11 C11        -3.2427  -15.6883  -49.8850 C.ar      23 UNK        -0.0193 
     12 C12        -2.2716  -16.6895  -49.9748 C.ar      23 UNK        -0.1150 
     13 C13        -0.9741  -16.4662  -49.5043 C.ar      23 UNK        -0.0193 
     14 C14        -0.6484  -15.2211  -48.9546 C.ar      23 UNK        -0.1150 
     15 C15         0.0668  -17.5750  -49.6048 C.3       23 UNK        -0.0205 
     16 S16         1.0453  -17.7951  -48.0820 S.3       23 UNK        -0.2404 
     17 C17        -0.2436  -18.1069  -46.8319 C.3       23 UNK        -0.0398 
     18 CA         -0.4386  -19.6205  -46.5733 C.3       11 UNK         0.1400 
     19 N          -0.6771  -19.9149  -45.1607 N.am      11 UNK        -0.5000 
     20 C          -0.7076  -21.1444  -44.6291 C.2       10 UNK         0.5000 
     21 O          -0.4823  -22.1731  -45.2649 O.2       10 UNK        -0.5000 
     22 CA         -1.1139  -21.2386  -43.1488 C.3       10 UNK         0.1400 
     23 CB          0.0930  -20.9925  -42.2294 C.3       10 UNK        -0.1800 
     24 N          -2.1897  -20.2990  -42.8259 N.am      10 UNK        -0.5000 
     25 C          -3.4453  -20.4093  -43.2850 C.2       9 UNK         0.5000 
     26 O          -3.8379  -21.3470  -43.9784 O.2       9 UNK        -0.5000 
     27 CA         -4.4109  -19.2574  -42.9505 C.3       9 UNK         0.1400 
     28 CB         -5.0236  -19.4531  -41.5559 C.3       9 UNK        -0.1800 
     29 N          -3.7692  -17.9433  -43.0180 N.am      9 UNK        -0.5000 
     30 C          -3.2992  -17.3814  -44.1414 C.2       8 UNK         0.5000 
     31 O          -3.3824  -17.9002  -45.2528 O.2       8 UNK        -0.5000 
     32 CA         -2.5491  -16.0454  -43.9823 C.3       8 UNK         0.1400 
     33 CB         -3.5360  -14.8691  -43.9776 C.3       8 UNK        -0.1800 
     34 N          -1.7232  -15.9974  -42.7705 N.am      8 UNK        -0.5000 
     35 C          -0.7091  -16.8352  -42.5198 C.2       7 UNK         0.5000 
     36 O          -0.3389  -17.7102  -43.3079 O.2       7 UNK        -0.5000 
     37 CA         -0.0438  -16.7257  -41.1421 C.3       7 UNK         0.1400 
     38 CB         -0.9669  -17.2968  -40.0481 C.3       7 UNK        -0.1800 
     39 N           1.2011  -17.4801  -41.1891 N.am      7 UNK        -0.5000 
     40 C           2.2160  -17.4112  -40.3227 C.2       6 UNK         0.5000 
     41 O           2.2132  -16.6961  -39.3199 O.2       6 UNK        -0.5000 
     42 CA          3.4495  -18.2891  -40.6272 C.3       6 UNK         0.1400 
     43 CB          3.3875  -19.5907  -39.8126 C.3       6 UNK        -0.1800 
     44 N           3.6228  -18.6291  -42.0455 N.am      6 UNK        -0.5000 
     45 C           3.8415  -17.7395  -43.0231 C.2       5 UNK         0.5000 
     46 O           3.8975  -16.5252  -42.8320 O.2       5 UNK        -0.5000 
     47 CA          4.0120  -18.2982  -44.4435 C.3       5 UNK         0.1400 
     48 CB          2.7653  -19.0808  -44.8937 C.3       5 UNK        -0.1800 
     49 N           4.2661  -17.1914  -45.3631 N.am      5 UNK        -0.5000 
     50 C           4.9202  -17.2794  -46.5263 C.2       4 UNK         0.5000 
     51 O           5.3644  -18.3353  -46.9792 O.2       4 UNK        -0.5000 
     52 CA          5.1430  -15.9744  -47.3107 C.3       4 UNK         0.1400 
     53 CB          3.9590  -15.6890  -48.2474 C.3       4 UNK        -0.1800 
     54 N           5.3351  -14.8222  -46.4292 N.am      4 UNK        -0.5000 
     55 C           6.5274  -14.3028  -46.1028 C.2       3 UNK         0.5000 
     56 O           7.6015  -14.7824  -46.4680 O.2       3 UNK        -0.5000 
     57 CA          6.5369  -13.0144  -45.2542 C.3       3 UNK         0.1400 
     58 CB          6.7909  -11.7905  -46.1487 C.3       3 UNK        -0.1800 
     59 N           5.2870  -12.8079  -44.5241 N.am      3 UNK        -0.5000 
     60 C           4.9901  -13.3777  -43.3495 C.2       2 UNK         0.5000 
     61 O           5.7964  -14.0403  -42.6962 O.2       2 UNK        -0.5000 
     62 CA          3.5588  -13.1642  -42.8092 C.3       2 UNK         0.1400 
     63 CB          3.5648  -12.1228  -41.6796 C.3       2 UNK        -0.1800 
     64 N           2.5752  -12.7529  -43.8189 N.am      2 UNK        -0.5000 
     65 C           2.1877  -13.4620  -44.8912 C.2       1 UNK         0.5000 
     66 O           2.6707  -14.5519  -45.1949 O.2       1 UNK        -0.5000 
     67 C          -1.5445  -20.2091  -47.4710 C.2       11 UNK         0.5000 
     68 O          -1.2336  -20.8700  -48.4601 O.2       11 UNK        -0.5000 
     69 N          -2.8111  -20.0083  -47.0791 N.am      12 UNK        -0.5000 
     70 CA         -3.9894  -20.5712  -47.7380 C.3       12 UNK         0.1400 
     71 CB         -5.2622  -20.0213  -47.0780 C.3       12 UNK        -0.1800 
     72 C          -3.9960  -22.1101  -47.7290 C.2       12 UNK         0.5000 
     73 O          -4.3283  -22.7138  -48.7463 O.2       12 UNK        -0.5000 
     74 N          -3.5955  -22.7165  -46.6021 N.am      13 UNK        -0.5000 
     75 CA         -3.4436  -24.1645  -46.4541 C.3       13 UNK         0.1400 
     76 CB         -3.2210  -24.5145  -44.9754 C.3       13 UNK        -0.1800 
     77 C          -2.3168  -24.7424  -47.3314 C.2       13 UNK         0.5000 
     78 O          -2.4935  -25.8138  -47.9094 O.2       13 UNK        -0.5000 
     79 N          -1.1925  -24.0213  -47.4409 N.am      14 UNK        -0.5000 
     80 CA         -0.0673  -24.3748  -48.3093 C.3       14 UNK         0.1400 
     81 CB          1.1513  -23.5131  -47.9436 C.3       14 UNK        -0.1800 
     82 C          -0.4077  -24.2362  -49.8062 C.2       14 UNK         0.5000 
     83 O           0.0012  -25.0773  -50.6067 O.2       14 UNK        -0.5000 
     84 N          -1.1631  -23.1863  -50.1506 N.am      15 UNK        -0.5000 
     85 CA         -1.6245  -22.8781  -51.5039 C.3       15 UNK         0.1400 
     86 CB         -1.9362  -21.3743  -51.5788 C.3       15 UNK        -0.1800 
     87 C          -2.8382  -23.7126  -51.9604 C.2       15 UNK         0.5000 
     88 O          -3.2368  -23.5970  -53.1221 O.2       15 UNK        -0.5000 
     89 N          -3.4385  -24.5065  -51.0622 N.am      16 UNK        -0.5000 
     90 CA         -4.5938  -25.3638  -51.3345 C.3       16 UNK         0.1400 
     91 CB         -5.0379  -26.0638  -50.0433 C.3       16 UNK        -0.1800 
     92 C          -4.2905  -26.3900  -52.4395 C.2       16 UNK         0.5000 
     93 O          -3.2421  -27.0374  -52.3987 O.2       16 UNK        -0.5000 
     94 N          -5.1883  -26.4712  -53.4312 N.am      17 UNK        -0.5000 
     95 CA         -5.1129  -27.2458  -54.6804 C.3       17 UNK         0.1400 
     96 CB         -5.0066  -28.7579  -54.4050 C.3       17 UNK        -0.1800 
     97 C          -4.0163  -26.7797  -55.6639 C.2       17 UNK         0.5000 
     98 O          -4.2637  -26.7626  -56.8696 O.2       17 UNK        -0.5000 
     99 N          -2.8443  -26.3918  -55.1461 N.am      18 UNK        -0.5000 
    100 CA        -1.6892  -25.9007  -55.8981 C.3       18 UNK         0.1400 
    101 CB        -0.4864  -25.7863  -54.9485 C.3       18 UNK        -0.1800 
    102 C         -1.9521  -24.5572  -56.6021 C.2       18 UNK         0.5000 
    103 O         -1.5660  -24.3922  -57.7601 O.2       18 UNK        -0.5000 
    104 N         -2.6128  -23.6339  -55.8943 N.am      19 UNK        -0.5000 
    105 CA        -2.9857  -22.3030  -56.3760 C.3       19 UNK         0.1400 
    106 CB        -1.9446  -21.2791  -55.8893 C.3       19 UNK        -0.1800 
    107 C         -4.4224  -21.9346  -55.9549 C.2       19 UNK         0.5000 
    108 O         -4.7777  -20.7558  -55.9719 O.2       19 UNK        -0.5000 
    109 N         -5.2227  -22.9516  -55.5954 N.am      20 UNK        -0.5000 
    110 CA        -6.6219  -22.8763  -55.1570 C.3       20 UNK         0.1400 
    111 CB        -7.5327  -22.4016  -56.3086 C.3       20 UNK        -0.1800 
    112 C         -6.8196  -22.0655  -53.8573 C.2       20 UNK         0.5000 
    113 O         -7.8322  -21.3767  -53.7071 O.2       20 UNK        -0.5000 
    114 N         -5.8519  -22.1775  -52.9339 N.am      21 UNK        -0.5000 
    115 CA        -5.7938  -21.4980  -51.6360 C.3       21 UNK         0.1400 
    116 CB        -6.8940  -22.0282  -50.6866 C.3       21 UNK        -0.1800 
    117 C         -5.7896  -19.9676  -51.8164 C.2       21 UNK         0.5000 
    118 O         -4.8109  -19.4284  -52.3339 O.2       21 UNK        -0.5000 
    119 N         -6.8853  -19.3137  -51.4211 N.am      22 UNK        -0.5000 
    120 CA        -7.1709  -17.8947  -51.6743 C.3       22 UNK         0.1400 
    121 C         -8.4670  -17.7023  -52.5176 C.2       22 UNK         0.5000 
    122 N         -8.9863  -18.7244  -53.1901 N.am      22 UNK        -0.7600 
    123 O         -9.0112  -16.6031  -52.5812 O.2       22 UNK        -0.5000 
    124 C124       -7.1849  -17.0583  -50.3647 C.3       23 UNK        -0.0398 
    125 S125       -5.6000  -17.0921  -49.4580 S.3       23 UNK        -0.2404 
    126 C126       -4.6331  -15.9184  -50.4555 C.3       23 UNK        -0.0205 
    127 H127        2.4685  -11.0205  -47.9740 H         1 UNK         0.0600 
    128 H128        3.4893   -9.8377  -47.1589 H         1 UNK         0.0600 
    129 H129        3.5010  -11.5110  -46.6225 H         1 UNK         0.0600 
    130 H130        0.1875  -11.1392  -44.9488 H         1 UNK         0.3000 
    131 H131        1.4650  -12.9626  -46.8281 H         1 UNK         0.0600 
    132 H132       -0.1253  -14.6032  -46.0970 H         1 UNK         0.0800 
    133 H133       -0.4889  -13.7339  -44.6313 H         1 UNK         0.0800 
    134 H134       -0.2059  -12.6363  -48.4191 H         1 UNK         0.0800 
    135 H135       -1.8179  -12.0885  -48.7672 H         1 UNK         0.0800 
    136 H136       -3.6583  -13.6816  -49.2307 H         1 UNK         0.1150 
    137 H137       -2.5311  -17.6417  -50.4174 H         1 UNK         0.1150 
    138 H138        0.3572  -15.0352  -48.6047 H         1 UNK         0.1150 
    139 H139       -0.4055  -18.5265  -49.8542 H         1 UNK         0.0800 
    140 H140        0.7455  -17.3430  -50.4262 H         1 UNK         0.0800 
    141 H141       -1.1787  -17.6076  -47.0904 H         1 UNK         0.0800 
    142 H142        0.0932  -17.6024  -45.9270 H         1 UNK         0.0800 
    143 H143        0.4878  -20.1409  -46.8268 H         1 UNK         0.0600 
    144 H144       -0.8212  -19.1194  -44.5466 H         1 UNK         0.3000 
    145 H145       -1.4798  -22.2507  -42.9638 H         1 UNK         0.0600 
    146 H146       -0.1897  -21.0536  -41.1784 H         1 UNK         0.0600 
    147 H147        0.8680  -21.7403  -42.4016 H         1 UNK         0.0600 
    148 H148        0.5434  -20.0160  -42.3999 H         1 UNK         0.0600 
    149 H149       -1.9350  -19.4773  -42.3003 H         1 UNK         0.3000 
    150 H150       -5.2189  -19.2771  -43.6849 H         1 UNK         0.0600 
    151 H151       -5.5234  -20.4199  -41.4819 H         1 UNK         0.0600 
    152 H152       -5.7686  -18.6866  -41.3416 H         1 UNK         0.0600 
    153 H153       -4.2660  -19.4141  -40.7720 H         1 UNK         0.0600 
    154 H154       -3.6584  -17.4450  -42.1477 H         1 UNK         0.3000 
    155 H155       -1.8889  -15.9364  -44.8448 H         1 UNK         0.0600 
    156 H156       -4.1204  -14.8494  -44.8986 H         1 UNK         0.0600 
    157 H157       -4.2364  -14.9314  -43.1439 H         1 UNK         0.0600 
    158 H158       -3.0150  -13.9146  -43.9058 H         1 UNK         0.0600 
    159 H159       -1.9800  -15.3107  -42.0758 H         1 UNK         0.3000 
    160 H160        0.1772  -15.6755  -40.9416 H         1 UNK         0.0600 
    161 H161       -1.1883  -18.3510  -40.2195 H         1 UNK         0.0600 
    162 H162       -1.9163  -16.7618  -40.0100 H         1 UNK         0.0600 
    163 H163       -0.5140  -17.2102  -39.0605 H         1 UNK         0.0600 
    164 H164        1.2985  -18.0474  -42.0213 H         1 UNK         0.3000 
    165 H165        4.3314  -17.7284  -40.3106 H         1 UNK         0.0600 
    166 H166        4.2943  -20.1819  -39.9415 H         1 UNK         0.0600 
    167 H167        3.2876  -19.3811  -38.7467 H         1 UNK         0.0600 
    168 H168        2.5375  -20.2082  -40.1064 H         1 UNK         0.0600 
    169 H169        3.5959  -19.6117  -42.2750 H         1 UNK         0.3000 
    170 H170        4.8776  -18.9635  -44.4357 H         1 UNK         0.0600 
    171 H171        2.6141  -19.9771  -44.2918 H         1 UNK         0.0600 
    172 H172        1.8695  -18.4695  -44.8007 H         1 UNK         0.0600 
    173 H173        2.8466  -19.4027  -45.9319 H         1 UNK         0.0600 
    174 H174        3.9389  -16.2882  -45.0336 H         1 UNK         0.3000 
    175 H175        6.0271  -16.1158  -47.9361 H         1 UNK         0.0600 
    176 H176        3.0340  -15.5291  -47.6930 H         1 UNK         0.0600 
    177 H177        4.1417  -14.8025  -48.8547 H         1 UNK         0.0600 
    178 H178        3.7927  -16.5226  -48.9309 H         1 UNK         0.0600 
    179 H179        4.4939  -14.4285  -46.0248 H         1 UNK         0.3000 
    180 H180        7.3622  -13.0908  -44.5428 H         1 UNK         0.0600 
    181 H181        6.0117  -11.6710  -46.9024 H         1 UNK         0.0600 
    182 H182        7.7422  -11.8827  -46.6744 H         1 UNK         0.0600 
    183 H183        6.8342  -10.8734  -45.5607 H         1 UNK         0.0600 
    184 H184        4.5839  -12.2412  -44.9709 H         1 UNK         0.3000 
    185 H185        3.2196  -14.1112  -42.3885 H         1 UNK         0.0600 
    186 H186        4.2578  -12.4089  -40.8871 H         1 UNK         0.0600 
    187 H187        3.8673  -11.1392  -42.0412 H         1 UNK         0.0600 
    188 H188        2.5785  -12.0266  -41.2253 H         1 UNK         0.0600 
    189 H189        2.1343  -11.8568  -43.6676 H         1 UNK         0.3000 
    190 H190       -2.9876  -19.3993  -46.2834 H         1 UNK         0.3000 
    191 H191       -3.9751  -20.2399  -48.7785 H         1 UNK         0.0600 
    192 H192       -5.3490  -20.3406  -46.0395 H         1 UNK         0.0600 
    193 H193       -6.1540  -20.3637  -47.6036 H         1 UNK         0.0600 
    194 H194       -5.2750  -18.9318  -47.0913 H         1 UNK         0.0600 
    195 H195       -3.3973  -22.1502  -45.7838 H         1 UNK         0.3000 
    196 H196       -4.3790  -24.6298  -46.7721 H         1 UNK         0.0600 
    197 H197       -3.1376  -25.5933  -44.8382 H         1 UNK         0.0600 
    198 H198       -4.0529  -24.1717  -44.3599 H         1 UNK         0.0600 
    199 H199       -2.3088  -24.0629  -44.5861 H         1 UNK         0.0600 
    200 H200       -1.0932  -23.1788  -46.8829 H         1 UNK         0.3000 
    201 H201        0.1899  -25.4195  -48.1222 H         1 UNK         0.0600 
    202 H202        1.4372  -23.6578  -46.9016 H         1 UNK         0.0600 
    203 H203        0.9542  -22.4508  -48.0900 H         1 UNK         0.0600 
    204 H204        2.0135  -23.7751  -48.5579 H         1 UNK         0.0600 
    205 H205       -1.3934  -22.5027  -49.4336 H         1 UNK         0.3000 
    206 H206       -0.8166  -23.0895  -52.2072 H         1 UNK         0.0600 
    207 H207       -2.3632  -21.0959  -52.5421 H         1 UNK         0.0600 
    208 H208       -2.6474  -21.0725  -50.8103 H         1 UNK         0.0600 
    209 H209       -1.0327  -20.7805  -51.4402 H         1 UNK         0.0600 
    210 H210       -3.0708  -24.5292  -50.1216 H         1 UNK         0.3000 
    211 H211       -5.4075  -24.7176  -51.6660 H         1 UNK         0.0600 
    212 H212       -4.2734  -26.7493  -49.6763 H         1 UNK         0.0600 
    213 H213       -5.9462  -26.6445  -50.2075 H         1 UNK         0.0600 
    214 H214       -5.2506  -25.3419  -49.2546 H         1 UNK         0.0600 
    215 H215       -6.0137  -25.8947  -53.3535 H         1 UNK         0.3000 
    216 H216       -6.0665  -27.0769  -55.1833 H         1 UNK         0.0600 
    217 H217       -5.0797  -29.3263  -55.3330 H         1 UNK         0.0600 
    218 H218       -5.8105  -29.0973  -53.7521 H         1 UNK         0.0600 
    219 H219       -4.0585  -29.0245  -53.9374 H         1 UNK         0.0600 
    220 H220       -2.7352  -26.4781  -54.1395 H         1 UNK         0.3000 
    221 H221       -1.4506  -26.6390  -56.6664 H         1 UNK         0.0600 
    222 H222       -0.6828  -25.0922  -54.1301 H         1 UNK         0.0600 
    223 H223       -0.2362  -26.7534  -54.5119 H         1 UNK         0.0600 
    224 H224        0.3982  -25.4299  -55.4779 H         1 UNK         0.0600 
    225 H225       -2.8497  -23.8274  -54.9231 H         1 UNK         0.3000 
    226 H226       -2.9884  -22.2929  -57.4676 H         1 UNK         0.0600 
    227 H227       -0.9465  -21.5341  -56.2457 H         1 UNK         0.0600 
    228 H228       -2.1714  -20.2770  -56.2550 H         1 UNK         0.0600 
    229 H229       -1.9090  -21.2344  -54.8017 H         1 UNK         0.0600 
    230 H230       -4.8255  -23.8783  -55.6394 H         1 UNK         0.3000 
    231 H231       -6.9158  -23.8983  -54.9145 H         1 UNK         0.0600 
    232 H232       -8.5852  -22.4871  -56.0358 H         1 UNK         0.0600 
    233 H233       -7.3819  -23.0034  -57.2048 H         1 UNK         0.0600 
    234 H234       -7.3478  -21.3590  -56.5689 H         1 UNK         0.0600 
    235 H235       -5.0200  -22.7032  -53.1819 H         1 UNK         0.3000 
    236 H236       -4.8351  -21.7522  -51.1894 H         1 UNK         0.0600 
    237 H237       -6.7716  -23.0963  -50.5102 H         1 UNK         0.0600 
    238 H238       -6.8361  -21.5423  -49.7122 H         1 UNK         0.0600 
    239 H239       -7.8998  -21.8735  -51.0774 H         1 UNK         0.0600 
    240 H240       -7.6501  -19.8471  -51.0338 H         1 UNK         0.3000 
    241 H241       -6.3906  -17.4817  -52.3143 H         1 UNK         0.0600 
    242 H242       -9.8228  -18.5778  -53.7323 H         1 UNK         0.3800 
    243 H243       -8.5262  -19.6304  -53.2266 H         1 UNK         0.3800 
    244 H244       -7.4319  -16.0155  -50.5707 H         1 UNK         0.0800 
    245 H245       -7.9650  -17.4249  -49.6961 H         1 UNK         0.0800 
    246 H246       -4.5353  -16.3008  -51.4722 H         1 UNK         0.0800 
    247 H247       -5.1760  -14.9748  -50.5298 H         1 UNK         0.0800 
@<TRIPOS>BOND
     1    1    2 1    
     2    1  127 1    
     3    1  128 1    
     4    1  129 1    
     5    2    3 2    
     6    2    4 am   BACKBONE|DICT|INTERRES
     7    4    5 1    
     8    4  130 1    
     9    5    6 1    
    10    5   65 1    
    11    5  131 1    
    12    6    7 1    
    13    6  132 1    
    14    6  133 1    
    15    7    8 1    
    16    8    9 1    
    17    8  134 1    
    18    8  135 1    
    19    9   10 ar   
    20    9   14 ar   
    21   10   11 ar   
    22   10  136 1    
    23   11   12 ar   
    24   11  126 1    
    25   12   13 ar   
    26   12  137 1    
    27   13   14 ar   
    28   13   15 1    
    29   14  138 1    
    30   15   16 1    
    31   15  139 1    
    32   15  140 1    
    33   16   17 1    
    34   17   18 1    
    35   17  141 1    
    36   17  142 1    
    37   18   19 1    
    38   18   67 1    
    39   18  143 1    
    40   19   20 am   BACKBONE|DICT|INTERRES
    41   19  144 1    
    42   20   21 2    
    43   20   22 1    
    44   22   23 1    
    45   22   24 1    
    46   22  145 1    
    47   23  146 1    
    48   23  147 1    
    49   23  148 1    
    50   24   25 am   BACKBONE|DICT|INTERRES
    51   24  149 1    
    52   25   26 2    
    53   25   27 1    
    54   27   28 1    
    55   27   29 1    
    56   27  150 1    
    57   28  151 1    
    58   28  152 1    
    59   28  153 1    
    60   29   30 am   BACKBONE|DICT|INTERRES
    61   29  154 1    
    62   30   31 2    
    63   30   32 1    
    64   32   33 1    
    65   32   34 1    
    66   32  155 1    
    67   33  156 1    
    68   33  157 1    
    69   33  158 1    
    70   34   35 am   BACKBONE|DICT|INTERRES
    71   34  159 1    
    72   35   36 2    
    73   35   37 1    
    74   37   38 1    
    75   37   39 1    
    76   37  160 1    
    77   38  161 1    
    78   38  162 1    
    79   38  163 1    
    80   39   40 am   BACKBONE|DICT|INTERRES
    81   39  164 1    
    82   40   41 2    
    83   40   42 1    
    84   42   43 1    
    85   42   44 1    
    86   42  165 1    
    87   43  166 1    
    88   43  167 1    
    89   43  168 1    
    90   44   45 am   BACKBONE|DICT|INTERRES
    91   44  169 1    
    92   45   46 2    
    93   45   47 1    
    94   47   48 1    
    95   47   49 1    
    96   47  170 1    
    97   48  171 1    
    98   48  172 1    
    99   48  173 1    
   100   49   50 am   BACKBONE|DICT|INTERRES
   101   49  174 1    
   102   50   51 2    
   103   50   52 1    
   104   52   53 1    
   105   52   54 1    
   106   52  175 1    
   107   53  176 1    
   108   53  177 1    
   109   53  178 1    
   110   54   55 am   BACKBONE|DICT|INTERRES
   111   54  179 1    
   112   55   56 2    
   113   55   57 1    
   114   57   58 1    
   115   57   59 1    
   116   57  180 1    
   117   58  181 1    
   118   58  182 1    
   119   58  183 1    
   120   59   60 am   BACKBONE|DICT|INTERRES
   121   59  184 1    
   122   60   61 2    
   123   60   62 1    
   124   62   63 1    
   125   62   64 1    
   126   62  185 1    
   127   63  186 1    
   128   63  187 1    
   129   63  188 1    
   130   64   65 am   BACKBONE|DICT|INTERRES
   131   64  189 1    
   132   65   66 2    
   133   67   68 2    
   134   67   69 am   BACKBONE|DICT|INTERRES
   135   69   70 1    
   136   69  190 1    
   137   70   71 1    
   138   70   72 1    
   139   70  191 1    
   140   71  192 1    
   141   71  193 1    
   142   71  194 1    
   143   72   73 2    
   144   72   74 am   BACKBONE|DICT|INTERRES
   145   74   75 1    
   146   74  195 1    
   147   75   76 1    
   148   75   77 1    
   149   75  196 1    
   150   76  197 1    
   151   76  198 1    
   152   76  199 1    
   153   77   78 2    
   154   77   79 am   BACKBONE|DICT|INTERRES
   155   79   80 1    
   156   79  200 1    
   157   80   81 1    
   158   80   82 1    
   159   80  201 1    
   160   81  202 1    
   161   81  203 1    
   162   81  204 1    
   163   82   83 2    
   164   82   84 am   BACKBONE|DICT|INTERRES
   165   84   85 1    
   166   84  205 1    
   167   85   86 1    
   168   85   87 1    
   169   85  206 1    
   170   86  207 1    
   171   86  208 1    
   172   86  209 1    
   173   87   88 2    
   174   87   89 am   BACKBONE|DICT|INTERRES
   175   89   90 1    
   176   89  210 1    
   177   90   91 1    
   178   90   92 1    
   179   90  211 1    
   180   91  212 1    
   181   91  213 1    
   182   91  214 1    
   183   92   93 2    
   184   92   94 am   BACKBONE|DICT|INTERRES
   185   94   95 1    
   186   94  215 1    
   187   95   96 1    
   188   95   97 1    
   189   95  216 1    
   190   96  217 1    
   191   96  218 1    
   192   96  219 1    
   193   97   98 2    
   194   97   99 am   BACKBONE|DICT|INTERRES
   195   99  100 1    
   196   99  220 1    
   197  100  101 1    
   198  100  102 1    
   199  100  221 1    
   200  101  222 1    
   201  101  223 1    
   202  101  224 1    
   203  102  103 2    
   204  102  104 am   BACKBONE|DICT|INTERRES
   205  104  105 1    
   206  104  225 1    
   207  105  106 1    
   208  105  107 1    
   209  105  226 1    
   210  106  227 1    
   211  106  228 1    
   212  106  229 1    
   213  107  108 2    
   214  107  109 am   BACKBONE|DICT|INTERRES
   215  109  110 1    
   216  109  230 1    
   217  110  111 1    
   218  110  112 1    
   219  110  231 1    
   220  111  232 1    
   221  111  233 1    
   222  111  234 1    
   223  112  113 2    
   224  112  114 am   BACKBONE|DICT|INTERRES
   225  114  115 1    
   226  114  235 1    
   227  115  116 1    
   228  115  117 1    
   229  115  236 1    
   230  116  237 1    
   231  116  238 1    
   232  116  239 1    
   233  117  118 2    
   234  117  119 am   BACKBONE|DICT|INTERRES
   235  119  120 1    
   236  119  240 1    
   237  120  121 1    
   238  120  124 1    
   239  120  241 1    
   240  121  122 am   BACKBONE|DICT|INTERRES
   241  121  123 2    
   242  122  242 1    
   243  122  243 1    
   244  124  125 1    
   245  124  244 1    
   246  124  245 1    
   247  125  126 1    
   248  126  246 1    
   249  126  247 1    
@<TRIPOS>SUBSTRUCTURE
     1 UNK         1 GROUP             0       ****    0 ROOT    
