@<TRIPOS>MOLECULE
3R540
247   249    1
SMALL
USER_CHARGES


@<TRIPOS>ATOM
      1 CA          1.1812  -11.3774  -44.5476 C.3       0 UNK        -0.1800 
      2 C           2.4771  -10.8506  -45.1444 C.2       0 UNK         0.5000 
      3 O           3.0000   -9.8413  -44.6718 O.2       0 UNK        -0.5000 
      4 N           2.9933  -11.5186  -46.1848 N.am      1 UNK        -0.5000 
      5 CA          4.2274  -11.1370  -46.8855 C.3       1 UNK         0.1400 
      6 C6          4.2493  -11.6493  -48.3490 C.3       23 UNK        -0.0398 
      7 S7          4.2429  -13.4699  -48.5341 S.3       23 UNK        -0.2404 
      8 C8          2.6373  -13.7561  -49.3435 C.3       23 UNK        -0.0205 
      9 C9          2.4812  -15.2044  -49.7873 C.ar      23 UNK        -0.0193 
     10 C10         2.3410  -15.5205  -51.1419 C.ar      23 UNK        -0.1150 
     11 C11         2.1806  -16.8487  -51.5471 C.ar      23 UNK        -0.0193 
     12 C12         2.1811  -17.8654  -50.5885 C.ar      23 UNK        -0.1150 
     13 C13         2.3208  -17.5683  -49.2265 C.ar      23 UNK        -0.0193 
     14 C14         2.4620  -16.2321  -48.8403 C.ar      23 UNK        -0.1150 
     15 C15         2.3043  -18.6355  -48.1310 C.3       23 UNK        -0.0205 
     16 S16         2.6202  -20.3520  -48.6648 S.3       23 UNK        -0.2404 
     17 C17         0.9929  -20.8834  -49.2987 C.3       23 UNK        -0.0398 
     18 CA          0.1766  -21.6303  -48.2187 C.3       11 UNK         0.1400 
     19 N          -0.4205  -20.7144  -47.2457 N.am      11 UNK        -0.5000 
     20 C          -0.9427  -21.0843  -46.0695 C.2       10 UNK         0.5000 
     21 O          -0.9666  -22.2446  -45.6618 O.2       10 UNK        -0.5000 
     22 CA         -1.5924  -19.9676  -45.2362 C.3       10 UNK         0.1400 
     23 CB         -0.5154  -19.1637  -44.4916 C.3       10 UNK        -0.1800 
     24 N          -2.4025  -19.0768  -46.0710 N.am      10 UNK        -0.5000 
     25 C          -3.5411  -19.4596  -46.6716 C.2       9 UNK         0.5000 
     26 O          -4.0352  -20.5785  -46.5394 O.2       9 UNK        -0.5000 
     27 CA         -4.2260  -18.4590  -47.6188 C.3       9 UNK         0.1400 
     28 CB         -5.3059  -17.6559  -46.8819 C.3       9 UNK        -0.1800 
     29 N          -3.2955  -17.5446  -48.2738 N.am      9 UNK        -0.5000 
     30 C          -2.3476  -17.9185  -49.1451 C.2       8 UNK         0.5000 
     31 O          -2.1475  -19.0881  -49.4773 O.2       8 UNK        -0.5000 
     32 CA         -1.4301  -16.8078  -49.6906 C.3       8 UNK         0.1400 
     33 CB         -1.9894  -16.2422  -51.0011 C.3       8 UNK        -0.1800 
     34 N          -1.2049  -15.6938  -48.7671 N.am      8 UNK        -0.5000 
     35 C          -0.7442  -15.7882  -47.5136 C.2       7 UNK         0.5000 
     36 O          -0.4930  -16.8591  -46.9564 O.2       7 UNK        -0.5000 
     37 CA         -0.5365  -14.4726  -46.7392 C.3       7 UNK         0.1400 
     38 CB         -1.0664  -13.2089  -47.4568 C.3       7 UNK        -0.1800 
     39 N          -1.0812  -14.5733  -45.3858 N.am      7 UNK        -0.5000 
     40 C          -2.3579  -14.8002  -45.0384 C.2       6 UNK         0.5000 
     41 O          -3.2785  -14.8816  -45.8528 O.2       6 UNK        -0.5000 
     42 CA         -2.6665  -14.9950  -43.5378 C.3       6 UNK         0.1400 
     43 CB         -3.4299  -16.3087  -43.2965 C.3       6 UNK        -0.1800 
     44 N          -1.4619  -14.9861  -42.7024 N.am      6 UNK        -0.5000 
     45 C          -0.8926  -13.8850  -42.1941 C.2       5 UNK         0.5000 
     46 O          -1.3604  -12.7532  -42.3188 O.2       5 UNK        -0.5000 
     47 CA          0.4398  -14.0752  -41.4425 C.3       5 UNK         0.1400 
     48 CB          0.1877  -14.2357  -39.9358 C.3       5 UNK        -0.1800 
     49 N           1.2498  -15.2046  -41.9121 N.am      5 UNK        -0.5000 
     50 C           1.7542  -15.3432  -43.1450 C.2       4 UNK         0.5000 
     51 O           1.5283  -14.5586  -44.0661 O.2       4 UNK        -0.5000 
     52 CA          2.7007  -16.5381  -43.3695 C.3       4 UNK         0.1400 
     53 CB          2.7800  -16.9340  -44.8544 C.3       4 UNK        -0.1800 
     54 N           4.0472  -16.2089  -42.9119 N.am      4 UNK        -0.5000 
     55 C           4.4351  -16.0520  -41.6389 C.2       3 UNK         0.5000 
     56 O           3.7301  -16.3388  -40.6702 O.2       3 UNK        -0.5000 
     57 CA          5.8396  -15.4532  -41.4107 C.3       3 UNK         0.1400 
     58 CB          6.8429  -16.5584  -41.0470 C.3       3 UNK        -0.1800 
     59 N           6.3547  -14.7027  -42.5632 N.am      3 UNK        -0.5000 
     60 C           5.8363  -13.5610  -43.0393 C.2       2 UNK         0.5000 
     61 O           4.8782  -12.9843  -42.5203 O.2       2 UNK        -0.5000 
     62 CA          6.4617  -12.9805  -44.3211 C.3       2 UNK         0.1400 
     63 CB          7.3085  -13.9937  -45.1247 C.3       2 UNK        -0.1800 
     64 N           5.3859  -12.4544  -45.1548 N.am      2 UNK        -0.5000 
     65 C           5.5095  -11.5301  -46.1143 C.2       1 UNK         0.5000 
     66 O           6.5784  -10.9906  -46.4060 O.2       1 UNK        -0.5000 
     67 C          -0.8904  -22.5440  -48.8487 C.2       11 UNK         0.5000 
     68 O          -0.6546  -23.7458  -48.9669 O.2       11 UNK        -0.5000 
     69 N          -2.0576  -21.9811  -49.1944 N.am      12 UNK        -0.5000 
     70 CA         -3.1998  -22.7261  -49.7272 C.3       12 UNK         0.1400 
     71 CB         -4.2934  -21.7456  -50.1705 C.3       12 UNK        -0.1800 
     72 C          -3.7659  -23.7547  -48.7296 C.2       12 UNK         0.5000 
     73 O          -4.1531  -24.8493  -49.1447 O.2       12 UNK        -0.5000 
     74 N          -3.7900  -23.3954  -47.4385 N.am      13 UNK        -0.5000 
     75 CA         -4.1686  -24.2819  -46.3400 C.3       13 UNK         0.1400 
     76 CB         -4.4185  -23.4599  -45.0672 C.3       13 UNK        -0.1800 
     77 C          -3.1180  -25.3770  -46.0883 C.2       13 UNK         0.5000 
     78 O          -3.4902  -26.5410  -45.9465 O.2       13 UNK        -0.5000 
     79 N          -1.8292  -25.0030  -46.0749 N.am      14 UNK        -0.5000 
     80 CA         -0.6957  -25.9180  -45.8945 C.3       14 UNK         0.1400 
     81 CB          0.6039  -25.1119  -45.7538 C.3       14 UNK        -0.1800 
     82 C          -0.5671  -26.9575  -47.0241 C.2       14 UNK         0.5000 
     83 O          -0.2324  -28.1117  -46.7555 O.2       14 UNK        -0.5000 
     84 N          -0.8779  -26.5405  -48.2584 N.am      15 UNK        -0.5000 
     85 CA         -0.9655  -27.3980  -49.4417 C.3       15 UNK         0.1400 
     86 CB         -0.9519  -26.5056  -50.6936 C.3       15 UNK        -0.1800 
     87 C          -2.2125  -28.3073  -49.4551 C.2       15 UNK         0.5000 
     88 O          -2.2850  -29.2056  -50.2944 O.2       15 UNK        -0.5000 
     89 N          -3.1769  -28.0417  -48.5591 N.am      16 UNK        -0.5000 
     90 CA         -4.4959  -28.6742  -48.4408 C.3       16 UNK         0.1400 
     91 CB         -4.3666  -30.1676  -48.0760 C.3       16 UNK        -0.1800 
     92 C          -5.3993  -28.4271  -49.6682 C.2       16 UNK         0.5000 
     93 O          -6.3110  -29.2131  -49.9322 O.2       16 UNK        -0.5000 
     94 N          -5.1341  -27.3325  -50.3924 N.am      17 UNK        -0.5000 
     95 CA         -5.8934  -26.8992  -51.5605 C.3       17 UNK         0.1400 
     96 CB         -4.9647  -26.1064  -52.4949 C.3       17 UNK        -0.1800 
     97 C          -7.0993  -26.0423  -51.1488 C.2       17 UNK         0.5000 
     98 O          -8.1700  -26.1792  -51.7406 O.2       17 UNK        -0.5000 
     99 N          -6.8885  -25.1659  -50.1518 N.am      18 UNK        -0.5000 
    100 CA        -7.8464  -24.1991  -49.5956 C.3       18 UNK         0.1400 
    101 CB        -8.9753  -24.9295  -48.8405 C.3       18 UNK        -0.1800 
    102 C         -8.3806  -23.1819  -50.6327 C.2       18 UNK         0.5000 
    103 O         -9.4715  -22.6364  -50.4628 O.2       18 UNK        -0.5000 
    104 N         -7.5921  -22.9392  -51.6890 N.am      19 UNK        -0.5000 
    105 CA        -7.9272  -22.0857  -52.8310 C.3       19 UNK         0.1400 
    106 CB        -7.0125  -22.4763  -54.0037 C.3       19 UNK        -0.1800 
    107 C         -7.8094  -20.5753  -52.5463 C.2       19 UNK         0.5000 
    108 O         -8.2167  -19.7756  -53.3891 O.2       19 UNK        -0.5000 
    109 N         -7.2154  -20.2111  -51.4005 N.am      20 UNK        -0.5000 
    110 CA        -6.9158  -18.8645  -50.8904 C.3       20 UNK         0.1400 
    111 CB        -8.1942  -18.0202  -50.7323 C.3       20 UNK        -0.1800 
    112 C         -5.8323  -18.0962  -51.6759 C.2       20 UNK         0.5000 
    113 O         -5.0721  -17.3496  -51.0636 O.2       20 UNK        -0.5000 
    114 N         -5.7677  -18.2900  -52.9962 N.am      21 UNK        -0.5000 
    115 CA        -4.7285  -17.7758  -53.8842 C.3       21 UNK         0.1400 
    116 CB        -5.3271  -17.6422  -55.2942 C.3       21 UNK        -0.1800 
    117 C         -3.4969  -18.7023  -53.9062 C.2       21 UNK         0.5000 
    118 O         -3.5753  -19.8540  -53.4717 O.2       21 UNK        -0.5000 
    119 N         -2.3894  -18.1865  -54.4544 N.am      22 UNK        -0.5000 
    120 CA        -1.1161  -18.9091  -54.6422 C.3       22 UNK         0.1400 
    121 C         -1.1559  -20.0481  -55.7059 C.2       22 UNK         0.5000 
    122 N         -2.1749  -20.1413  -56.5518 N.am      22 UNK        -0.7600 
    123 O         -0.2410  -20.8650  -55.7629 O.2       22 UNK        -0.5000 
    124 C124        0.0532  -17.9347  -54.9487 C.3       23 UNK        -0.0398 
    125 S125        0.3358  -16.7398  -53.5990 S.3       23 UNK        -0.2404 
    126 C126        2.0005  -17.1933  -53.0180 C.3       23 UNK        -0.0205 
    127 H127        1.3487  -11.7032  -43.5216 H         1 UNK         0.0600 
    128 H128        0.7899  -12.2217  -45.1126 H         1 UNK         0.0600 
    129 H129        0.4219  -10.5957  -44.5390 H         1 UNK         0.0600 
    130 H130        2.5383  -12.3544  -46.5210 H         1 UNK         0.3000 
    131 H131        4.2432  -10.0464  -46.9452 H         1 UNK         0.0600 
    132 H132        3.4009  -11.2267  -48.8886 H         1 UNK         0.0800 
    133 H133        5.1322  -11.2660  -48.8635 H         1 UNK         0.0800 
    134 H134        1.8335  -13.4987  -48.6546 H         1 UNK         0.0800 
    135 H135        2.5425  -13.0859  -50.1993 H         1 UNK         0.0800 
    136 H136        2.3430  -14.7348  -51.8843 H         1 UNK         0.1150 
    137 H137        2.0640  -18.8858  -50.9186 H         1 UNK         0.1150 
    138 H138        2.5617  -15.9868  -47.7925 H         1 UNK         0.1150 
    139 H139        3.0753  -18.3874  -47.4011 H         1 UNK         0.0800 
    140 H140        1.3563  -18.5877  -47.5977 H         1 UNK         0.0800 
    141 H141        1.1931  -21.5336  -50.1527 H         1 UNK         0.0800 
    142 H142        0.4343  -20.0327  -49.6915 H         1 UNK         0.0800 
    143 H143        0.8583  -22.2883  -47.6752 H         1 UNK         0.0600 
    144 H144       -0.4952  -19.7458  -47.5196 H         1 UNK         0.3000 
    145 H145       -2.2464  -20.4324  -44.4953 H         1 UNK         0.0600 
    146 H146       -0.9477  -18.3651  -43.8916 H         1 UNK         0.0600 
    147 H147        0.0501  -19.8066  -43.8161 H         1 UNK         0.0600 
    148 H148        0.1962  -18.7162  -45.1835 H         1 UNK         0.0600 
    149 H149       -2.0123  -18.1650  -46.2827 H         1 UNK         0.3000 
    150 H150       -4.7145  -19.0391  -48.4016 H         1 UNK         0.0600 
    151 H151       -6.0401  -18.3189  -46.4224 H         1 UNK         0.0600 
    152 H152       -5.8440  -16.9989  -47.5656 H         1 UNK         0.0600 
    153 H153       -4.8787  -17.0410  -46.0902 H         1 UNK         0.0600 
    154 H154       -3.3673  -16.5672  -48.0280 H         1 UNK         0.3000 
    155 H155       -0.4627  -17.2635  -49.8998 H         1 UNK         0.0600 
    156 H156       -2.9416  -15.7342  -50.8463 H         1 UNK         0.0600 
    157 H157       -2.1539  -17.0374  -51.7283 H         1 UNK         0.0600 
    158 H158       -1.2993  -15.5263  -51.4471 H         1 UNK         0.0600 
    159 H159       -1.4041  -14.7738  -49.1304 H         1 UNK         0.3000 
    160 H160        0.5423  -14.3620  -46.6255 H         1 UNK         0.0600 
    161 H161       -2.1364  -13.2680  -47.6586 H         1 UNK         0.0600 
    162 H162       -0.5581  -13.0465  -48.4076 H         1 UNK         0.0600 
    163 H163       -0.8989  -12.3175  -46.8529 H         1 UNK         0.0600 
    164 H164       -0.3794  -14.5559  -44.6540 H         1 UNK         0.3000 
    165 H165       -3.3184  -14.1728  -43.2356 H         1 UNK         0.0600 
    166 H166       -3.6128  -16.4718  -42.2343 H         1 UNK         0.0600 
    167 H167       -4.4025  -16.2893  -43.7892 H         1 UNK         0.0600 
    168 H168       -2.8883  -17.1711  -43.6823 H         1 UNK         0.0600 
    169 H169       -1.0056  -15.8738  -42.5515 H         1 UNK         0.3000 
    170 H170        1.0294  -13.1687  -41.5916 H         1 UNK         0.0600 
    171 H171       -0.3870  -13.3957  -39.5432 H         1 UNK         0.0600 
    172 H172       -0.3701  -15.1470  -39.7165 H         1 UNK         0.0600 
    173 H173        1.1254  -14.2736  -39.3809 H         1 UNK         0.0600 
    174 H174        1.5591  -15.8576  -41.2033 H         1 UNK         0.3000 
    175 H175        2.3216  -17.3919  -42.8041 H         1 UNK         0.0600 
    176 H176        3.2760  -16.1671  -45.4505 H         1 UNK         0.0600 
    177 H177        3.3301  -17.8662  -44.9818 H         1 UNK         0.0600 
    178 H178        1.7868  -17.0777  -45.2788 H         1 UNK         0.0600 
    179 H179        4.7027  -15.9410  -43.6298 H         1 UNK         0.3000 
    180 H180        5.7657  -14.7651  -40.5661 H         1 UNK         0.0600 
    181 H181        7.8205  -16.1406  -40.8057 H         1 UNK         0.0600 
    182 H182        6.9723  -17.2694  -41.8639 H         1 UNK         0.0600 
    183 H183        6.5070  -17.1194  -40.1738 H         1 UNK         0.0600 
    184 H184        7.1423  -15.1107  -43.0462 H         1 UNK         0.3000 
    185 H185        7.1027  -12.1531  -44.0105 H         1 UNK         0.0600 
    186 H186        8.1640  -14.3473  -44.5484 H         1 UNK         0.0600 
    187 H187        6.7200  -14.8614  -45.4260 H         1 UNK         0.0600 
    188 H188        7.7109  -13.5414  -46.0312 H         1 UNK         0.0600 
    189 H189        4.4591  -12.7854  -44.9225 H         1 UNK         0.3000 
    190 H190       -2.1597  -20.9721  -49.1216 H         1 UNK         0.3000 
    191 H191       -2.8560  -23.2729  -50.6077 H         1 UNK         0.0600 
    192 H192       -3.9039  -21.0039  -50.8689 H         1 UNK         0.0600 
    193 H193       -5.0975  -22.2761  -50.6771 H         1 UNK         0.0600 
    194 H194       -4.7264  -21.2151  -49.3228 H         1 UNK         0.0600 
    195 H195       -3.5257  -22.4496  -47.1843 H         1 UNK         0.3000 
    196 H196       -5.1051  -24.7752  -46.6097 H         1 UNK         0.0600 
    197 H197       -4.7010  -24.1044  -44.2339 H         1 UNK         0.0600 
    198 H198       -5.2286  -22.7456  -45.2145 H         1 UNK         0.0600 
    199 H199       -3.5320  -22.9010  -44.7660 H         1 UNK         0.0600 
    200 H200       -1.6019  -24.0155  -46.1504 H         1 UNK         0.3000 
    201 H201       -0.8578  -26.4639  -44.9630 H         1 UNK         0.0600 
    202 H202        0.5583  -24.4356  -44.9002 H         1 UNK         0.0600 
    203 H203        0.8049  -24.5160  -46.6442 H         1 UNK         0.0600 
    204 H204        1.4589  -25.7714  -45.5998 H         1 UNK         0.0600 
    205 H205       -1.0581  -25.5507  -48.4050 H         1 UNK         0.3000 
    206 H206       -0.0859  -28.0442  -49.4686 H         1 UNK         0.0600 
    207 H207       -0.0463  -25.9003  -50.7363 H         1 UNK         0.0600 
    208 H208       -0.9850  -27.1035  -51.6052 H         1 UNK         0.0600 
    209 H209       -1.8076  -25.8292  -50.7128 H         1 UNK         0.0600 
    210 H210       -3.0084  -27.2954  -47.8955 H         1 UNK         0.3000 
    211 H211       -4.9912  -28.1772  -47.6058 H         1 UNK         0.0600 
    212 H212       -3.9563  -30.7537  -48.8985 H         1 UNK         0.0600 
    213 H213       -5.3385  -30.5942  -47.8257 H         1 UNK         0.0600 
    214 H214       -3.7205  -30.3060  -47.2090 H         1 UNK         0.0600 
    215 H215       -4.4127  -26.7036  -50.0595 H         1 UNK         0.3000 
    216 H216       -6.2615  -27.7722  -52.1040 H         1 UNK         0.0600 
    217 H217       -4.1309  -26.7224  -52.8325 H         1 UNK         0.0600 
    218 H218       -4.5492  -25.2250  -52.0047 H         1 UNK         0.0600 
    219 H219       -5.4997  -25.7683  -53.3834 H         1 UNK         0.0600 
    220 H220       -5.9592  -25.1440  -49.7408 H         1 UNK         0.3000 
    221 H221       -7.2895  -23.6128  -48.8631 H         1 UNK         0.0600 
    222 H222       -9.6179  -25.4915  -49.5187 H         1 UNK         0.0600 
    223 H223       -8.5707  -25.6268  -48.1070 H         1 UNK         0.0600 
    224 H224       -9.6076  -24.2239  -48.3004 H         1 UNK         0.0600 
    225 H225       -6.7251  -23.4501  -51.7546 H         1 UNK         0.3000 
    226 H226       -8.9614  -22.2835  -53.1204 H         1 UNK         0.0600 
    227 H227       -7.1204  -23.5319  -54.2544 H         1 UNK         0.0600 
    228 H228       -7.2574  -21.9057  -54.9006 H         1 UNK         0.0600 
    229 H229       -5.9621  -22.2900  -53.7742 H         1 UNK         0.0600 
    230 H230       -6.9062  -20.9653  -50.8070 H         1 UNK         0.3000 
    231 H231       -6.5133  -19.0218  -49.8898 H         1 UNK         0.0600 
    232 H232       -7.9745  -17.0763  -50.2318 H         1 UNK         0.0600 
    233 H233       -8.9393  -18.5413  -50.1311 H         1 UNK         0.0600 
    234 H234       -8.6467  -17.7784  -51.6942 H         1 UNK         0.0600 
    235 H235       -6.4577  -18.9075  -53.4089 H         1 UNK         0.3000 
    236 H236       -4.4140  -16.7884  -53.5391 H         1 UNK         0.0600 
    237 H237       -6.1970  -16.9850  -55.2906 H         1 UNK         0.0600 
    238 H238       -4.6063  -17.2172  -55.9936 H         1 UNK         0.0600 
    239 H239       -5.6415  -18.6088  -55.6906 H         1 UNK         0.0600 
    240 H240       -2.4036  -17.2343  -54.7891 H         1 UNK         0.3000 
    241 H241       -0.8900  -19.4032  -53.6950 H         1 UNK         0.0600 
    242 H242       -2.1874  -20.8852  -57.2320 H         1 UNK         0.3800 
    243 H243       -2.9344  -19.4816  -56.5170 H         1 UNK         0.3800 
    244 H244        0.9773  -18.4833  -55.1385 H         1 UNK         0.0800 
    245 H245       -0.1517  -17.3750  -55.8627 H         1 UNK         0.0800 
    246 H246        2.1713  -18.2598  -53.1718 H         1 UNK         0.0800 
    247 H247        2.7481  -16.6710  -53.6165 H         1 UNK         0.0800 
@<TRIPOS>BOND
     1    1    2 1    
     2    1  127 1    
     3    1  128 1    
     4    1  129 1    
     5    2    3 2    
     6    2    4 am   BACKBONE|DICT|INTERRES
     7    4    5 1    
     8    4  130 1    
     9    5    6 1    
    10    5   65 1    
    11    5  131 1    
    12    6    7 1    
    13    6  132 1    
    14    6  133 1    
    15    7    8 1    
    16    8    9 1    
    17    8  134 1    
    18    8  135 1    
    19    9   10 ar   
    20    9   14 ar   
    21   10   11 ar   
    22   10  136 1    
    23   11   12 ar   
    24   11  126 1    
    25   12   13 ar   
    26   12  137 1    
    27   13   14 ar   
    28   13   15 1    
    29   14  138 1    
    30   15   16 1    
    31   15  139 1    
    32   15  140 1    
    33   16   17 1    
    34   17   18 1    
    35   17  141 1    
    36   17  142 1    
    37   18   19 1    
    38   18   67 1    
    39   18  143 1    
    40   19   20 am   BACKBONE|DICT|INTERRES
    41   19  144 1    
    42   20   21 2    
    43   20   22 1    
    44   22   23 1    
    45   22   24 1    
    46   22  145 1    
    47   23  146 1    
    48   23  147 1    
    49   23  148 1    
    50   24   25 am   BACKBONE|DICT|INTERRES
    51   24  149 1    
    52   25   26 2    
    53   25   27 1    
    54   27   28 1    
    55   27   29 1    
    56   27  150 1    
    57   28  151 1    
    58   28  152 1    
    59   28  153 1    
    60   29   30 am   BACKBONE|DICT|INTERRES
    61   29  154 1    
    62   30   31 2    
    63   30   32 1    
    64   32   33 1    
    65   32   34 1    
    66   32  155 1    
    67   33  156 1    
    68   33  157 1    
    69   33  158 1    
    70   34   35 am   BACKBONE|DICT|INTERRES
    71   34  159 1    
    72   35   36 2    
    73   35   37 1    
    74   37   38 1    
    75   37   39 1    
    76   37  160 1    
    77   38  161 1    
    78   38  162 1    
    79   38  163 1    
    80   39   40 am   BACKBONE|DICT|INTERRES
    81   39  164 1    
    82   40   41 2    
    83   40   42 1    
    84   42   43 1    
    85   42   44 1    
    86   42  165 1    
    87   43  166 1    
    88   43  167 1    
    89   43  168 1    
    90   44   45 am   BACKBONE|DICT|INTERRES
    91   44  169 1    
    92   45   46 2    
    93   45   47 1    
    94   47   48 1    
    95   47   49 1    
    96   47  170 1    
    97   48  171 1    
    98   48  172 1    
    99   48  173 1    
   100   49   50 am   BACKBONE|DICT|INTERRES
   101   49  174 1    
   102   50   51 2    
   103   50   52 1    
   104   52   53 1    
   105   52   54 1    
   106   52  175 1    
   107   53  176 1    
   108   53  177 1    
   109   53  178 1    
   110   54   55 am   BACKBONE|DICT|INTERRES
   111   54  179 1    
   112   55   56 2    
   113   55   57 1    
   114   57   58 1    
   115   57   59 1    
   116   57  180 1    
   117   58  181 1    
   118   58  182 1    
   119   58  183 1    
   120   59   60 am   BACKBONE|DICT|INTERRES
   121   59  184 1    
   122   60   61 2    
   123   60   62 1    
   124   62   63 1    
   125   62   64 1    
   126   62  185 1    
   127   63  186 1    
   128   63  187 1    
   129   63  188 1    
   130   64   65 am   BACKBONE|DICT|INTERRES
   131   64  189 1    
   132   65   66 2    
   133   67   68 2    
   134   67   69 am   BACKBONE|DICT|INTERRES
   135   69   70 1    
   136   69  190 1    
   137   70   71 1    
   138   70   72 1    
   139   70  191 1    
   140   71  192 1    
   141   71  193 1    
   142   71  194 1    
   143   72   73 2    
   144   72   74 am   BACKBONE|DICT|INTERRES
   145   74   75 1    
   146   74  195 1    
   147   75   76 1    
   148   75   77 1    
   149   75  196 1    
   150   76  197 1    
   151   76  198 1    
   152   76  199 1    
   153   77   78 2    
   154   77   79 am   BACKBONE|DICT|INTERRES
   155   79   80 1    
   156   79  200 1    
   157   80   81 1    
   158   80   82 1    
   159   80  201 1    
   160   81  202 1    
   161   81  203 1    
   162   81  204 1    
   163   82   83 2    
   164   82   84 am   BACKBONE|DICT|INTERRES
   165   84   85 1    
   166   84  205 1    
   167   85   86 1    
   168   85   87 1    
   169   85  206 1    
   170   86  207 1    
   171   86  208 1    
   172   86  209 1    
   173   87   88 2    
   174   87   89 am   BACKBONE|DICT|INTERRES
   175   89   90 1    
   176   89  210 1    
   177   90   91 1    
   178   90   92 1    
   179   90  211 1    
   180   91  212 1    
   181   91  213 1    
   182   91  214 1    
   183   92   93 2    
   184   92   94 am   BACKBONE|DICT|INTERRES
   185   94   95 1    
   186   94  215 1    
   187   95   96 1    
   188   95   97 1    
   189   95  216 1    
   190   96  217 1    
   191   96  218 1    
   192   96  219 1    
   193   97   98 2    
   194   97   99 am   BACKBONE|DICT|INTERRES
   195   99  100 1    
   196   99  220 1    
   197  100  101 1    
   198  100  102 1    
   199  100  221 1    
   200  101  222 1    
   201  101  223 1    
   202  101  224 1    
   203  102  103 2    
   204  102  104 am   BACKBONE|DICT|INTERRES
   205  104  105 1    
   206  104  225 1    
   207  105  106 1    
   208  105  107 1    
   209  105  226 1    
   210  106  227 1    
   211  106  228 1    
   212  106  229 1    
   213  107  108 2    
   214  107  109 am   BACKBONE|DICT|INTERRES
   215  109  110 1    
   216  109  230 1    
   217  110  111 1    
   218  110  112 1    
   219  110  231 1    
   220  111  232 1    
   221  111  233 1    
   222  111  234 1    
   223  112  113 2    
   224  112  114 am   BACKBONE|DICT|INTERRES
   225  114  115 1    
   226  114  235 1    
   227  115  116 1    
   228  115  117 1    
   229  115  236 1    
   230  116  237 1    
   231  116  238 1    
   232  116  239 1    
   233  117  118 2    
   234  117  119 am   BACKBONE|DICT|INTERRES
   235  119  120 1    
   236  119  240 1    
   237  120  121 1    
   238  120  124 1    
   239  120  241 1    
   240  121  122 am   BACKBONE|DICT|INTERRES
   241  121  123 2    
   242  122  242 1    
   243  122  243 1    
   244  124  125 1    
   245  124  244 1    
   246  124  245 1    
   247  125  126 1    
   248  126  246 1    
   249  126  247 1    
@<TRIPOS>SUBSTRUCTURE
     1 UNK         1 GROUP             0       ****    0 ROOT    
