@<TRIPOS>MOLECULE
3R540
247   249    1
SMALL
USER_CHARGES


@<TRIPOS>ATOM
      1 CA         -1.0937  -11.0830  -45.9994 C.3       0 UNK        -0.1800 
      2 C          -0.2462  -12.1758  -46.6346 C.2       0 UNK         0.5000 
      3 O           0.9704  -12.0213  -46.7512 O.2       0 UNK        -0.5000 
      4 N          -0.8779  -13.2847  -47.0365 N.am      1 UNK        -0.5000 
      5 CA         -0.2471  -14.4659  -47.6390 C.3       1 UNK         0.1400 
      6 C6         -1.2403  -15.2409  -48.5365 C.3       23 UNK        -0.0398 
      7 S7         -1.7273  -14.2690  -50.0030 S.3       23 UNK        -0.2404 
      8 C8         -0.4249  -14.7211  -51.2014 C.3       23 UNK        -0.0205 
      9 C9         -0.4300  -16.2088  -51.5204 C.ar      23 UNK        -0.0193 
     10 C10        -1.5503  -16.7841  -52.1237 C.ar      23 UNK        -0.1150 
     11 C11        -1.5989  -18.1567  -52.3656 C.ar      23 UNK        -0.0193 
     12 C12        -0.5140  -18.9558  -51.9971 C.ar      23 UNK        -0.1150 
     13 C13         0.6230  -18.3971  -51.4046 C.ar      23 UNK        -0.0193 
     14 C14         0.6653  -17.0142  -51.1877 C.ar      23 UNK        -0.1150 
     15 C15         1.7855  -19.3203  -51.0363 C.3       23 UNK        -0.0205 
     16 S16         2.7120  -18.9042  -49.5132 S.3       23 UNK        -0.2404 
     17 C17         1.4370  -18.5743  -48.2505 C.3       23 UNK        -0.0398 
     18 CA          0.6983  -19.8184  -47.6957 C.3       11 UNK         0.1400 
     19 N           0.3195  -19.6383  -46.2889 N.am      11 UNK        -0.5000 
     20 C          -0.1567  -20.6190  -45.5072 C.2       10 UNK         0.5000 
     21 O          -0.2706  -21.7864  -45.8759 O.2       10 UNK        -0.5000 
     22 CA         -0.6309  -20.2441  -44.0928 C.3       10 UNK         0.1400 
     23 CB          0.4332  -20.5748  -43.0443 C.3       10 UNK        -0.1800 
     24 N          -1.0451  -18.8503  -43.9442 N.am      10 UNK        -0.5000 
     25 C          -2.1412  -18.3311  -44.5165 C.2       9 UNK         0.5000 
     26 O          -2.8313  -18.9517  -45.3281 O.2       9 UNK        -0.5000 
     27 CA         -2.5450  -16.9032  -44.1067 C.3       9 UNK         0.1400 
     28 CB         -4.0490  -16.8064  -43.7974 C.3       9 UNK        -0.1800 
     29 N          -1.7850  -16.4382  -42.9418 N.am      9 UNK        -0.5000 
     30 C          -1.1777  -15.2508  -42.8573 C.2       8 UNK         0.5000 
     31 O          -1.2491  -14.3865  -43.7310 O.2       8 UNK        -0.5000 
     32 CA         -0.3486  -14.9532  -41.5923 C.3       8 UNK         0.1400 
     33 CB         -1.0667  -13.9109  -40.7207 C.3       8 UNK        -0.1800 
     34 N           0.0086  -16.0951  -40.7440 N.am      8 UNK        -0.5000 
     35 C           0.7989  -17.1331  -41.0569 C.2       7 UNK         0.5000 
     36 O           1.1590  -17.4126  -42.2025 O.2       7 UNK        -0.5000 
     37 CA          1.3021  -17.9515  -39.8532 C.3       7 UNK         0.1400 
     38 CB          2.3736  -18.9938  -40.2224 C.3       7 UNK        -0.1800 
     39 N           1.8695  -17.0184  -38.8809 N.am      7 UNK        -0.5000 
     40 C           1.5198  -16.9085  -37.5926 C.2       6 UNK         0.5000 
     41 O           0.6824  -17.6358  -37.0566 O.2       6 UNK        -0.5000 
     42 CA          2.1721  -15.7686  -36.7737 C.3       6 UNK         0.1400 
     43 CB          2.4783  -16.1835  -35.3189 C.3       6 UNK        -0.1800 
     44 N           3.3447  -15.1575  -37.4170 N.am      6 UNK        -0.5000 
     45 C           4.5325  -15.7317  -37.6515 C.2       5 UNK         0.5000 
     46 O           4.8449  -16.8658  -37.2822 O.2       5 UNK        -0.5000 
     47 CA          5.5327  -14.9028  -38.4810 C.3       5 UNK         0.1400 
     48 CB          6.6835  -14.3923  -37.6006 C.3       5 UNK        -0.1800 
     49 N           6.0801  -15.6908  -39.5862 N.am      5 UNK        -0.5000 
     50 C           5.3482  -16.2164  -40.5767 C.2       4 UNK         0.5000 
     51 O           4.1421  -15.9912  -40.7290 O.2       4 UNK        -0.5000 
     52 CA          6.0779  -17.1742  -41.5322 C.3       4 UNK         0.1400 
     53 CB          6.5468  -18.4407  -40.7851 C.3       4 UNK        -0.1800 
     54 N           5.1573  -17.5346  -42.6037 N.am      4 UNK        -0.5000 
     55 C           5.4494  -18.1817  -43.7379 C.2       3 UNK         0.5000 
     56 O           6.5875  -18.5258  -44.0584 O.2       3 UNK        -0.5000 
     57 CA          4.2671  -18.5061  -44.6705 C.3       3 UNK         0.1400 
     58 CB          3.7628  -19.9310  -44.4028 C.3       3 UNK        -0.1800 
     59 N           3.1698  -17.5480  -44.4985 N.am      3 UNK        -0.5000 
     60 C           3.0978  -16.3970  -45.1769 C.2       2 UNK         0.5000 
     61 O           3.8493  -16.0939  -46.1064 O.2       2 UNK        -0.5000 
     62 CA          2.0421  -15.3910  -44.7034 C.3       2 UNK         0.1400 
     63 CB          2.6923  -14.2909  -43.8505 C.3       2 UNK        -0.1800 
     64 N           1.3485  -14.7731  -45.8219 N.am      2 UNK        -0.5000 
     65 C           0.3910  -15.3553  -46.5500 C.2       1 UNK         0.5000 
     66 O          -0.0017  -16.5114  -46.3662 O.2       1 UNK        -0.5000 
     67 C          -0.5447  -20.1602  -48.5432 C.2       11 UNK         0.5000 
     68 O          -0.5231  -21.1193  -49.3149 O.2       11 UNK        -0.5000 
     69 N          -1.6263  -19.3944  -48.3346 N.am      12 UNK        -0.5000 
     70 CA         -2.9180  -19.6049  -48.9827 C.3       12 UNK         0.1400 
     71 CB         -3.8181  -18.3827  -48.7544 C.3       12 UNK        -0.1800 
     72 C          -3.6003  -20.8983  -48.5093 C.2       12 UNK         0.5000 
     73 O          -4.1586  -21.6194  -49.3362 O.2       12 UNK        -0.5000 
     74 N          -3.5105  -21.1932  -47.2037 N.am      13 UNK        -0.5000 
     75 CA         -4.0265  -22.4224  -46.5964 C.3       13 UNK         0.1400 
     76 CB         -3.8905  -22.3521  -45.0694 C.3       13 UNK        -0.1800 
     77 C          -3.3462  -23.6899  -47.1470 C.2       13 UNK         0.5000 
     78 O          -4.0430  -24.6502  -47.4769 O.2       13 UNK        -0.5000 
     79 N          -2.0119  -23.6502  -47.2894 N.am      14 UNK        -0.5000 
     80 CA         -1.1984  -24.7122  -47.8911 C.3       14 UNK         0.1400 
     81 CB          0.2911  -24.3878  -47.7038 C.3       14 UNK        -0.1800 
     82 C          -1.5140  -24.9512  -49.3800 C.2       14 UNK         0.5000 
     83 O          -1.4021  -26.0828  -49.8511 O.2       14 UNK        -0.5000 
     84 N          -1.9621  -23.8995  -50.0762 N.am      15 UNK        -0.5000 
     85 CA         -2.4702  -23.9275  -51.4478 C.3       15 UNK         0.1400 
     86 CB         -2.1630  -22.5735  -52.1054 C.3       15 UNK        -0.1800 
     87 C          -3.9732  -24.2867  -51.5151 C.2       15 UNK         0.5000 
     88 O          -4.6736  -23.8167  -52.4132 O.2       15 UNK        -0.5000 
     89 N          -4.4435  -25.1049  -50.5610 N.am      16 UNK        -0.5000 
     90 CA         -5.7998  -25.6431  -50.4187 C.3       16 UNK         0.1400 
     91 CB         -6.0894  -26.6705  -51.5317 C.3       16 UNK        -0.1800 
     92 C          -6.8779  -24.5471  -50.2972 C.2       16 UNK         0.5000 
     93 O          -7.9262  -24.6338  -50.9385 O.2       16 UNK        -0.5000 
     94 N          -6.5805  -23.5332  -49.4713 N.am      17 UNK        -0.5000 
     95 CA         -7.3733  -22.3213  -49.2356 C.3       17 UNK         0.1400 
     96 CB         -8.7233  -22.6554  -48.5668 C.3       17 UNK        -0.1800 
     97 C          -7.5095  -21.4709  -50.5153 C.2       17 UNK         0.5000 
     98 O          -8.6145  -21.0713  -50.8870 O.2       17 UNK        -0.5000 
     99 N          -6.3581  -21.2229  -51.1556 N.am      18 UNK        -0.5000 
    100 CA        -6.1651  -20.4715  -52.3977 C.3       18 UNK         0.1400 
    101 CB        -6.4642  -18.9739  -52.1763 C.3       18 UNK        -0.1800 
    102 C         -6.9348  -21.0721  -53.5907 C.2       18 UNK         0.5000 
    103 O         -7.6740  -20.3625  -54.2769 O.2       18 UNK        -0.5000 
    104 N         -6.7547  -22.3798  -53.8112 N.am      19 UNK        -0.5000 
    105 CA        -7.3299  -23.1049  -54.9411 C.3       19 UNK         0.1400 
    106 CB        -7.2157  -24.6135  -54.6824 C.3       19 UNK        -0.1800 
    107 C         -6.6294  -22.7327  -56.2598 C.2       19 UNK         0.5000 
    108 O         -5.4082  -22.5529  -56.2749 O.2       19 UNK        -0.5000 
    109 N         -7.4151  -22.6589  -57.3438 N.am      20 UNK        -0.5000 
    110 CA        -6.9960  -22.3586  -58.7170 C.3       20 UNK         0.1400 
    111 CB        -6.2619  -23.5783  -59.3207 C.3       20 UNK        -0.1800 
    112 C         -6.2055  -21.0334  -58.8047 C.2       20 UNK         0.5000 
    113 O         -6.7510  -19.9853  -58.4554 O.2       20 UNK        -0.5000 
    114 N         -4.9442  -21.1072  -59.2446 N.am      21 UNK        -0.5000 
    115 CA        -3.9965  -19.9948  -59.3211 C.3       21 UNK         0.1400 
    116 CB        -3.4251  -19.9362  -60.7498 C.3       21 UNK        -0.1800 
    117 C         -2.8881  -20.1282  -58.2544 C.2       21 UNK         0.5000 
    118 O         -1.7726  -19.6559  -58.4781 O.2       21 UNK        -0.5000 
    119 N         -3.2027  -20.7823  -57.1263 N.am      22 UNK        -0.5000 
    120 CA        -2.3057  -21.0651  -55.9889 C.3       22 UNK         0.1400 
    121 C         -1.2467  -22.1775  -56.2619 C.2       22 UNK         0.5000 
    122 N         -1.3586  -22.9546  -57.3323 N.am      22 UNK        -0.7600 
    123 O         -0.3219  -22.3657  -55.4765 O.2       22 UNK        -0.5000 
    124 C124       -1.6745  -19.7954  -55.3447 C.3       23 UNK        -0.0398 
    125 S125       -2.9132  -18.5743  -54.7869 S.3       23 UNK        -0.2404 
    126 C126       -2.8452  -18.7732  -52.9798 C.3       23 UNK        -0.0205 
    127 H127       -2.1500  -11.3520  -45.9759 H         1 UNK         0.0600 
    128 H128       -0.7662  -10.9045  -44.9751 H         1 UNK         0.0600 
    129 H129       -0.9908  -10.1538  -46.5597 H         1 UNK         0.0600 
    130 H130       -1.8730  -13.3593  -46.8828 H         1 UNK         0.3000 
    131 H131        0.5758  -14.1343  -48.2759 H         1 UNK         0.0600 
    132 H132       -0.8227  -16.1905  -48.8657 H         1 UNK         0.0800 
    133 H133       -2.1409  -15.4961  -47.9757 H         1 UNK         0.0800 
    134 H134        0.5455  -14.4078  -50.8138 H         1 UNK         0.0800 
    135 H135       -0.5828  -14.1601  -52.1235 H         1 UNK         0.0800 
    136 H136       -2.3963  -16.1635  -52.3848 H         1 UNK         0.1150 
    137 H137       -0.5563  -20.0222  -52.1643 H         1 UNK         0.1150 
    138 H138        1.5395  -16.5687  -50.7346 H         1 UNK         0.1150 
    139 H139        1.4330  -20.3481  -50.9409 H         1 UNK         0.0800 
    140 H140        2.4888  -19.3249  -51.8697 H         1 UNK         0.0800 
    141 H141        0.7442  -17.8162  -48.6083 H         1 UNK         0.0800 
    142 H142        1.9800  -18.0919  -47.4372 H         1 UNK         0.0800 
    143 H143        1.3775  -20.6728  -47.7376 H         1 UNK         0.0600 
    144 H144        0.3263  -18.6894  -45.9350 H         1 UNK         0.3000 
    145 H145       -1.4993  -20.8653  -43.8731 H         1 UNK         0.0600 
    146 H146        0.0205  -20.5056  -42.0380 H         1 UNK         0.0600 
    147 H147        0.8184  -21.5876  -43.1701 H         1 UNK         0.0600 
    148 H148        1.2725  -19.8876  -43.1118 H         1 UNK         0.0600 
    149 H149       -0.4691  -18.2639  -43.3533 H         1 UNK         0.3000 
    150 H150       -2.3358  -16.2749  -44.9744 H         1 UNK         0.0600 
    151 H151       -4.6494  -17.1034  -44.6583 H         1 UNK         0.0600 
    152 H152       -4.3325  -15.7847  -43.5441 H         1 UNK         0.0600 
    153 H153       -4.3285  -17.4493  -42.9621 H         1 UNK         0.0600 
    154 H154       -1.7047  -17.0788  -42.1653 H         1 UNK         0.3000 
    155 H155        0.5881  -14.5106  -41.9306 H         1 UNK         0.0600 
    156 H156       -1.9986  -14.3039  -40.3123 H         1 UNK         0.0600 
    157 H157       -1.3121  -13.0171  -41.2962 H         1 UNK         0.0600 
    158 H158       -0.4405  -13.5931  -39.8868 H         1 UNK         0.0600 
    159 H159       -0.2382  -15.9940  -39.7704 H         1 UNK         0.3000 
    160 H160        0.4402  -18.4748  -39.4350 H         1 UNK         0.0600 
    161 H161        2.7797  -19.4710  -39.3305 H         1 UNK         0.0600 
    162 H162        3.2053  -18.5478  -40.7656 H         1 UNK         0.0600 
    163 H163        1.9598  -19.7838  -40.8450 H         1 UNK         0.0600 
    164 H164        2.5636  -16.3816  -39.2558 H         1 UNK         0.3000 
    165 H165        1.4207  -14.9790  -36.7288 H         1 UNK         0.0600 
    166 H166        2.9379  -15.3661  -34.7633 H         1 UNK         0.0600 
    167 H167        1.5647  -16.4584  -34.7907 H         1 UNK         0.0600 
    168 H168        3.1488  -17.0418  -35.2716 H         1 UNK         0.0600 
    169 H169        3.1939  -14.2230  -37.7720 H         1 UNK         0.3000 
    170 H170        5.0172  -14.0400  -38.9084 H         1 UNK         0.0600 
    171 H171        6.3045  -13.7846  -36.7778 H         1 UNK         0.0600 
    172 H172        7.2534  -15.2145  -37.1657 H         1 UNK         0.0600 
    173 H173        7.3728  -13.7706  -38.1724 H         1 UNK         0.0600 
    174 H174        7.0545  -15.9439  -39.5124 H         1 UNK         0.3000 
    175 H175        6.9356  -16.6514  -41.9594 H         1 UNK         0.0600 
    176 H176        5.7062  -18.9803  -40.3470 H         1 UNK         0.0600 
    177 H177        7.0739  -19.1272  -41.4473 H         1 UNK         0.0600 
    178 H178        7.2343  -18.1941  -39.9755 H         1 UNK         0.0600 
    179 H179        4.2074  -17.2312  -42.4287 H         1 UNK         0.3000 
    180 H180        4.6294  -18.4723  -45.7004 H         1 UNK         0.0600 
    181 H181        3.5019  -20.0752  -43.3542 H         1 UNK         0.0600 
    182 H182        4.5341  -20.6632  -44.6444 H         1 UNK         0.0600 
    183 H183        2.8925  -20.1672  -45.0140 H         1 UNK         0.0600 
    184 H184        2.5190  -17.7112  -43.7368 H         1 UNK         0.3000 
    185 H185        1.2955  -15.9071  -44.1067 H         1 UNK         0.0600 
    186 H186        3.1166  -14.7077  -42.9365 H         1 UNK         0.0600 
    187 H187        3.4970  -13.7876  -44.3880 H         1 UNK         0.0600 
    188 H188        1.9663  -13.5319  -43.5592 H         1 UNK         0.0600 
    189 H189        1.5911  -13.8130  -46.0410 H         1 UNK         0.3000 
    190 H190       -1.5834  -18.6715  -47.6307 H         1 UNK         0.3000 
    191 H191       -2.7471  -19.7008  -50.0562 H         1 UNK         0.0600 
    192 H192       -3.9649  -18.1789  -47.6934 H         1 UNK         0.0600 
    193 H193       -4.8029  -18.5347  -49.1968 H         1 UNK         0.0600 
    194 H194       -3.3903  -17.4910  -49.2132 H         1 UNK         0.0600 
    195 H195       -3.0829  -20.5149  -46.5812 H         1 UNK         0.3000 
    196 H196       -5.0901  -22.4818  -46.8347 H         1 UNK         0.0600 
    197 H197       -4.4257  -23.1765  -44.5969 H         1 UNK         0.0600 
    198 H198       -4.3031  -21.4243  -44.6725 H         1 UNK         0.0600 
    199 H199       -2.8499  -22.4237  -44.7570 H         1 UNK         0.0600 
    200 H200       -1.5035  -22.8372  -46.9528 H         1 UNK         0.3000 
    201 H201       -1.4149  -25.6397  -47.3573 H         1 UNK         0.0600 
    202 H202        0.5494  -24.3205  -46.6470 H         1 UNK         0.0600 
    203 H203        0.5580  -23.4410  -48.1749 H         1 UNK         0.0600 
    204 H204        0.9202  -25.1633  -48.1425 H         1 UNK         0.0600 
    205 H205       -2.0157  -23.0063  -49.6037 H         1 UNK         0.3000 
    206 H206       -1.9381  -24.6966  -52.0110 H         1 UNK         0.0600 
    207 H207       -2.4868  -22.5539  -53.1457 H         1 UNK         0.0600 
    208 H208       -2.6648  -21.7621  -51.5810 H         1 UNK         0.0600 
    209 H209       -1.0925  -22.3685  -52.0964 H         1 UNK         0.0600 
    210 H210       -3.7945  -25.3910  -49.8408 H         1 UNK         0.3000 
    211 H211       -5.8148  -26.1799  -49.4691 H         1 UNK         0.0600 
    212 H212       -6.0743  -26.2118  -52.5192 H         1 UNK         0.0600 
    213 H213       -7.0683  -27.1322  -51.3977 H         1 UNK         0.0600 
    214 H214       -5.3510  -27.4721  -51.5265 H         1 UNK         0.0600 
    215 H215       -5.6649  -23.5446  -49.0407 H         1 UNK         0.3000 
    216 H216       -6.8065  -21.7150  -48.5280 H         1 UNK         0.0600 
    217 H217       -9.2499  -21.7443  -48.2805 H         1 UNK         0.0600 
    218 H218       -8.5789  -23.2445  -47.6612 H         1 UNK         0.0600 
    219 H219       -9.3822  -23.2157  -49.2305 H         1 UNK         0.0600 
    220 H220       -5.5123  -21.5947  -50.7326 H         1 UNK         0.3000 
    221 H221       -5.1092  -20.5693  -52.6466 H         1 UNK         0.0600 
    222 H222       -7.5172  -18.7988  -51.9540 H         1 UNK         0.0600 
    223 H223       -5.8782  -18.5706  -51.3516 H         1 UNK         0.0600 
    224 H224       -6.2177  -18.3920  -53.0653 H         1 UNK         0.0600 
    225 H225       -6.0892  -22.8927  -53.2365 H         1 UNK         0.3000 
    226 H226       -8.3887  -22.8471  -55.0125 H         1 UNK         0.0600 
    227 H227       -7.6608  -25.1861  -55.4969 H         1 UNK         0.0600 
    228 H228       -6.1742  -24.9250  -54.5920 H         1 UNK         0.0600 
    229 H229       -7.7338  -24.8945  -53.7655 H         1 UNK         0.0600 
    230 H230       -8.4087  -22.7944  -57.2205 H         1 UNK         0.3000 
    231 H231       -7.9083  -22.2047  -59.2950 H         1 UNK         0.0600 
    232 H232       -6.8972  -24.4637  -59.2930 H         1 UNK         0.0600 
    233 H233       -5.3453  -23.8186  -58.7806 H         1 UNK         0.0600 
    234 H234       -6.0030  -23.4077  -60.3666 H         1 UNK         0.0600 
    235 H235       -4.5802  -22.0175  -59.4873 H         1 UNK         0.3000 
    236 H236       -4.5035  -19.0481  -59.1249 H         1 UNK         0.0600 
    237 H237       -2.7674  -19.0754  -60.8772 H         1 UNK         0.0600 
    238 H238       -2.8488  -20.8306  -60.9895 H         1 UNK         0.0600 
    239 H239       -4.2217  -19.8429  -61.4882 H         1 UNK         0.0600 
    240 H240       -4.1308  -21.1834  -57.0354 H         1 UNK         0.3000 
    241 H241       -2.9585  -21.5043  -55.2346 H         1 UNK         0.0600 
    242 H242       -2.1209  -22.8300  -57.9773 H         1 UNK         0.3800 
    243 H243       -0.6750  -23.6774  -57.4937 H         1 UNK         0.3800 
    244 H244       -1.0540  -20.0759  -54.4945 H         1 UNK         0.0800 
    245 H245       -0.9974  -19.3022  -56.0422 H         1 UNK         0.0800 
    246 H246       -3.7232  -18.2985  -52.5426 H         1 UNK         0.0800 
    247 H247       -2.9112  -19.8304  -52.7322 H         1 UNK         0.0800 
@<TRIPOS>BOND
     1    1    2 1    
     2    1  127 1    
     3    1  128 1    
     4    1  129 1    
     5    2    3 2    
     6    2    4 am   BACKBONE|DICT|INTERRES
     7    4    5 1    
     8    4  130 1    
     9    5    6 1    
    10    5   65 1    
    11    5  131 1    
    12    6    7 1    
    13    6  132 1    
    14    6  133 1    
    15    7    8 1    
    16    8    9 1    
    17    8  134 1    
    18    8  135 1    
    19    9   10 ar   
    20    9   14 ar   
    21   10   11 ar   
    22   10  136 1    
    23   11   12 ar   
    24   11  126 1    
    25   12   13 ar   
    26   12  137 1    
    27   13   14 ar   
    28   13   15 1    
    29   14  138 1    
    30   15   16 1    
    31   15  139 1    
    32   15  140 1    
    33   16   17 1    
    34   17   18 1    
    35   17  141 1    
    36   17  142 1    
    37   18   19 1    
    38   18   67 1    
    39   18  143 1    
    40   19   20 am   BACKBONE|DICT|INTERRES
    41   19  144 1    
    42   20   21 2    
    43   20   22 1    
    44   22   23 1    
    45   22   24 1    
    46   22  145 1    
    47   23  146 1    
    48   23  147 1    
    49   23  148 1    
    50   24   25 am   BACKBONE|DICT|INTERRES
    51   24  149 1    
    52   25   26 2    
    53   25   27 1    
    54   27   28 1    
    55   27   29 1    
    56   27  150 1    
    57   28  151 1    
    58   28  152 1    
    59   28  153 1    
    60   29   30 am   BACKBONE|DICT|INTERRES
    61   29  154 1    
    62   30   31 2    
    63   30   32 1    
    64   32   33 1    
    65   32   34 1    
    66   32  155 1    
    67   33  156 1    
    68   33  157 1    
    69   33  158 1    
    70   34   35 am   BACKBONE|DICT|INTERRES
    71   34  159 1    
    72   35   36 2    
    73   35   37 1    
    74   37   38 1    
    75   37   39 1    
    76   37  160 1    
    77   38  161 1    
    78   38  162 1    
    79   38  163 1    
    80   39   40 am   BACKBONE|DICT|INTERRES
    81   39  164 1    
    82   40   41 2    
    83   40   42 1    
    84   42   43 1    
    85   42   44 1    
    86   42  165 1    
    87   43  166 1    
    88   43  167 1    
    89   43  168 1    
    90   44   45 am   BACKBONE|DICT|INTERRES
    91   44  169 1    
    92   45   46 2    
    93   45   47 1    
    94   47   48 1    
    95   47   49 1    
    96   47  170 1    
    97   48  171 1    
    98   48  172 1    
    99   48  173 1    
   100   49   50 am   BACKBONE|DICT|INTERRES
   101   49  174 1    
   102   50   51 2    
   103   50   52 1    
   104   52   53 1    
   105   52   54 1    
   106   52  175 1    
   107   53  176 1    
   108   53  177 1    
   109   53  178 1    
   110   54   55 am   BACKBONE|DICT|INTERRES
   111   54  179 1    
   112   55   56 2    
   113   55   57 1    
   114   57   58 1    
   115   57   59 1    
   116   57  180 1    
   117   58  181 1    
   118   58  182 1    
   119   58  183 1    
   120   59   60 am   BACKBONE|DICT|INTERRES
   121   59  184 1    
   122   60   61 2    
   123   60   62 1    
   124   62   63 1    
   125   62   64 1    
   126   62  185 1    
   127   63  186 1    
   128   63  187 1    
   129   63  188 1    
   130   64   65 am   BACKBONE|DICT|INTERRES
   131   64  189 1    
   132   65   66 2    
   133   67   68 2    
   134   67   69 am   BACKBONE|DICT|INTERRES
   135   69   70 1    
   136   69  190 1    
   137   70   71 1    
   138   70   72 1    
   139   70  191 1    
   140   71  192 1    
   141   71  193 1    
   142   71  194 1    
   143   72   73 2    
   144   72   74 am   BACKBONE|DICT|INTERRES
   145   74   75 1    
   146   74  195 1    
   147   75   76 1    
   148   75   77 1    
   149   75  196 1    
   150   76  197 1    
   151   76  198 1    
   152   76  199 1    
   153   77   78 2    
   154   77   79 am   BACKBONE|DICT|INTERRES
   155   79   80 1    
   156   79  200 1    
   157   80   81 1    
   158   80   82 1    
   159   80  201 1    
   160   81  202 1    
   161   81  203 1    
   162   81  204 1    
   163   82   83 2    
   164   82   84 am   BACKBONE|DICT|INTERRES
   165   84   85 1    
   166   84  205 1    
   167   85   86 1    
   168   85   87 1    
   169   85  206 1    
   170   86  207 1    
   171   86  208 1    
   172   86  209 1    
   173   87   88 2    
   174   87   89 am   BACKBONE|DICT|INTERRES
   175   89   90 1    
   176   89  210 1    
   177   90   91 1    
   178   90   92 1    
   179   90  211 1    
   180   91  212 1    
   181   91  213 1    
   182   91  214 1    
   183   92   93 2    
   184   92   94 am   BACKBONE|DICT|INTERRES
   185   94   95 1    
   186   94  215 1    
   187   95   96 1    
   188   95   97 1    
   189   95  216 1    
   190   96  217 1    
   191   96  218 1    
   192   96  219 1    
   193   97   98 2    
   194   97   99 am   BACKBONE|DICT|INTERRES
   195   99  100 1    
   196   99  220 1    
   197  100  101 1    
   198  100  102 1    
   199  100  221 1    
   200  101  222 1    
   201  101  223 1    
   202  101  224 1    
   203  102  103 2    
   204  102  104 am   BACKBONE|DICT|INTERRES
   205  104  105 1    
   206  104  225 1    
   207  105  106 1    
   208  105  107 1    
   209  105  226 1    
   210  106  227 1    
   211  106  228 1    
   212  106  229 1    
   213  107  108 2    
   214  107  109 am   BACKBONE|DICT|INTERRES
   215  109  110 1    
   216  109  230 1    
   217  110  111 1    
   218  110  112 1    
   219  110  231 1    
   220  111  232 1    
   221  111  233 1    
   222  111  234 1    
   223  112  113 2    
   224  112  114 am   BACKBONE|DICT|INTERRES
   225  114  115 1    
   226  114  235 1    
   227  115  116 1    
   228  115  117 1    
   229  115  236 1    
   230  116  237 1    
   231  116  238 1    
   232  116  239 1    
   233  117  118 2    
   234  117  119 am   BACKBONE|DICT|INTERRES
   235  119  120 1    
   236  119  240 1    
   237  120  121 1    
   238  120  124 1    
   239  120  241 1    
   240  121  122 am   BACKBONE|DICT|INTERRES
   241  121  123 2    
   242  122  242 1    
   243  122  243 1    
   244  124  125 1    
   245  124  244 1    
   246  124  245 1    
   247  125  126 1    
   248  126  246 1    
   249  126  247 1    
@<TRIPOS>SUBSTRUCTURE
     1 UNK         1 GROUP             0       ****    0 ROOT    
