@<TRIPOS>MOLECULE
3R540
247   249    1
SMALL
USER_CHARGES


@<TRIPOS>ATOM
      1 CA         -2.9116  -14.2434  -50.8181 C.3       0 UNK        -0.1800 
      2 C          -2.0991  -13.4162  -49.8321 C.2       0 UNK         0.5000 
      3 O          -2.0403  -12.1931  -49.9568 O.2       0 UNK        -0.5000 
      4 N          -1.4806  -14.0804  -48.8477 N.am      1 UNK        -0.5000 
      5 CA         -0.6318  -13.4605  -47.8181 C.3       1 UNK         0.1400 
      6 C6          0.4148  -14.4488  -47.2421 C.3       23 UNK        -0.0398 
      7 S7          1.4048  -15.3046  -48.5169 S.3       23 UNK        -0.2404 
      8 C8          0.6791  -16.9661  -48.3949 C.3       23 UNK        -0.0205 
      9 C9          1.3861  -17.9800  -49.2779 C.ar      23 UNK        -0.0193 
     10 C10         0.7734  -18.4504  -50.4417 C.ar      23 UNK        -0.1150 
     11 C11         1.3970  -19.4188  -51.2327 C.ar      23 UNK        -0.0193 
     12 C12         2.6470  -19.9145  -50.8525 C.ar      23 UNK        -0.1150 
     13 C13         3.2671  -19.4571  -49.6865 C.ar      23 UNK        -0.0193 
     14 C14         2.6337  -18.4857  -48.9056 C.ar      23 UNK        -0.1150 
     15 C15         4.6195  -20.0166  -49.2724 C.3       23 UNK        -0.0205 
     16 S16         4.4857  -21.6975  -48.5829 S.3       23 UNK        -0.2404 
     17 C17         3.6007  -21.3876  -47.0172 C.3       23 UNK        -0.0398 
     18 CA          2.4721  -22.4041  -46.7225 C.3       11 UNK         0.1400 
     19 N           2.0381  -22.3134  -45.3261 N.am      11 UNK        -0.5000 
     20 C           1.3079  -23.2330  -44.6809 C.2       10 UNK         0.5000 
     21 O           0.9522  -24.2999  -45.1805 O.2       10 UNK        -0.5000 
     22 CA          0.8886  -22.8995  -43.2359 C.3       10 UNK         0.1400 
     23 CB          1.9924  -23.2997  -42.2457 C.3       10 UNK        -0.1800 
     24 N           0.5527  -21.4866  -43.0482 N.am      10 UNK        -0.5000 
     25 C          -0.4968  -20.8748  -43.6149 C.2       9 UNK         0.5000 
     26 O          -1.3231  -21.4550  -44.3182 O.2       9 UNK        -0.5000 
     27 CA         -0.6134  -19.3514  -43.4103 C.3       9 UNK         0.1400 
     28 CB         -1.2362  -19.0222  -42.0456 C.3       9 UNK        -0.1800 
     29 N           0.6711  -18.6618  -43.5425 N.am      9 UNK        -0.5000 
     30 C           1.4213  -18.6625  -44.6535 C.2       8 UNK         0.5000 
     31 O           1.0923  -19.2175  -45.7004 O.2       8 UNK        -0.5000 
     32 CA          2.7982  -17.9861  -44.5594 C.3       8 UNK         0.1400 
     33 CB          2.6786  -16.4587  -44.6726 C.3       8 UNK        -0.1800 
     34 N           3.4897  -18.3461  -43.3219 N.am      8 UNK        -0.5000 
     35 C           3.9571  -19.5740  -43.0526 C.2       7 UNK         0.5000 
     36 O           3.8871  -20.5181  -43.8380 O.2       7 UNK        -0.5000 
     37 CA          4.5616  -19.7952  -41.6549 C.3       7 UNK         0.1400 
     38 CB          6.0257  -19.3328  -41.6178 C.3       7 UNK        -0.1800 
     39 N           3.8076  -19.1075  -40.6068 N.am      7 UNK        -0.5000 
     40 C           2.5494  -19.4086  -40.2546 C.2       6 UNK         0.5000 
     41 O           1.9042  -20.3342  -40.7448 O.2       6 UNK        -0.5000 
     42 CA          1.8847  -18.4811  -39.2212 C.3       6 UNK         0.1400 
     43 CB          2.2038  -18.9449  -37.7924 C.3       6 UNK        -0.1800 
     44 N           2.2812  -17.0788  -39.3808 N.am      6 UNK        -0.5000 
     45 C           2.0043  -16.3361  -40.4596 C.2       5 UNK         0.5000 
     46 O           1.3797  -16.7537  -41.4399 O.2       5 UNK        -0.5000 
     47 CA          2.5595  -14.9079  -40.4689 C.3       5 UNK         0.1400 
     48 CB          3.9856  -14.8781  -41.0432 C.3       5 UNK        -0.1800 
     49 N           1.6826  -14.0932  -41.2967 N.am      5 UNK        -0.5000 
     50 C           1.3586  -12.8164  -41.0718 C.2       4 UNK         0.5000 
     51 O           1.8714  -12.1268  -40.1891 O.2       4 UNK        -0.5000 
     52 CA          0.2666  -12.2028  -41.9730 C.3       4 UNK         0.1400 
     53 CB          0.9017  -11.3163  -43.0551 C.3       4 UNK        -0.1800 
     54 N          -0.6118  -13.1844  -42.6198 N.am      4 UNK        -0.5000 
     55 C          -1.4518  -14.0154  -41.9821 C.2       3 UNK         0.5000 
     56 O          -1.5604  -14.0627  -40.7557 O.2       3 UNK        -0.5000 
     57 CA         -2.3072  -14.9425  -42.8752 C.3       3 UNK         0.1400 
     58 CB         -3.4922  -15.5838  -42.1239 C.3       3 UNK        -0.1800 
     59 N          -2.7664  -14.2919  -44.1088 N.am      3 UNK        -0.5000 
     60 C          -3.4973  -13.1697  -44.2165 C.2       2 UNK         0.5000 
     61 O          -3.9484  -12.5504  -43.2516 O.2       2 UNK        -0.5000 
     62 CA         -3.7644  -12.6554  -45.6499 C.3       2 UNK         0.1400 
     63 CB         -3.9255  -11.1217  -45.7064 C.3       2 UNK        -0.1800 
     64 N          -2.7762  -13.1059  -46.6415 N.am      2 UNK        -0.5000 
     65 C          -1.4575  -12.8475  -46.6632 C.2       1 UNK         0.5000 
     66 O          -0.8778  -12.2000  -45.7914 O.2       1 UNK        -0.5000 
     67 C           1.2804  -22.2942  -47.7027 C.2       11 UNK         0.5000 
     68 O           1.2132  -23.0689  -48.6585 O.2       11 UNK        -0.5000 
     69 N           0.3363  -21.3818  -47.4227 N.am      12 UNK        -0.5000 
     70 CA         -0.9344  -21.2579  -48.1435 C.3       12 UNK         0.1400 
     71 CB         -1.6514  -19.9720  -47.7085 C.3       12 UNK        -0.1800 
     72 C          -1.8539  -22.4764  -47.9335 C.2       12 UNK         0.5000 
     73 O          -2.5017  -22.9180  -48.8844 O.2       12 UNK        -0.5000 
     74 N          -1.8627  -22.9938  -46.6961 N.am      13 UNK        -0.5000 
     75 CA         -2.5662  -24.1783  -46.2010 C.3       13 UNK         0.1400 
     76 CB         -2.1143  -25.4351  -46.9756 C.3       13 UNK        -0.1800 
     77 C          -4.1017  -24.0379  -46.1957 C.2       13 UNK         0.5000 
     78 O          -4.6589  -23.0678  -46.7145 O.2       13 UNK        -0.5000 
     79 N          -4.7743  -25.0472  -45.6244 N.am      14 UNK        -0.5000 
     80 CA         -6.2370  -25.1717  -45.5935 C.3       14 UNK         0.1400 
     81 CB         -6.6195  -26.3418  -44.6742 C.3       14 UNK        -0.1800 
     82 C          -6.8668  -25.3527  -46.9909 C.2       14 UNK         0.5000 
     83 O          -8.0474  -25.0532  -47.1711 O.2       14 UNK        -0.5000 
     84 N          -6.0588  -25.8131  -47.9565 N.am      15 UNK        -0.5000 
     85 CA         -6.3977  -25.9072  -49.3757 C.3       15 UNK         0.1400 
     86 CB         -5.3402  -26.7775  -50.0736 C.3       15 UNK        -0.1800 
     87 C          -6.5054  -24.5366  -50.0768 C.2       15 UNK         0.5000 
     88 O          -7.1100  -24.4712  -51.1474 O.2       15 UNK        -0.5000 
     89 N          -5.9216  -23.4859  -49.4740 N.am      16 UNK        -0.5000 
     90 CA         -5.8453  -22.1061  -49.9608 C.3       16 UNK         0.1400 
     91 CB         -7.2402  -21.4470  -49.9685 C.3       16 UNK        -0.1800 
     92 C          -5.1337  -22.0248  -51.3237 C.2       16 UNK         0.5000 
     93 O          -5.7440  -21.6513  -52.3274 O.2       16 UNK        -0.5000 
     94 N          -3.8456  -22.3955  -51.3321 N.am      17 UNK        -0.5000 
     95 CA         -2.9949  -22.5075  -52.5211 C.3       17 UNK         0.1400 
     96 CB         -1.5857  -22.9474  -52.0982 C.3       17 UNK        -0.1800 
     97 C          -2.9248  -21.2342  -53.3857 C.2       17 UNK         0.5000 
     98 O          -2.8114  -21.3382  -54.6084 O.2       17 UNK        -0.5000 
     99 N          -3.0246  -20.0597  -52.7466 N.am      18 UNK        -0.5000 
    100 CA        -3.0729  -18.7559  -53.4085 C.3       18 UNK         0.1400 
    101 CB        -2.9966  -17.6378  -52.3600 C.3       18 UNK        -0.1800 
    102 C         -4.3257  -18.5843  -54.2833 C.2       18 UNK         0.5000 
    103 O         -4.2141  -18.1377  -55.4250 O.2       18 UNK        -0.5000 
    104 N         -5.4859  -18.9771  -53.7424 N.am      19 UNK        -0.5000 
    105 CA        -6.7659  -18.9671  -54.4481 C.3       19 UNK         0.1400 
    106 CB        -7.9105  -19.0972  -53.4311 C.3       19 UNK        -0.1800 
    107 C         -6.8456  -20.0792  -55.5077 C.2       19 UNK         0.5000 
    108 O         -7.4692  -19.8774  -56.5504 O.2       19 UNK        -0.5000 
    109 N         -6.2057  -21.2231  -55.2250 N.am      20 UNK        -0.5000 
    110 CA        -6.1224  -22.3706  -56.1238 C.3       20 UNK         0.1400 
    111 CB        -5.5573  -23.5844  -55.3711 C.3       20 UNK        -0.1800 
    112 C         -5.2983  -22.0795  -57.3914 C.2       20 UNK         0.5000 
    113 O         -5.7553  -22.4194  -58.4842 O.2       20 UNK        -0.5000 
    114 N         -4.1166  -21.4601  -57.2382 N.am      21 UNK        -0.5000 
    115 CA        -3.2191  -21.1642  -58.3590 C.3       21 UNK         0.1400 
    116 CB        -2.5363  -22.4578  -58.8499 C.3       21 UNK        -0.1800 
    117 C         -2.1468  -20.1006  -58.0669 C.2       21 UNK         0.5000 
    118 O         -1.7605  -19.3928  -58.9985 O.2       21 UNK        -0.5000 
    119 N         -1.6274  -20.0383  -56.8318 N.am      22 UNK        -0.5000 
    120 CA        -0.4083  -19.2714  -56.4984 C.3       22 UNK         0.1400 
    121 C         -0.5531  -17.7169  -56.5260 C.2       22 UNK         0.5000 
    122 N         -1.7492  -17.1497  -56.4409 N.am      22 UNK        -0.7600 
    123 O          0.4401  -17.0096  -56.6746 O.2       22 UNK        -0.5000 
    124 C124        0.3414  -19.8878  -55.2668 C.3       23 UNK        -0.0398 
    125 S125        0.8586  -18.8066  -53.8802 S.3       23 UNK        -0.2404 
    126 C126        0.7079  -19.9528  -52.4772 C.3       23 UNK        -0.0205 
    127 H127       -2.9667  -15.2897  -50.5176 H         1 UNK         0.0600 
    128 H128       -2.4600  -14.1960  -51.8090 H         1 UNK         0.0600 
    129 H129       -3.9285  -13.8570  -50.8863 H         1 UNK         0.0600 
    130 H130       -1.5558  -15.0856  -48.8084 H         1 UNK         0.3000 
    131 H131       -0.0820  -12.6376  -48.2802 H         1 UNK         0.0600 
    132 H132       -0.0676  -15.1886  -46.6009 H         1 UNK         0.0800 
    133 H133        1.1154  -13.9139  -46.5978 H         1 UNK         0.0800 
    134 H134        0.7263  -17.3040  -47.3611 H         1 UNK         0.0800 
    135 H135       -0.3790  -16.9121  -48.6524 H         1 UNK         0.0800 
    136 H136       -0.1939  -18.0695  -50.7274 H         1 UNK         0.1150 
    137 H137        3.1336  -20.6692  -51.4544 H         1 UNK         0.1150 
    138 H138        3.1029  -18.1274  -48.0004 H         1 UNK         0.1150 
    139 H139        5.2776  -20.0439  -50.1421 H         1 UNK         0.0800 
    140 H140        5.1041  -19.3636  -48.5447 H         1 UNK         0.0800 
    141 H141        3.2139  -20.3703  -46.9835 H         1 UNK         0.0800 
    142 H142        4.3536  -21.4423  -46.2306 H         1 UNK         0.0800 
    143 H143        2.8953  -23.4028  -46.8506 H         1 UNK         0.0600 
    144 H144        2.3374  -21.4898  -44.8163 H         1 UNK         0.3000 
    145 H145       -0.0019  -23.4884  -43.0064 H         1 UNK         0.0600 
    146 H146        1.6717  -23.1455  -41.2153 H         1 UNK         0.0600 
    147 H147        2.2502  -24.3542  -42.3520 H         1 UNK         0.0600 
    148 H148        2.9029  -22.7206  -42.4023 H         1 UNK         0.0600 
    149 H149        1.1545  -20.9542  -42.4263 H         1 UNK         0.3000 
    150 H150       -1.2751  -18.9630  -44.1873 H         1 UNK         0.0600 
    151 H151       -2.2306  -19.4607  -41.9556 H         1 UNK         0.0600 
    152 H152       -1.3396  -17.9463  -41.9066 H         1 UNK         0.0600 
    153 H153       -0.6326  -19.4068  -41.2238 H         1 UNK         0.0600 
    154 H154        1.0033  -18.1517  -42.7291 H         1 UNK         0.3000 
    155 H155        3.4017  -18.3383  -45.3986 H         1 UNK         0.0600 
    156 H156        2.0556  -16.0345  -43.8858 H         1 UNK         0.0600 
    157 H157        2.2351  -16.1777  -45.6273 H         1 UNK         0.0600 
    158 H158        3.6571  -15.9815  -44.6202 H         1 UNK         0.0600 
    159 H159        3.5394  -17.6396  -42.6043 H         1 UNK         0.3000 
    160 H160        4.5349  -20.8667  -41.4455 H         1 UNK         0.0600 
    161 H161        6.1161  -18.2602  -41.7942 H         1 UNK         0.0600 
    162 H162        6.6146  -19.8422  -42.3818 H         1 UNK         0.0600 
    163 H163        6.4846  -19.5547  -40.6542 H         1 UNK         0.0600 
    164 H164        4.2637  -18.3333  -40.1477 H         1 UNK         0.3000 
    165 H165        0.8043  -18.5436  -39.3669 H         1 UNK         0.0600 
    166 H166        1.6728  -18.3430  -37.0547 H         1 UNK         0.0600 
    167 H167        1.9006  -19.9820  -37.6425 H         1 UNK         0.0600 
    168 H168        3.2706  -18.8799  -37.5749 H         1 UNK         0.0600 
    169 H169        2.8013  -16.6678  -38.6188 H         1 UNK         0.3000 
    170 H170        2.5654  -14.5308  -39.4439 H         1 UNK         0.0600 
    171 H171        4.6626  -15.4929  -40.4490 H         1 UNK         0.0600 
    172 H172        4.0157  -15.2485  -42.0685 H         1 UNK         0.0600 
    173 H173        4.3860  -13.8642  -41.0445 H         1 UNK         0.0600 
    174 H174        1.1734  -14.6113  -42.0000 H         1 UNK         0.3000 
    175 H175       -0.3564  -11.5705  -41.3373 H         1 UNK         0.0600 
    176 H176        1.4929  -11.9032  -43.7592 H         1 UNK         0.0600 
    177 H177        0.1398  -10.7805  -43.6216 H         1 UNK         0.0600 
    178 H178        1.5614  -10.5679  -42.6141 H         1 UNK         0.0600 
    179 H179       -0.6245  -13.1673  -43.6312 H         1 UNK         0.3000 
    180 H180       -1.6426  -15.7503  -43.1854 H         1 UNK         0.0600 
    181 H181       -4.0513  -16.2577  -42.7728 H         1 UNK         0.0600 
    182 H182       -4.1846  -14.8324  -41.7434 H         1 UNK         0.0600 
    183 H183       -3.1457  -16.1702  -41.2721 H         1 UNK         0.0600 
    184 H184       -2.4631  -14.7237  -44.9691 H         1 UNK         0.3000 
    185 H185       -4.7163  -13.0953  -45.9504 H         1 UNK         0.0600 
    186 H186       -4.7655  -10.7917  -45.0941 H         1 UNK         0.0600 
    187 H187       -3.0353  -10.6074  -45.3431 H         1 UNK         0.0600 
    188 H188       -4.1166  -10.7827  -46.7246 H         1 UNK         0.0600 
    189 H189       -3.1460  -13.6605  -47.4007 H         1 UNK         0.3000 
    190 H190        0.4956  -20.7317  -46.6572 H         1 UNK         0.3000 
    191 H191       -0.7101  -21.1808  -49.2091 H         1 UNK         0.0600 
    192 H192       -2.5826  -19.8376  -48.2601 H         1 UNK         0.0600 
    193 H193       -1.0330  -19.0974  -47.8937 H         1 UNK         0.0600 
    194 H194       -1.8960  -19.9860  -46.6459 H         1 UNK         0.0600 
    195 H195       -1.3753  -22.4702  -45.9753 H         1 UNK         0.3000 
    196 H196       -2.2544  -24.2898  -45.1615 H         1 UNK         0.0600 
    197 H197       -2.4805  -25.4355  -48.0028 H         1 UNK         0.0600 
    198 H198       -1.0265  -25.5020  -47.0106 H         1 UNK         0.0600 
    199 H199       -2.4741  -26.3480  -46.5007 H         1 UNK         0.0600 
    200 H200       -4.2551  -25.8054  -45.2052 H         1 UNK         0.3000 
    201 H201       -6.6450  -24.2525  -45.1680 H         1 UNK         0.0600 
    202 H202       -6.2218  -27.2889  -45.0413 H         1 UNK         0.0600 
    203 H203       -7.7031  -26.4460  -44.6046 H         1 UNK         0.0600 
    204 H204       -6.2442  -26.1883  -43.6623 H         1 UNK         0.0600 
    205 H205       -5.1110  -26.0495  -47.7050 H         1 UNK         0.3000 
    206 H206       -7.3670  -26.4018  -49.4656 H         1 UNK         0.0600 
    207 H207       -5.2933  -27.7732  -49.6322 H         1 UNK         0.0600 
    208 H208       -5.5737  -26.9037  -51.1317 H         1 UNK         0.0600 
    209 H209       -4.3464  -26.3322  -50.0083 H         1 UNK         0.0600 
    210 H210       -5.4483  -23.6435  -48.5915 H         1 UNK         0.3000 
    211 H211       -5.2262  -21.5596  -49.2474 H         1 UNK         0.0600 
    212 H212       -7.1714  -20.3955  -50.2495 H         1 UNK         0.0600 
    213 H213       -7.7005  -21.4910  -48.9814 H         1 UNK         0.0600 
    214 H214       -7.9170  -21.9285  -50.6751 H         1 UNK         0.0600 
    215 H215       -3.4188  -22.6795  -50.4509 H         1 UNK         0.3000 
    216 H216       -3.4180  -23.2987  -53.1400 H         1 UNK         0.0600 
    217 H217       -1.1337  -22.2404  -51.4028 H         1 UNK         0.0600 
    218 H218       -0.9231  -23.0335  -52.9606 H         1 UNK         0.0600 
    219 H219       -1.6094  -23.9213  -51.6087 H         1 UNK         0.0600 
    220 H220       -3.1283  -20.0694  -51.7432 H         1 UNK         0.3000 
    221 H221       -2.1985  -18.6754  -54.0547 H         1 UNK         0.0600 
    222 H222       -3.0360  -16.6571  -52.8360 H         1 UNK         0.0600 
    223 H223       -2.0647  -17.6849  -51.8022 H         1 UNK         0.0600 
    224 H224       -3.8196  -17.6913  -51.6464 H         1 UNK         0.0600 
    225 H225       -5.4777  -19.4176  -52.8330 H         1 UNK         0.3000 
    226 H226       -6.8717  -18.0079  -54.9595 H         1 UNK         0.0600 
    227 H227       -7.8814  -18.2906  -52.6984 H         1 UNK         0.0600 
    228 H228       -8.8798  -19.0497  -53.9288 H         1 UNK         0.0600 
    229 H229       -7.8667  -20.0434  -52.8907 H         1 UNK         0.0600 
    230 H230       -5.7880  -21.3244  -54.3057 H         1 UNK         0.3000 
    231 H231       -7.1402  -22.6163  -56.4341 H         1 UNK         0.0600 
    232 H232       -4.5026  -23.4544  -55.1348 H         1 UNK         0.0600 
    233 H233       -5.6426  -24.4872  -55.9769 H         1 UNK         0.0600 
    234 H234       -6.0948  -23.7637  -54.4392 H         1 UNK         0.0600 
    235 H235       -3.7997  -21.2175  -56.3051 H         1 UNK         0.3000 
    236 H236       -3.8229  -20.7647  -59.1768 H         1 UNK         0.0600 
    237 H237       -3.2593  -23.1748  -59.2381 H         1 UNK         0.0600 
    238 H238       -1.8317  -22.2501  -59.6564 H         1 UNK         0.0600 
    239 H239       -1.9817  -22.9439  -58.0464 H         1 UNK         0.0600 
    240 H240       -2.0055  -20.6239  -56.0928 H         1 UNK         0.3000 
    241 H241        0.2649  -19.4544  -57.3393 H         1 UNK         0.0600 
    242 H242       -1.8164  -16.1461  -56.4892 H         1 UNK         0.3800 
    243 H243       -2.5941  -17.6962  -56.3039 H         1 UNK         0.3800 
    244 H244       -0.2483  -20.7002  -54.8432 H         1 UNK         0.0800 
    245 H245        1.2488  -20.3783  -55.6222 H         1 UNK         0.0800 
    246 H246        1.1254  -20.9234  -52.7501 H         1 UNK         0.0800 
    247 H247       -0.3458  -20.1175  -52.2611 H         1 UNK         0.0800 
@<TRIPOS>BOND
     1    1    2 1    
     2    1  127 1    
     3    1  128 1    
     4    1  129 1    
     5    2    3 2    
     6    2    4 am   BACKBONE|DICT|INTERRES
     7    4    5 1    
     8    4  130 1    
     9    5    6 1    
    10    5   65 1    
    11    5  131 1    
    12    6    7 1    
    13    6  132 1    
    14    6  133 1    
    15    7    8 1    
    16    8    9 1    
    17    8  134 1    
    18    8  135 1    
    19    9   10 ar   
    20    9   14 ar   
    21   10   11 ar   
    22   10  136 1    
    23   11   12 ar   
    24   11  126 1    
    25   12   13 ar   
    26   12  137 1    
    27   13   14 ar   
    28   13   15 1    
    29   14  138 1    
    30   15   16 1    
    31   15  139 1    
    32   15  140 1    
    33   16   17 1    
    34   17   18 1    
    35   17  141 1    
    36   17  142 1    
    37   18   19 1    
    38   18   67 1    
    39   18  143 1    
    40   19   20 am   BACKBONE|DICT|INTERRES
    41   19  144 1    
    42   20   21 2    
    43   20   22 1    
    44   22   23 1    
    45   22   24 1    
    46   22  145 1    
    47   23  146 1    
    48   23  147 1    
    49   23  148 1    
    50   24   25 am   BACKBONE|DICT|INTERRES
    51   24  149 1    
    52   25   26 2    
    53   25   27 1    
    54   27   28 1    
    55   27   29 1    
    56   27  150 1    
    57   28  151 1    
    58   28  152 1    
    59   28  153 1    
    60   29   30 am   BACKBONE|DICT|INTERRES
    61   29  154 1    
    62   30   31 2    
    63   30   32 1    
    64   32   33 1    
    65   32   34 1    
    66   32  155 1    
    67   33  156 1    
    68   33  157 1    
    69   33  158 1    
    70   34   35 am   BACKBONE|DICT|INTERRES
    71   34  159 1    
    72   35   36 2    
    73   35   37 1    
    74   37   38 1    
    75   37   39 1    
    76   37  160 1    
    77   38  161 1    
    78   38  162 1    
    79   38  163 1    
    80   39   40 am   BACKBONE|DICT|INTERRES
    81   39  164 1    
    82   40   41 2    
    83   40   42 1    
    84   42   43 1    
    85   42   44 1    
    86   42  165 1    
    87   43  166 1    
    88   43  167 1    
    89   43  168 1    
    90   44   45 am   BACKBONE|DICT|INTERRES
    91   44  169 1    
    92   45   46 2    
    93   45   47 1    
    94   47   48 1    
    95   47   49 1    
    96   47  170 1    
    97   48  171 1    
    98   48  172 1    
    99   48  173 1    
   100   49   50 am   BACKBONE|DICT|INTERRES
   101   49  174 1    
   102   50   51 2    
   103   50   52 1    
   104   52   53 1    
   105   52   54 1    
   106   52  175 1    
   107   53  176 1    
   108   53  177 1    
   109   53  178 1    
   110   54   55 am   BACKBONE|DICT|INTERRES
   111   54  179 1    
   112   55   56 2    
   113   55   57 1    
   114   57   58 1    
   115   57   59 1    
   116   57  180 1    
   117   58  181 1    
   118   58  182 1    
   119   58  183 1    
   120   59   60 am   BACKBONE|DICT|INTERRES
   121   59  184 1    
   122   60   61 2    
   123   60   62 1    
   124   62   63 1    
   125   62   64 1    
   126   62  185 1    
   127   63  186 1    
   128   63  187 1    
   129   63  188 1    
   130   64   65 am   BACKBONE|DICT|INTERRES
   131   64  189 1    
   132   65   66 2    
   133   67   68 2    
   134   67   69 am   BACKBONE|DICT|INTERRES
   135   69   70 1    
   136   69  190 1    
   137   70   71 1    
   138   70   72 1    
   139   70  191 1    
   140   71  192 1    
   141   71  193 1    
   142   71  194 1    
   143   72   73 2    
   144   72   74 am   BACKBONE|DICT|INTERRES
   145   74   75 1    
   146   74  195 1    
   147   75   76 1    
   148   75   77 1    
   149   75  196 1    
   150   76  197 1    
   151   76  198 1    
   152   76  199 1    
   153   77   78 2    
   154   77   79 am   BACKBONE|DICT|INTERRES
   155   79   80 1    
   156   79  200 1    
   157   80   81 1    
   158   80   82 1    
   159   80  201 1    
   160   81  202 1    
   161   81  203 1    
   162   81  204 1    
   163   82   83 2    
   164   82   84 am   BACKBONE|DICT|INTERRES
   165   84   85 1    
   166   84  205 1    
   167   85   86 1    
   168   85   87 1    
   169   85  206 1    
   170   86  207 1    
   171   86  208 1    
   172   86  209 1    
   173   87   88 2    
   174   87   89 am   BACKBONE|DICT|INTERRES
   175   89   90 1    
   176   89  210 1    
   177   90   91 1    
   178   90   92 1    
   179   90  211 1    
   180   91  212 1    
   181   91  213 1    
   182   91  214 1    
   183   92   93 2    
   184   92   94 am   BACKBONE|DICT|INTERRES
   185   94   95 1    
   186   94  215 1    
   187   95   96 1    
   188   95   97 1    
   189   95  216 1    
   190   96  217 1    
   191   96  218 1    
   192   96  219 1    
   193   97   98 2    
   194   97   99 am   BACKBONE|DICT|INTERRES
   195   99  100 1    
   196   99  220 1    
   197  100  101 1    
   198  100  102 1    
   199  100  221 1    
   200  101  222 1    
   201  101  223 1    
   202  101  224 1    
   203  102  103 2    
   204  102  104 am   BACKBONE|DICT|INTERRES
   205  104  105 1    
   206  104  225 1    
   207  105  106 1    
   208  105  107 1    
   209  105  226 1    
   210  106  227 1    
   211  106  228 1    
   212  106  229 1    
   213  107  108 2    
   214  107  109 am   BACKBONE|DICT|INTERRES
   215  109  110 1    
   216  109  230 1    
   217  110  111 1    
   218  110  112 1    
   219  110  231 1    
   220  111  232 1    
   221  111  233 1    
   222  111  234 1    
   223  112  113 2    
   224  112  114 am   BACKBONE|DICT|INTERRES
   225  114  115 1    
   226  114  235 1    
   227  115  116 1    
   228  115  117 1    
   229  115  236 1    
   230  116  237 1    
   231  116  238 1    
   232  116  239 1    
   233  117  118 2    
   234  117  119 am   BACKBONE|DICT|INTERRES
   235  119  120 1    
   236  119  240 1    
   237  120  121 1    
   238  120  124 1    
   239  120  241 1    
   240  121  122 am   BACKBONE|DICT|INTERRES
   241  121  123 2    
   242  122  242 1    
   243  122  243 1    
   244  124  125 1    
   245  124  244 1    
   246  124  245 1    
   247  125  126 1    
   248  126  246 1    
   249  126  247 1    
@<TRIPOS>SUBSTRUCTURE
     1 UNK         1 GROUP             0       ****    0 ROOT    
