@<TRIPOS>MOLECULE
3R540
247   249    1
SMALL
USER_CHARGES


@<TRIPOS>ATOM
      1 CA          6.3317  -15.5399  -45.9229 C.3       0 UNK        -0.1800 
      2 C           5.5479  -15.6177  -47.2255 C.2       0 UNK         0.5000 
      3 O           6.0620  -16.1191  -48.2252 O.2       0 UNK        -0.5000 
      4 N           4.3072  -15.1256  -47.2165 N.am      1 UNK        -0.5000 
      5 CA          3.3717  -15.1518  -48.3350 C.3       1 UNK         0.1400 
      6 C6          3.6547  -14.0051  -49.3406 C.3       23 UNK        -0.0398 
      7 S7          2.4941  -13.8613  -50.7450 S.3       23 UNK        -0.2404 
      8 C8          3.0653  -15.1814  -51.8642 C.3       23 UNK        -0.0205 
      9 C9          2.2351  -16.4450  -51.6941 C.ar      23 UNK        -0.0193 
     10 C10         0.9522  -16.5109  -52.2457 C.ar      23 UNK        -0.1150 
     11 C11         0.1674  -17.6557  -52.0855 C.ar      23 UNK        -0.0193 
     12 C12         0.6767  -18.7413  -51.3693 C.ar      23 UNK        -0.1150 
     13 C13         1.9466  -18.6806  -50.7902 C.ar      23 UNK        -0.0193 
     14 C14         2.7323  -17.5396  -50.9799 C.ar      23 UNK        -0.1150 
     15 C15         2.4640  -19.8336  -49.9420 C.3       23 UNK        -0.0205 
     16 S16         2.0376  -19.6104  -48.1815 S.3       23 UNK        -0.2404 
     17 C17         0.3692  -20.3526  -48.0913 C.3       23 UNK        -0.0398 
     18 CA          0.3801  -21.7183  -47.3665 C.3       11 UNK         0.1400 
     19 N           0.6384  -21.5848  -45.9317 N.am      11 UNK        -0.5000 
     20 C           0.9776  -22.5986  -45.1255 C.2       10 UNK         0.5000 
     21 O           1.1409  -23.7544  -45.5156 O.2       10 UNK        -0.5000 
     22 CA          1.1148  -22.2764  -43.6257 C.3       10 UNK         0.1400 
     23 CB          2.4494  -21.5746  -43.3347 C.3       10 UNK        -0.1800 
     24 N           0.0066  -21.4645  -43.1181 N.am      10 UNK        -0.5000 
     25 C          -1.2718  -21.8673  -43.0872 C.2       9 UNK         0.5000 
     26 O          -1.6485  -22.9744  -43.4672 O.2       9 UNK        -0.5000 
     27 CA         -2.3133  -20.8550  -42.5841 C.3       9 UNK         0.1400 
     28 CB         -2.3810  -20.8488  -41.0495 C.3       9 UNK        -0.1800 
     29 N          -2.0542  -19.5029  -43.0734 N.am      9 UNK        -0.5000 
     30 C          -2.1856  -19.1238  -44.3521 C.2       8 UNK         0.5000 
     31 O          -2.5390  -19.8745  -45.2614 O.2       8 UNK        -0.5000 
     32 CA         -1.8107  -17.6664  -44.6711 C.3       8 UNK         0.1400 
     33 CB         -2.8881  -16.7099  -44.1360 C.3       8 UNK        -0.1800 
     34 N          -0.5067  -17.2775  -44.1268 N.am      8 UNK        -0.5000 
     35 C           0.6500  -17.9303  -44.3208 C.2       7 UNK         0.5000 
     36 O           0.7739  -18.8871  -45.0814 O.2       7 UNK        -0.5000 
     37 CA          1.8507  -17.5005  -43.4570 C.3       7 UNK         0.1400 
     38 CB          2.6452  -16.3771  -44.1301 C.3       7 UNK        -0.1800 
     39 N           1.4523  -17.0794  -42.1147 N.am      7 UNK        -0.5000 
     40 C           0.8497  -17.8559  -41.2059 C.2       6 UNK         0.5000 
     41 O           0.6350  -19.0561  -41.3800 O.2       6 UNK        -0.5000 
     42 CA          0.3362  -17.1735  -39.9214 C.3       6 UNK         0.1400 
     43 CB          1.4459  -17.0666  -38.8585 C.3       6 UNK        -0.1800 
     44 N          -0.3293  -15.8812  -40.1601 N.am      6 UNK        -0.5000 
     45 C           0.2087  -14.7284  -40.5829 C.2       5 UNK         0.5000 
     46 O           1.4161  -14.5576  -40.7693 O.2       5 UNK        -0.5000 
     47 CA         -0.7784  -13.5827  -40.8764 C.3       5 UNK         0.1400 
     48 CB         -0.9693  -12.7044  -39.6310 C.3       5 UNK        -0.1800 
     49 N          -0.3270  -12.7431  -41.9883 N.am      5 UNK        -0.5000 
     50 C          -0.1631  -13.1615  -43.2504 C.2       4 UNK         0.5000 
     51 O          -0.4373  -14.3016  -43.6348 O.2       4 UNK        -0.5000 
     52 CA          0.4508  -12.1376  -44.2202 C.3       4 UNK         0.1400 
     53 CB          1.9854  -12.1729  -44.1387 C.3       4 UNK        -0.1800 
     54 N           0.0463  -12.4039  -45.5988 N.am      4 UNK        -0.5000 
     55 C          -1.0224  -11.8597  -46.1979 C.2       3 UNK         0.5000 
     56 O          -1.7685  -11.0477  -45.6484 O.2       3 UNK        -0.5000 
     57 CA         -1.3080  -12.2645  -47.6610 C.3       3 UNK         0.1400 
     58 CB         -0.7555  -11.2061  -48.6282 C.3       3 UNK        -0.1800 
     59 N          -0.7471  -13.5646  -48.0228 N.am      3 UNK        -0.5000 
     60 C          -1.1970  -14.7392  -47.5654 C.2       2 UNK         0.5000 
     61 O          -2.2273  -14.8572  -46.9042 O.2       2 UNK        -0.5000 
     62 CA         -0.3662  -15.9970  -47.8930 C.3       2 UNK         0.1400 
     63 CB         -1.1237  -16.8891  -48.8865 C.3       2 UNK        -0.1800 
     64 N           0.9921  -15.7592  -48.3931 N.am      2 UNK        -0.5000 
     65 C           1.9622  -15.1207  -47.7245 C.2       1 UNK         0.5000 
     66 O           1.7809  -14.5230  -46.6614 O.2       1 UNK        -0.5000 
     67 C          -0.9047  -22.5293  -47.6404 C.2       11 UNK         0.5000 
     68 O          -0.8982  -23.3667  -48.5404 O.2       11 UNK        -0.5000 
     69 N          -1.9627  -22.3317  -46.8379 N.am      12 UNK        -0.5000 
     70 CA         -3.1914  -23.1285  -46.9114 C.3       12 UNK         0.1400 
     71 CB         -4.2757  -22.5083  -46.0197 C.3       12 UNK        -0.1800 
     72 C          -2.9697  -24.6123  -46.5561 C.2       12 UNK         0.5000 
     73 O          -3.5364  -25.4829  -47.2153 O.2       12 UNK        -0.5000 
     74 N          -2.1247  -24.8853  -45.5523 N.am      13 UNK        -0.5000 
     75 CA         -1.7143  -26.2368  -45.1630 C.3       13 UNK         0.1400 
     76 CB         -0.9552  -26.1814  -43.8290 C.3       13 UNK        -0.1800 
     77 C          -0.8716  -26.9473  -46.2404 C.2       13 UNK         0.5000 
     78 O          -0.9424  -28.1722  -46.3551 O.2       13 UNK        -0.5000 
     79 N          -0.1173  -26.1751  -47.0335 N.am      14 UNK        -0.5000 
     80 CA          0.6749  -26.6369  -48.1716 C.3       14 UNK         0.1400 
     81 CB          1.7814  -25.6081  -48.4663 C.3       14 UNK        -0.1800 
     82 C          -0.2123  -26.9342  -49.3998 C.2       14 UNK         0.5000 
     83 O          -0.1305  -26.2397  -50.4134 O.2       14 UNK        -0.5000 
     84 N          -1.0429  -27.9783  -49.2770 N.am      15 UNK        -0.5000 
     85 CA         -1.9025  -28.5620  -50.3120 C.3       15 UNK         0.1400 
     86 CB         -1.0466  -29.2100  -51.4210 C.3       15 UNK        -0.1800 
     87 C          -2.9679  -27.5892  -50.8616 C.2       15 UNK         0.5000 
     88 O          -3.1858  -27.5324  -52.0732 O.2       15 UNK        -0.5000 
     89 N          -3.6270  -26.8574  -49.9507 N.am      16 UNK        -0.5000 
     90 CA         -4.7506  -25.9431  -50.1961 C.3       16 UNK         0.1400 
     91 CB         -5.9595  -26.6921  -50.7969 C.3       16 UNK        -0.1800 
     92 C          -4.3828  -24.6760  -50.9948 C.2       16 UNK         0.5000 
     93 O          -5.2785  -24.0129  -51.5204 O.2       16 UNK        -0.5000 
     94 N          -3.0924  -24.3186  -51.0446 N.am      17 UNK        -0.5000 
     95 CA         -2.5679  -23.1347  -51.7306 C.3       17 UNK         0.1400 
     96 CB         -1.0904  -23.3776  -52.0867 C.3       17 UNK        -0.1800 
     97 C          -2.7820  -21.8386  -50.9178 C.2       17 UNK         0.5000 
     98 O          -1.8403  -21.0790  -50.7005 O.2       17 UNK        -0.5000 
     99 N          -4.0205  -21.6076  -50.4682 N.am      18 UNK        -0.5000 
    100 CA        -4.4479  -20.4100  -49.7470 C.3       18 UNK         0.1400 
    101 CB        -5.8574  -20.6650  -49.1904 C.3       18 UNK        -0.1800 
    102 C         -4.4374  -19.1557  -50.6438 C.2       18 UNK         0.5000 
    103 O         -4.3640  -19.2676  -51.8696 O.2       18 UNK        -0.5000 
    104 N         -4.5724  -17.9739  -50.0264 N.am      19 UNK        -0.5000 
    105 CA        -4.5923  -16.6691  -50.7030 C.3       19 UNK         0.1400 
    106 CB        -4.7567  -15.5591  -49.6539 C.3       19 UNK        -0.1800 
    107 C         -5.6716  -16.5349  -51.7982 C.2       19 UNK         0.5000 
    108 O         -5.4440  -15.8473  -52.7929 O.2       19 UNK        -0.5000 
    109 N         -6.8070  -17.2198  -51.6055 N.am      20 UNK        -0.5000 
    110 CA        -7.9107  -17.2979  -52.5620 C.3       20 UNK         0.1400 
    111 CB        -9.1943  -17.6596  -51.7970 C.3       20 UNK        -0.1800 
    112 C         -7.6675  -18.3056  -53.7059 C.2       20 UNK         0.5000 
    113 O         -8.3474  -18.2152  -54.7291 O.2       20 UNK        -0.5000 
    114 N         -6.7374  -19.2552  -53.5211 N.am      21 UNK        -0.5000 
    115 CA        -6.3845  -20.2666  -54.5209 C.3       21 UNK         0.1400 
    116 CB        -5.8380  -21.5224  -53.8220 C.3       21 UNK        -0.1800 
    117 C         -5.3708  -19.7267  -55.5456 C.2       21 UNK         0.5000 
    118 O         -5.4248  -20.1219  -56.7114 O.2       21 UNK        -0.5000 
    119 N         -4.4797  -18.8282  -55.1033 N.am      22 UNK        -0.5000 
    120 CA        -3.5618  -18.0664  -55.9655 C.3       22 UNK         0.1400 
    121 C         -4.3131  -17.1018  -56.9293 C.2       22 UNK         0.5000 
    122 N         -3.8191  -16.9273  -58.1485 N.am      22 UNK        -0.7600 
    123 O         -5.3109  -16.4784  -56.5715 O.2       22 UNK        -0.5000 
    124 C124       -2.5163  -17.2806  -55.1362 C.3       23 UNK        -0.0398 
    125 S125       -1.2941  -18.3721  -54.3267 S.3       23 UNK        -0.2404 
    126 C126       -1.2481  -17.6957  -52.6381 C.3       23 UNK        -0.0205 
    127 H127        7.2402  -14.9547  -46.0654 H         1 UNK         0.0600 
    128 H128        6.6163  -16.5402  -45.5962 H         1 UNK         0.0600 
    129 H129        5.7491  -15.0757  -45.1265 H         1 UNK         0.0600 
    130 H130        3.9040  -14.7461  -46.3681 H         1 UNK         0.3000 
    131 H131        3.4860  -16.1105  -48.8364 H         1 UNK         0.0600 
    132 H132        4.6647  -14.1052  -49.7402 H         1 UNK         0.0800 
    133 H133        3.6438  -13.0488  -48.8148 H         1 UNK         0.0800 
    134 H134        4.1257  -15.3858  -51.7076 H         1 UNK         0.0800 
    135 H135        2.9742  -14.8306  -52.8935 H         1 UNK         0.0800 
    136 H136        0.5599  -15.6631  -52.7903 H         1 UNK         0.1150 
    137 H137        0.0708  -19.6242  -51.2421 H         1 UNK         0.1150 
    138 H138        3.7260  -17.5015  -50.5559 H         1 UNK         0.1150 
    139 H139        2.0756  -20.7861  -50.3068 H         1 UNK         0.0800 
    140 H140        3.5496  -19.8957  -50.0325 H         1 UNK         0.0800 
    141 H141       -0.0143  -20.4577  -49.1034 H         1 UNK         0.0800 
    142 H142       -0.3012  -19.6582  -47.5826 H         1 UNK         0.0800 
    143 H143        1.2009  -22.3027  -47.7885 H         1 UNK         0.0600 
    144 H144        0.5751  -20.6434  -45.5477 H         1 UNK         0.3000 
    145 H145        1.1053  -23.2224  -43.0803 H         1 UNK         0.0600 
    146 H146        2.5510  -21.3377  -42.2754 H         1 UNK         0.0600 
    147 H147        3.2900  -22.2127  -43.6094 H         1 UNK         0.0600 
    148 H148        2.5481  -20.6474  -43.8981 H         1 UNK         0.0600 
    149 H149        0.2352  -20.5461  -42.7534 H         1 UNK         0.3000 
    150 H150       -3.2894  -21.1675  -42.9609 H         1 UNK         0.0600 
    151 H151       -2.6182  -21.8428  -40.6682 H         1 UNK         0.0600 
    152 H152       -3.1558  -20.1708  -40.6914 H         1 UNK         0.0600 
    153 H153       -1.4351  -20.5450  -40.6008 H         1 UNK         0.0600 
    154 H154       -1.6952  -18.8391  -42.4039 H         1 UNK         0.3000 
    155 H155       -1.7773  -17.5720  -45.7556 H         1 UNK         0.0600 
    156 H156       -2.9599  -16.7457  -43.0484 H         1 UNK         0.0600 
    157 H157       -3.8693  -16.9606  -44.5412 H         1 UNK         0.0600 
    158 H158       -2.6771  -15.6788  -44.4180 H         1 UNK         0.0600 
    159 H159       -0.4889  -16.4321  -43.5679 H         1 UNK         0.3000 
    160 H160        2.5104  -18.3629  -43.3507 H         1 UNK         0.0600 
    161 H161        2.0462  -15.4716  -44.2183 H         1 UNK         0.0600 
    162 H162        2.9576  -16.6713  -45.1324 H         1 UNK         0.0600 
    163 H163        3.5444  -16.1322  -43.5648 H         1 UNK         0.0600 
    164 H164        1.5877  -16.1014  -41.8748 H         1 UNK         0.3000 
    165 H165       -0.4364  -17.8275  -39.5140 H         1 UNK         0.0600 
    166 H166        2.2908  -16.4703  -39.2030 H         1 UNK         0.0600 
    167 H167        1.0696  -16.6171  -37.9396 H         1 UNK         0.0600 
    168 H168        1.8316  -18.0543  -38.6032 H         1 UNK         0.0600 
    169 H169       -1.3331  -15.9061  -40.0446 H         1 UNK         0.3000 
    170 H170       -1.7430  -14.0127  -41.1540 H         1 UNK         0.0600 
    171 H171       -0.0343  -12.2345  -39.3235 H         1 UNK         0.0600 
    172 H172       -1.6991  -11.9150  -39.8120 H         1 UNK         0.0600 
    173 H173       -1.3324  -13.2938  -38.7880 H         1 UNK         0.0600 
    174 H174       -0.0395  -11.8063  -41.7466 H         1 UNK         0.3000 
    175 H175        0.1197  -11.1389  -43.9275 H         1 UNK         0.0600 
    176 H176        2.3301  -11.9531  -43.1276 H         1 UNK         0.0600 
    177 H177        2.4316  -11.4324  -44.8026 H         1 UNK         0.0600 
    178 H178        2.3840  -13.1489  -44.4133 H         1 UNK         0.0600 
    179 H179        0.5730  -13.1276  -46.0800 H         1 UNK         0.3000 
    180 H180       -2.3919  -12.3105  -47.7859 H         1 UNK         0.0600 
    181 H181       -1.0111  -11.4435  -49.6610 H         1 UNK         0.0600 
    182 H182        0.3303  -11.1275  -48.5602 H         1 UNK         0.0600 
    183 H183       -1.1709  -10.2215  -48.4094 H         1 UNK         0.0600 
    184 H184        0.1047  -13.5598  -48.5640 H         1 UNK         0.3000 
    185 H185       -0.2449  -16.5478  -46.9615 H         1 UNK         0.0600 
    186 H186       -0.5782  -17.8085  -49.0872 H         1 UNK         0.0600 
    187 H187       -2.0980  -17.1773  -48.4912 H         1 UNK         0.0600 
    188 H188       -1.2890  -16.3793  -49.8358 H         1 UNK         0.0600 
    189 H189        1.2187  -16.1956  -49.2765 H         1 UNK         0.3000 
    190 H190       -1.9322  -21.6025  -46.1326 H         1 UNK         0.3000 
    191 H191       -3.5476  -23.0914  -47.9430 H         1 UNK         0.0600 
    192 H192       -5.2042  -23.0772  -46.0810 H         1 UNK         0.0600 
    193 H193       -4.5007  -21.4866  -46.3256 H         1 UNK         0.0600 
    194 H194       -3.9717  -22.4861  -44.9732 H         1 UNK         0.0600 
    195 H195       -1.7511  -24.1192  -44.9984 H         1 UNK         0.3000 
    196 H196       -2.6184  -26.8301  -45.0120 H         1 UNK         0.0600 
    197 H197       -0.0533  -25.5738  -43.9032 H         1 UNK         0.0600 
    198 H198       -1.5776  -25.7607  -43.0391 H         1 UNK         0.0600 
    199 H199       -0.6540  -27.1794  -43.5084 H         1 UNK         0.0600 
    200 H200       -0.1161  -25.1770  -46.8657 H         1 UNK         0.3000 
    201 H201        1.1681  -27.5709  -47.8942 H         1 UNK         0.0600 
    202 H202        2.4313  -25.9560  -49.2699 H         1 UNK         0.0600 
    203 H203        1.3724  -24.6458  -48.7719 H         1 UNK         0.0600 
    204 H204        2.4079  -25.4407  -47.5900 H         1 UNK         0.0600 
    205 H205       -1.0727  -28.4316  -48.3689 H         1 UNK         0.3000 
    206 H206       -2.4577  -29.3639  -49.8235 H         1 UNK         0.0600 
    207 H207       -0.3300  -29.9174  -51.0037 H         1 UNK         0.0600 
    208 H208       -1.6704  -29.7610  -52.1256 H         1 UNK         0.0600 
    209 H209       -0.4902  -28.4652  -51.9908 H         1 UNK         0.0600 
    210 H210       -3.3425  -26.9223  -48.9807 H         1 UNK         0.3000 
    211 H211       -5.0693  -25.5829  -49.2190 H         1 UNK         0.0600 
    212 H212       -6.2053  -27.5785  -50.2122 H         1 UNK         0.0600 
    213 H213       -5.7757  -27.0062  -51.8245 H         1 UNK         0.0600 
    214 H214       -6.8466  -26.0578  -50.8071 H         1 UNK         0.0600 
    215 H215       -2.4116  -24.8871  -50.5584 H         1 UNK         0.3000 
    216 H216       -3.1096  -23.0098  -52.6701 H         1 UNK         0.0600 
    217 H217       -0.6817  -22.5425  -52.6572 H         1 UNK         0.0600 
    218 H218       -0.9735  -24.2753  -52.6940 H         1 UNK         0.0600 
    219 H219       -0.4762  -23.4981  -51.1938 H         1 UNK         0.0600 
    220 H220       -4.7417  -22.2679  -50.7376 H         1 UNK         0.3000 
    221 H221       -3.7590  -20.2461  -48.9154 H         1 UNK         0.0600 
    222 H222       -5.8765  -21.5533  -48.5584 H         1 UNK         0.0600 
    223 H223       -6.5845  -20.8103  -49.9907 H         1 UNK         0.0600 
    224 H224       -6.2014  -19.8295  -48.5797 H         1 UNK         0.0600 
    225 H225       -4.6557  -17.9544  -49.0204 H         1 UNK         0.3000 
    226 H226       -3.6230  -16.5374  -51.1857 H         1 UNK         0.0600 
    227 H227       -3.9521  -15.5832  -48.9204 H         1 UNK         0.0600 
    228 H228       -4.7367  -14.5733  -50.1207 H         1 UNK         0.0600 
    229 H229       -5.7020  -15.6493  -49.1172 H         1 UNK         0.0600 
    230 H230       -6.9058  -17.7537  -50.7550 H         1 UNK         0.3000 
    231 H231       -8.0519  -16.3145  -53.0162 H         1 UNK         0.0600 
    232 H232       -9.1143  -18.6349  -51.3144 H         1 UNK         0.0600 
    233 H233      -10.0533  -17.6956  -52.4685 H         1 UNK         0.0600 
    234 H234       -9.4171  -16.9199  -51.0274 H         1 UNK         0.0600 
    235 H235       -6.1546  -19.2278  -52.6921 H         1 UNK         0.3000 
    236 H236       -7.2871  -20.5577  -55.0629 H         1 UNK         0.0600 
    237 H237       -6.5310  -21.8898  -53.0643 H         1 UNK         0.0600 
    238 H238       -5.6832  -22.3292  -54.5394 H         1 UNK         0.0600 
    239 H239       -4.8800  -21.3348  -53.3386 H         1 UNK         0.0600 
    240 H240       -4.4880  -18.5840  -54.1224 H         1 UNK         0.3000 
    241 H241       -3.0270  -18.7923  -56.5826 H         1 UNK         0.0600 
    242 H242       -2.9976  -17.4214  -58.4643 H         1 UNK         0.3800 
    243 H243       -4.2866  -16.2939  -58.7796 H         1 UNK         0.3800 
    244 H244       -3.0246  -16.6528  -54.4017 H         1 UNK         0.0800 
    245 H245       -1.9492  -16.5986  -55.7742 H         1 UNK         0.0800 
    246 H246       -1.8804  -18.3073  -51.9933 H         1 UNK         0.0800 
    247 H247       -1.6644  -16.6880  -52.6147 H         1 UNK         0.0800 
@<TRIPOS>BOND
     1    1    2 1    
     2    1  127 1    
     3    1  128 1    
     4    1  129 1    
     5    2    3 2    
     6    2    4 am   BACKBONE|DICT|INTERRES
     7    4    5 1    
     8    4  130 1    
     9    5    6 1    
    10    5   65 1    
    11    5  131 1    
    12    6    7 1    
    13    6  132 1    
    14    6  133 1    
    15    7    8 1    
    16    8    9 1    
    17    8  134 1    
    18    8  135 1    
    19    9   10 ar   
    20    9   14 ar   
    21   10   11 ar   
    22   10  136 1    
    23   11   12 ar   
    24   11  126 1    
    25   12   13 ar   
    26   12  137 1    
    27   13   14 ar   
    28   13   15 1    
    29   14  138 1    
    30   15   16 1    
    31   15  139 1    
    32   15  140 1    
    33   16   17 1    
    34   17   18 1    
    35   17  141 1    
    36   17  142 1    
    37   18   19 1    
    38   18   67 1    
    39   18  143 1    
    40   19   20 am   BACKBONE|DICT|INTERRES
    41   19  144 1    
    42   20   21 2    
    43   20   22 1    
    44   22   23 1    
    45   22   24 1    
    46   22  145 1    
    47   23  146 1    
    48   23  147 1    
    49   23  148 1    
    50   24   25 am   BACKBONE|DICT|INTERRES
    51   24  149 1    
    52   25   26 2    
    53   25   27 1    
    54   27   28 1    
    55   27   29 1    
    56   27  150 1    
    57   28  151 1    
    58   28  152 1    
    59   28  153 1    
    60   29   30 am   BACKBONE|DICT|INTERRES
    61   29  154 1    
    62   30   31 2    
    63   30   32 1    
    64   32   33 1    
    65   32   34 1    
    66   32  155 1    
    67   33  156 1    
    68   33  157 1    
    69   33  158 1    
    70   34   35 am   BACKBONE|DICT|INTERRES
    71   34  159 1    
    72   35   36 2    
    73   35   37 1    
    74   37   38 1    
    75   37   39 1    
    76   37  160 1    
    77   38  161 1    
    78   38  162 1    
    79   38  163 1    
    80   39   40 am   BACKBONE|DICT|INTERRES
    81   39  164 1    
    82   40   41 2    
    83   40   42 1    
    84   42   43 1    
    85   42   44 1    
    86   42  165 1    
    87   43  166 1    
    88   43  167 1    
    89   43  168 1    
    90   44   45 am   BACKBONE|DICT|INTERRES
    91   44  169 1    
    92   45   46 2    
    93   45   47 1    
    94   47   48 1    
    95   47   49 1    
    96   47  170 1    
    97   48  171 1    
    98   48  172 1    
    99   48  173 1    
   100   49   50 am   BACKBONE|DICT|INTERRES
   101   49  174 1    
   102   50   51 2    
   103   50   52 1    
   104   52   53 1    
   105   52   54 1    
   106   52  175 1    
   107   53  176 1    
   108   53  177 1    
   109   53  178 1    
   110   54   55 am   BACKBONE|DICT|INTERRES
   111   54  179 1    
   112   55   56 2    
   113   55   57 1    
   114   57   58 1    
   115   57   59 1    
   116   57  180 1    
   117   58  181 1    
   118   58  182 1    
   119   58  183 1    
   120   59   60 am   BACKBONE|DICT|INTERRES
   121   59  184 1    
   122   60   61 2    
   123   60   62 1    
   124   62   63 1    
   125   62   64 1    
   126   62  185 1    
   127   63  186 1    
   128   63  187 1    
   129   63  188 1    
   130   64   65 am   BACKBONE|DICT|INTERRES
   131   64  189 1    
   132   65   66 2    
   133   67   68 2    
   134   67   69 am   BACKBONE|DICT|INTERRES
   135   69   70 1    
   136   69  190 1    
   137   70   71 1    
   138   70   72 1    
   139   70  191 1    
   140   71  192 1    
   141   71  193 1    
   142   71  194 1    
   143   72   73 2    
   144   72   74 am   BACKBONE|DICT|INTERRES
   145   74   75 1    
   146   74  195 1    
   147   75   76 1    
   148   75   77 1    
   149   75  196 1    
   150   76  197 1    
   151   76  198 1    
   152   76  199 1    
   153   77   78 2    
   154   77   79 am   BACKBONE|DICT|INTERRES
   155   79   80 1    
   156   79  200 1    
   157   80   81 1    
   158   80   82 1    
   159   80  201 1    
   160   81  202 1    
   161   81  203 1    
   162   81  204 1    
   163   82   83 2    
   164   82   84 am   BACKBONE|DICT|INTERRES
   165   84   85 1    
   166   84  205 1    
   167   85   86 1    
   168   85   87 1    
   169   85  206 1    
   170   86  207 1    
   171   86  208 1    
   172   86  209 1    
   173   87   88 2    
   174   87   89 am   BACKBONE|DICT|INTERRES
   175   89   90 1    
   176   89  210 1    
   177   90   91 1    
   178   90   92 1    
   179   90  211 1    
   180   91  212 1    
   181   91  213 1    
   182   91  214 1    
   183   92   93 2    
   184   92   94 am   BACKBONE|DICT|INTERRES
   185   94   95 1    
   186   94  215 1    
   187   95   96 1    
   188   95   97 1    
   189   95  216 1    
   190   96  217 1    
   191   96  218 1    
   192   96  219 1    
   193   97   98 2    
   194   97   99 am   BACKBONE|DICT|INTERRES
   195   99  100 1    
   196   99  220 1    
   197  100  101 1    
   198  100  102 1    
   199  100  221 1    
   200  101  222 1    
   201  101  223 1    
   202  101  224 1    
   203  102  103 2    
   204  102  104 am   BACKBONE|DICT|INTERRES
   205  104  105 1    
   206  104  225 1    
   207  105  106 1    
   208  105  107 1    
   209  105  226 1    
   210  106  227 1    
   211  106  228 1    
   212  106  229 1    
   213  107  108 2    
   214  107  109 am   BACKBONE|DICT|INTERRES
   215  109  110 1    
   216  109  230 1    
   217  110  111 1    
   218  110  112 1    
   219  110  231 1    
   220  111  232 1    
   221  111  233 1    
   222  111  234 1    
   223  112  113 2    
   224  112  114 am   BACKBONE|DICT|INTERRES
   225  114  115 1    
   226  114  235 1    
   227  115  116 1    
   228  115  117 1    
   229  115  236 1    
   230  116  237 1    
   231  116  238 1    
   232  116  239 1    
   233  117  118 2    
   234  117  119 am   BACKBONE|DICT|INTERRES
   235  119  120 1    
   236  119  240 1    
   237  120  121 1    
   238  120  124 1    
   239  120  241 1    
   240  121  122 am   BACKBONE|DICT|INTERRES
   241  121  123 2    
   242  122  242 1    
   243  122  243 1    
   244  124  125 1    
   245  124  244 1    
   246  124  245 1    
   247  125  126 1    
   248  126  246 1    
   249  126  247 1    
@<TRIPOS>SUBSTRUCTURE
     1 UNK         1 GROUP             0       ****    0 ROOT    
