@<TRIPOS>MOLECULE
3R540
247   249    1
SMALL
USER_CHARGES


@<TRIPOS>ATOM
      1 CA          6.7187  -15.9714  -44.8217 C.3       0 UNK        -0.1800 
      2 C           5.9454  -14.9431  -45.6343 C.2       0 UNK         0.5000 
      3 O           6.5505  -14.1619  -46.3678 O.2       0 UNK        -0.5000 
      4 N           4.6134  -14.9373  -45.4921 N.am      1 UNK        -0.5000 
      5 CA          3.6494  -14.0870  -46.2127 C.3       1 UNK         0.1400 
      6 C6          3.6234  -14.3399  -47.7461 C.3       23 UNK        -0.0398 
      7 S7          3.3333  -16.0942  -48.1529 S.3       23 UNK        -0.2404 
      8 C8          2.2910  -15.9649  -49.6438 C.3       23 UNK        -0.0205 
      9 C9          1.9250  -17.3269  -50.2270 C.ar      23 UNK        -0.0193 
     10 C10         0.6160  -17.5856  -50.6474 C.ar      23 UNK        -0.1150 
     11 C11         0.2788  -18.8224  -51.2077 C.ar      23 UNK        -0.0193 
     12 C12         1.2563  -19.8131  -51.3297 C.ar      23 UNK        -0.1150 
     13 C13         2.5648  -19.5728  -50.9032 C.ar      23 UNK        -0.0193 
     14 C14         2.8950  -18.3240  -50.3731 C.ar      23 UNK        -0.1150 
     15 C15         3.6245  -20.6623  -50.9853 C.3       23 UNK        -0.0205 
     16 S16         3.1548  -22.1896  -50.1060 S.3       23 UNK        -0.2404 
     17 C17         2.6340  -21.5852  -48.4582 C.3       23 UNK        -0.0398 
     18 CA          1.5830  -22.5178  -47.8131 C.3       11 UNK         0.1400 
     19 N           1.4840  -22.3089  -46.3680 N.am      11 UNK        -0.5000 
     20 C           1.2324  -23.2821  -45.4830 C.2       10 UNK         0.5000 
     21 O           1.0891  -24.4660  -45.7898 O.2       10 UNK        -0.5000 
     22 CA          1.0974  -22.8607  -44.0069 C.3       10 UNK         0.1400 
     23 CB          2.4772  -22.7999  -43.3345 C.3       10 UNK        -0.1800 
     24 N           0.4165  -21.5770  -43.8256 N.am      10 UNK        -0.5000 
     25 C          -0.8625  -21.3477  -44.1507 C.2       9 UNK         0.5000 
     26 O          -1.6000  -22.1913  -44.6584 O.2       9 UNK        -0.5000 
     27 CA         -1.4046  -19.9296  -43.8995 C.3       9 UNK         0.1400 
     28 CB         -1.8162  -19.7687  -42.4279 C.3       9 UNK        -0.1800 
     29 N          -0.5143  -18.8240  -44.2641 N.am      9 UNK        -0.5000 
     30 C           0.2232  -18.6794  -45.3761 C.2       8 UNK         0.5000 
     31 O           0.3866  -19.5616  -46.2188 O.2       8 UNK        -0.5000 
     32 CA          0.8869  -17.3093  -45.5933 C.3       8 UNK         0.1400 
     33 CB          0.0618  -16.4854  -46.5919 C.3       8 UNK        -0.1800 
     34 N           1.0080  -16.5540  -44.3449 N.am      8 UNK        -0.5000 
     35 C           2.1201  -16.4824  -43.6022 C.2       7 UNK         0.5000 
     36 O           3.1942  -16.9810  -43.9395 O.2       7 UNK        -0.5000 
     37 CA          2.0512  -15.7016  -42.2769 C.3       7 UNK         0.1400 
     38 CB          3.0221  -14.5112  -42.2970 C.3       7 UNK        -0.1800 
     39 N           0.6987  -15.2159  -41.9879 N.am      7 UNK        -0.5000 
     40 C          -0.1297  -15.7996  -41.1112 C.2       6 UNK         0.5000 
     41 O           0.1698  -16.7920  -40.4464 O.2       6 UNK        -0.5000 
     42 CA         -1.5391  -15.1984  -40.9487 C.3       6 UNK         0.1400 
     43 CB         -1.5641  -14.1839  -39.7954 C.3       6 UNK        -0.1800 
     44 N          -2.1101  -14.5782  -42.1487 N.am      6 UNK        -0.5000 
     45 C          -2.3508  -15.2181  -43.3024 C.2       5 UNK         0.5000 
     46 O          -1.9244  -16.3431  -43.5601 O.2       5 UNK        -0.5000 
     47 CA         -3.1935  -14.4688  -44.3441 C.3       5 UNK         0.1400 
     48 CB         -4.5693  -14.0681  -43.7835 C.3       5 UNK        -0.1800 
     49 N          -2.4766  -13.2776  -44.7862 N.am      5 UNK        -0.5000 
     50 C          -1.9267  -13.1249  -45.9961 C.2       4 UNK         0.5000 
     51 O          -2.0813  -13.9155  -46.9268 O.2       4 UNK        -0.5000 
     52 CA         -1.0467  -11.8781  -46.2151 C.3       4 UNK         0.1400 
     53 CB         -1.8150  -10.8153  -47.0160 C.3       4 UNK        -0.1800 
     54 N          -0.5113  -11.2554  -44.9980 N.am      4 UNK        -0.5000 
     55 C           0.2995  -11.8487  -44.1139 C.2       3 UNK         0.5000 
     56 O           0.5673  -13.0535  -44.1157 O.2       3 UNK        -0.5000 
     57 CA          0.9517  -10.9436  -43.0615 C.3       3 UNK         0.1400 
     58 CB          0.5171  -11.3410  -41.6431 C.3       3 UNK        -0.1800 
     59 N           2.3864  -11.1429  -43.2015 N.am      3 UNK        -0.5000 
     60 C           3.2346  -10.2878  -43.7821 C.2       2 UNK         0.5000 
     61 O           2.9759   -9.1081  -44.0227 O.2       2 UNK        -0.5000 
     62 CA          4.5832  -10.8878  -44.2249 C.3       2 UNK         0.1400 
     63 CB          5.5837  -10.9016  -43.0594 C.3       2 UNK        -0.1800 
     64 N           4.4415  -12.2488  -44.7559 N.am      2 UNK        -0.5000 
     65 C           3.7681  -12.5808  -45.8702 C.2       1 UNK         0.5000 
     66 O           3.2260  -11.7487  -46.5991 O.2       1 UNK        -0.5000 
     67 C           0.1943  -22.4045  -48.4756 C.2       11 UNK         0.5000 
     68 O          -0.0851  -23.1463  -49.4157 O.2       11 UNK        -0.5000 
     69 N          -0.6849  -21.5397  -47.9473 N.am      12 UNK        -0.5000 
     70 CA         -2.0766  -21.4102  -48.3874 C.3       12 UNK         0.1400 
     71 CB         -2.7426  -20.2238  -47.6789 C.3       12 UNK        -0.1800 
     72 C          -2.8906  -22.7031  -48.1809 C.2       12 UNK         0.5000 
     73 O          -3.7194  -23.0389  -49.0262 O.2       12 UNK        -0.5000 
     74 N          -2.6122  -23.4299  -47.0890 N.am      13 UNK        -0.5000 
     75 CA         -3.1647  -24.7548  -46.8065 C.3       13 UNK         0.1400 
     76 CB         -2.7669  -25.1872  -45.3882 C.3       13 UNK        -0.1800 
     77 C          -2.7347  -25.8159  -47.8375 C.2       13 UNK         0.5000 
     78 O          -3.5566  -26.6435  -48.2323 O.2       13 UNK        -0.5000 
     79 N          -1.4716  -25.7558  -48.2825 N.am      14 UNK        -0.5000 
     80 CA         -0.9414  -26.6039  -49.3521 C.3       14 UNK         0.1400 
     81 CB          0.5933  -26.5298  -49.3650 C.3       14 UNK        -0.1800 
     82 C          -1.5310  -26.2293  -50.7249 C.2       14 UNK         0.5000 
     83 O          -1.8474  -27.1178  -51.5174 O.2       14 UNK        -0.5000 
     84 N          -1.7227  -24.9248  -50.9606 N.am      15 UNK        -0.5000 
     85 CA         -2.3570  -24.3357  -52.1399 C.3       15 UNK         0.1400 
     86 CB         -1.9121  -22.8693  -52.2573 C.3       15 UNK        -0.1800 
     87 C          -3.8952  -24.4877  -52.1249 C.2       15 UNK         0.5000 
     88 O          -4.6220  -23.4944  -52.2270 O.2       15 UNK        -0.5000 
     89 N          -4.3455  -25.7454  -52.0369 N.am      16 UNK        -0.5000 
     90 CA         -5.7289  -26.2172  -52.0911 C.3       16 UNK         0.1400 
     91 CB         -6.3692  -25.8880  -53.4564 C.3       16 UNK        -0.1800 
     92 C          -6.5817  -25.7606  -50.8916 C.2       16 UNK         0.5000 
     93 O          -7.6750  -25.2291  -51.0820 O.2       16 UNK        -0.5000 
     94 N          -6.0835  -26.0082  -49.6707 N.am      17 UNK        -0.5000 
     95 CA         -6.8049  -25.8808  -48.3964 C.3       17 UNK         0.1400 
     96 CB         -7.8836  -26.9791  -48.2859 C.3       17 UNK        -0.1800 
     97 C          -7.3615  -24.4656  -48.1363 C.2       17 UNK         0.5000 
     98 O          -8.5232  -24.3155  -47.7542 O.2       17 UNK        -0.5000 
     99 N          -6.5130  -23.4545  -48.3658 N.am      18 UNK        -0.5000 
    100 CA        -6.7792  -22.0214  -48.2117 C.3       18 UNK         0.1400 
    101 CB        -7.1887  -21.6631  -46.7676 C.3       18 UNK        -0.1800 
    102 C         -7.7247  -21.4322  -49.2784 C.2       18 UNK         0.5000 
    103 O         -8.1840  -20.3009  -49.1139 O.2       18 UNK        -0.5000 
    104 N         -7.9452  -22.1561  -50.3882 N.am      19 UNK        -0.5000 
    105 CA        -8.5718  -21.6170  -51.6016 C.3       19 UNK         0.1400 
    106 CB        -9.0418  -22.7680  -52.5020 C.3       19 UNK        -0.1800 
    107 C         -7.6290  -20.6760  -52.3815 C.2       19 UNK         0.5000 
    108 O         -8.1056  -19.9113  -53.2207 O.2       19 UNK        -0.5000 
    109 N         -6.3236  -20.7430  -52.0740 N.am      20 UNK        -0.5000 
    110 CA        -5.2314  -19.9301  -52.6055 C.3       20 UNK         0.1400 
    111 CB        -5.4290  -18.4349  -52.2799 C.3       20 UNK        -0.1800 
    112 C         -4.9840  -20.2097  -54.0967 C.2       20 UNK         0.5000 
    113 O         -5.0240  -19.2986  -54.9272 O.2       20 UNK        -0.5000 
    114 N         -4.6729  -21.4791  -54.3999 N.am      21 UNK        -0.5000 
    115 CA        -4.2642  -21.9594  -55.7284 C.3       21 UNK         0.1400 
    116 CB        -4.1415  -23.4903  -55.6964 C.3       21 UNK        -0.1800 
    117 C         -2.9617  -21.3199  -56.2654 C.2       21 UNK         0.5000 
    118 O         -2.6600  -21.4616  -57.4509 O.2       21 UNK        -0.5000 
    119 N         -2.2342  -20.6088  -55.3941 N.am      22 UNK        -0.5000 
    120 CA        -1.1377  -19.6898  -55.7230 C.3       22 UNK         0.1400 
    121 C         -1.5431  -18.4812  -56.6230 C.2       22 UNK         0.5000 
    122 N         -2.8149  -18.1003  -56.6950 N.am      22 UNK        -0.7600 
    123 O         -0.6872  -17.8870  -57.2728 O.2       22 UNK        -0.5000 
    124 C124       -0.4124  -19.2134  -54.4358 C.3       23 UNK        -0.0398 
    125 S125       -1.4962  -18.2990  -53.2717 S.3       23 UNK        -0.2404 
    126 C126       -1.1428  -19.0932  -51.6735 C.3       23 UNK        -0.0205 
    127 H127        6.0568  -16.5833  -44.2080 H         1 UNK         0.0600 
    128 H128        7.4291  -15.4726  -44.1625 H         1 UNK         0.0600 
    129 H129        7.2738  -16.6333  -45.4863 H         1 UNK         0.0600 
    130 H130        4.1921  -15.6507  -44.9026 H         1 UNK         0.3000 
    131 H131        2.6700  -14.3767  -45.8288 H         1 UNK         0.0600 
    132 H132        2.8371  -13.7453  -48.2141 H         1 UNK         0.0800 
    133 H133        4.5599  -14.0258  -48.2089 H         1 UNK         0.0800 
    134 H134        2.8202  -15.3893  -50.4042 H         1 UNK         0.0800 
    135 H135        1.3888  -15.4047  -49.3928 H         1 UNK         0.0800 
    136 H136       -0.1423  -16.8211  -50.5516 H         1 UNK         0.1150 
    137 H137        0.9991  -20.7793  -51.7409 H         1 UNK         0.1150 
    138 H138        3.9099  -18.1321  -50.0548 H         1 UNK         0.1150 
    139 H139        3.8076  -20.9000  -52.0339 H         1 UNK         0.0800 
    140 H140        4.5741  -20.3100  -50.5797 H         1 UNK         0.0800 
    141 H141        2.2580  -20.5626  -48.5012 H         1 UNK         0.0800 
    142 H142        3.5290  -21.5477  -47.8359 H         1 UNK         0.0800 
    143 H143        1.9243  -23.5422  -47.9805 H         1 UNK         0.0600 
    144 H144        1.4934  -21.3473  -46.0488 H         1 UNK         0.3000 
    145 H145        0.5055  -23.6262  -43.5004 H         1 UNK         0.0600 
    146 H146        2.3876  -22.5920  -42.2682 H         1 UNK         0.0600 
    147 H147        3.0032  -23.7502  -43.4360 H         1 UNK         0.0600 
    148 H148        3.1072  -22.0269  -43.7763 H         1 UNK         0.0600 
    149 H149        0.9567  -20.8206  -43.4320 H         1 UNK         0.3000 
    150 H150       -2.3047  -19.8148  -44.5033 H         1 UNK         0.0600 
    151 H151       -2.4899  -20.5687  -42.1178 H         1 UNK         0.0600 
    152 H152       -2.3386  -18.8257  -42.2650 H         1 UNK         0.0600 
    153 H153       -0.9512  -19.7893  -41.7638 H         1 UNK         0.0600 
    154 H154       -0.6265  -17.9955  -43.6940 H         1 UNK         0.3000 
    155 H155        1.8722  -17.4883  -46.0263 H         1 UNK         0.0600 
    156 H156       -0.9598  -16.3353  -46.2416 H         1 UNK         0.0600 
    157 H157        0.5054  -15.5039  -46.7589 H         1 UNK         0.0600 
    158 H158        0.0069  -16.9869  -47.5591 H         1 UNK         0.0600 
    159 H159        0.1615  -16.1184  -44.0004 H         1 UNK         0.3000 
    160 H160        2.3877  -16.3814  -41.4917 H         1 UNK         0.0600 
    161 H161        2.8298  -13.8627  -43.1472 H         1 UNK         0.0600 
    162 H162        4.0557  -14.8512  -42.3725 H         1 UNK         0.0600 
    163 H163        2.9423  -13.9167  -41.3867 H         1 UNK         0.0600 
    164 H164        0.3786  -14.4237  -42.5345 H         1 UNK         0.3000 
    165 H165       -2.2001  -16.0242  -40.6767 H         1 UNK         0.0600 
    166 H166       -2.5798  -13.8472  -39.5871 H         1 UNK         0.0600 
    167 H167       -1.1772  -14.6267  -38.8765 H         1 UNK         0.0600 
    168 H168       -0.9576  -13.3061  -40.0149 H         1 UNK         0.0600 
    169 H169       -2.4872  -13.6514  -42.0240 H         1 UNK         0.3000 
    170 H170       -3.3628  -15.1543  -45.1772 H         1 UNK         0.0600 
    171 H171       -4.4916  -13.3385  -42.9770 H         1 UNK         0.0600 
    172 H172       -5.1931  -13.6314  -44.5637 H         1 UNK         0.0600 
    173 H173       -5.1004  -14.9372  -43.3932 H         1 UNK         0.0600 
    174 H174       -2.2751  -12.5757  -44.0904 H         1 UNK         0.3000 
    175 H175       -0.1910  -12.2000  -46.8129 H         1 UNK         0.0600 
    176 H176       -1.1706   -9.9766  -47.2803 H         1 UNK         0.0600 
    177 H177       -2.6636  -10.4246  -46.4530 H         1 UNK         0.0600 
    178 H178       -2.2023  -11.2296  -47.9479 H         1 UNK         0.0600 
    179 H179       -0.6794  -10.2638  -44.9058 H         1 UNK         0.3000 
    180 H180        0.6756   -9.9023  -43.2400 H         1 UNK         0.0600 
    181 H181        0.7956  -12.3677  -41.4057 H         1 UNK         0.0600 
    182 H182       -0.5636  -11.2530  -41.5260 H         1 UNK         0.0600 
    183 H183        0.9793  -10.6932  -40.8982 H         1 UNK         0.0600 
    184 H184        2.6915  -12.0991  -43.1008 H         1 UNK         0.3000 
    185 H185        4.9867  -10.2556  -45.0185 H         1 UNK         0.0600 
    186 H186        5.7232   -9.8987  -42.6535 H         1 UNK         0.0600 
    187 H187        5.2457  -11.5421  -42.2437 H         1 UNK         0.0600 
    188 H188        6.5614  -11.2586  -43.3837 H         1 UNK         0.0600 
    189 H189        4.8906  -12.9892  -44.2378 H         1 UNK         0.3000 
    190 H190       -0.3753  -20.9173  -47.2049 H         1 UNK         0.3000 
    191 H191       -2.0600  -21.1909  -49.4552 H         1 UNK         0.0600 
    192 H192       -2.1585  -19.3106  -47.7973 H         1 UNK         0.0600 
    193 H193       -3.7341  -20.0326  -48.0906 H         1 UNK         0.0600 
    194 H194       -2.8633  -20.4133  -46.6138 H         1 UNK         0.0600 
    195 H195       -1.9854  -23.0425  -46.3899 H         1 UNK         0.3000 
    196 H196       -4.2520  -24.6752  -46.8417 H         1 UNK         0.0600 
    197 H197       -3.1584  -26.1784  -45.1556 H         1 UNK         0.0600 
    198 H198       -3.1638  -24.4988  -44.6419 H         1 UNK         0.0600 
    199 H199       -1.6835  -25.2228  -45.2671 H         1 UNK         0.0600 
    200 H200       -0.8636  -25.0304  -47.9302 H         1 UNK         0.3000 
    201 H201       -1.2248  -27.6368  -49.1386 H         1 UNK         0.0600 
    202 H202        1.0100  -26.8087  -48.3970 H         1 UNK         0.0600 
    203 H203        0.9537  -25.5306  -49.6085 H         1 UNK         0.0600 
    204 H204        1.0072  -27.2137  -50.1069 H         1 UNK         0.0600 
    205 H205       -1.3821  -24.2654  -50.2664 H         1 UNK         0.3000 
    206 H206       -1.9894  -24.8622  -53.0228 H         1 UNK         0.0600 
    207 H207       -0.8262  -22.7776  -52.2232 H         1 UNK         0.0600 
    208 H208       -2.2442  -22.4340  -53.1980 H         1 UNK         0.0600 
    209 H209       -2.3274  -22.2688  -51.4498 H         1 UNK         0.0600 
    210 H210       -3.6389  -26.4683  -51.9338 H         1 UNK         0.3000 
    211 H211       -5.6761  -27.3044  -52.0184 H         1 UNK         0.0600 
    212 H212       -6.4876  -24.8148  -53.6019 H         1 UNK         0.0600 
    213 H213       -7.3587  -26.3384  -53.5425 H         1 UNK         0.0600 
    214 H214       -5.7656  -26.2732  -54.2780 H         1 UNK         0.0600 
    215 H215       -5.1468  -26.3886  -49.5907 H         1 UNK         0.3000 
    216 H216       -6.0793  -26.0677  -47.6052 H         1 UNK         0.0600 
    217 H217       -8.3508  -26.9719  -47.3004 H         1 UNK         0.0600 
    218 H218       -7.4528  -27.9698  -48.4311 H         1 UNK         0.0600 
    219 H219       -8.6749  -26.8459  -49.0244 H         1 UNK         0.0600 
    220 H220       -5.5834  -23.6680  -48.7171 H         1 UNK         0.3000 
    221 H221       -5.8223  -21.5314  -48.3911 H         1 UNK         0.0600 
    222 H222       -8.1881  -22.0236  -46.5243 H         1 UNK         0.0600 
    223 H223       -6.4912  -22.0853  -46.0440 H         1 UNK         0.0600 
    224 H224       -7.1909  -20.5827  -46.6198 H         1 UNK         0.0600 
    225 H225       -7.5885  -23.1030  -50.4448 H         1 UNK         0.3000 
    226 H226       -9.4505  -21.0383  -51.3097 H         1 UNK         0.0600 
    227 H227       -9.6958  -23.4531  -51.9623 H         1 UNK         0.0600 
    228 H228       -9.6017  -22.3892  -53.3578 H         1 UNK         0.0600 
    229 H229       -8.2000  -23.3395  -52.8918 H         1 UNK         0.0600 
    230 H230       -6.0437  -21.4700  -51.4301 H         1 UNK         0.3000 
    231 H231       -4.3309  -20.2544  -52.0810 H         1 UNK         0.0600 
    232 H232       -6.2892  -18.0115  -52.7987 H         1 UNK         0.0600 
    233 H233       -4.5546  -17.8550  -52.5771 H         1 UNK         0.0600 
    234 H234       -5.5723  -18.2807  -51.2104 H         1 UNK         0.0600 
    235 H235       -4.6933  -22.1715  -53.6551 H         1 UNK         0.3000 
    236 H236       -5.0597  -21.6971  -56.4286 H         1 UNK         0.0600 
    237 H237       -5.0708  -23.9535  -55.3674 H         1 UNK         0.0600 
    238 H238       -3.9189  -23.8851  -56.6885 H         1 UNK         0.0600 
    239 H239       -3.3439  -23.8172  -55.0301 H         1 UNK         0.0600 
    240 H240       -2.5781  -20.5412  -54.4496 H         1 UNK         0.3000 
    241 H241       -0.4169  -20.2657  -56.3063 H         1 UNK         0.0600 
    242 H242       -3.5276  -18.5556  -56.1352 H         1 UNK         0.3800 
    243 H243       -3.0657  -17.3209  -57.2819 H         1 UNK         0.3800 
    244 H244        0.0115  -20.0805  -53.9292 H         1 UNK         0.0800 
    245 H245        0.4386  -18.5777  -54.6866 H         1 UNK         0.0800 
    246 H246       -1.8453  -18.7180  -50.9279 H         1 UNK         0.0800 
    247 H247       -1.3245  -20.1636  -51.7524 H         1 UNK         0.0800 
@<TRIPOS>BOND
     1    1    2 1    
     2    1  127 1    
     3    1  128 1    
     4    1  129 1    
     5    2    3 2    
     6    2    4 am   BACKBONE|DICT|INTERRES
     7    4    5 1    
     8    4  130 1    
     9    5    6 1    
    10    5   65 1    
    11    5  131 1    
    12    6    7 1    
    13    6  132 1    
    14    6  133 1    
    15    7    8 1    
    16    8    9 1    
    17    8  134 1    
    18    8  135 1    
    19    9   10 ar   
    20    9   14 ar   
    21   10   11 ar   
    22   10  136 1    
    23   11   12 ar   
    24   11  126 1    
    25   12   13 ar   
    26   12  137 1    
    27   13   14 ar   
    28   13   15 1    
    29   14  138 1    
    30   15   16 1    
    31   15  139 1    
    32   15  140 1    
    33   16   17 1    
    34   17   18 1    
    35   17  141 1    
    36   17  142 1    
    37   18   19 1    
    38   18   67 1    
    39   18  143 1    
    40   19   20 am   BACKBONE|DICT|INTERRES
    41   19  144 1    
    42   20   21 2    
    43   20   22 1    
    44   22   23 1    
    45   22   24 1    
    46   22  145 1    
    47   23  146 1    
    48   23  147 1    
    49   23  148 1    
    50   24   25 am   BACKBONE|DICT|INTERRES
    51   24  149 1    
    52   25   26 2    
    53   25   27 1    
    54   27   28 1    
    55   27   29 1    
    56   27  150 1    
    57   28  151 1    
    58   28  152 1    
    59   28  153 1    
    60   29   30 am   BACKBONE|DICT|INTERRES
    61   29  154 1    
    62   30   31 2    
    63   30   32 1    
    64   32   33 1    
    65   32   34 1    
    66   32  155 1    
    67   33  156 1    
    68   33  157 1    
    69   33  158 1    
    70   34   35 am   BACKBONE|DICT|INTERRES
    71   34  159 1    
    72   35   36 2    
    73   35   37 1    
    74   37   38 1    
    75   37   39 1    
    76   37  160 1    
    77   38  161 1    
    78   38  162 1    
    79   38  163 1    
    80   39   40 am   BACKBONE|DICT|INTERRES
    81   39  164 1    
    82   40   41 2    
    83   40   42 1    
    84   42   43 1    
    85   42   44 1    
    86   42  165 1    
    87   43  166 1    
    88   43  167 1    
    89   43  168 1    
    90   44   45 am   BACKBONE|DICT|INTERRES
    91   44  169 1    
    92   45   46 2    
    93   45   47 1    
    94   47   48 1    
    95   47   49 1    
    96   47  170 1    
    97   48  171 1    
    98   48  172 1    
    99   48  173 1    
   100   49   50 am   BACKBONE|DICT|INTERRES
   101   49  174 1    
   102   50   51 2    
   103   50   52 1    
   104   52   53 1    
   105   52   54 1    
   106   52  175 1    
   107   53  176 1    
   108   53  177 1    
   109   53  178 1    
   110   54   55 am   BACKBONE|DICT|INTERRES
   111   54  179 1    
   112   55   56 2    
   113   55   57 1    
   114   57   58 1    
   115   57   59 1    
   116   57  180 1    
   117   58  181 1    
   118   58  182 1    
   119   58  183 1    
   120   59   60 am   BACKBONE|DICT|INTERRES
   121   59  184 1    
   122   60   61 2    
   123   60   62 1    
   124   62   63 1    
   125   62   64 1    
   126   62  185 1    
   127   63  186 1    
   128   63  187 1    
   129   63  188 1    
   130   64   65 am   BACKBONE|DICT|INTERRES
   131   64  189 1    
   132   65   66 2    
   133   67   68 2    
   134   67   69 am   BACKBONE|DICT|INTERRES
   135   69   70 1    
   136   69  190 1    
   137   70   71 1    
   138   70   72 1    
   139   70  191 1    
   140   71  192 1    
   141   71  193 1    
   142   71  194 1    
   143   72   73 2    
   144   72   74 am   BACKBONE|DICT|INTERRES
   145   74   75 1    
   146   74  195 1    
   147   75   76 1    
   148   75   77 1    
   149   75  196 1    
   150   76  197 1    
   151   76  198 1    
   152   76  199 1    
   153   77   78 2    
   154   77   79 am   BACKBONE|DICT|INTERRES
   155   79   80 1    
   156   79  200 1    
   157   80   81 1    
   158   80   82 1    
   159   80  201 1    
   160   81  202 1    
   161   81  203 1    
   162   81  204 1    
   163   82   83 2    
   164   82   84 am   BACKBONE|DICT|INTERRES
   165   84   85 1    
   166   84  205 1    
   167   85   86 1    
   168   85   87 1    
   169   85  206 1    
   170   86  207 1    
   171   86  208 1    
   172   86  209 1    
   173   87   88 2    
   174   87   89 am   BACKBONE|DICT|INTERRES
   175   89   90 1    
   176   89  210 1    
   177   90   91 1    
   178   90   92 1    
   179   90  211 1    
   180   91  212 1    
   181   91  213 1    
   182   91  214 1    
   183   92   93 2    
   184   92   94 am   BACKBONE|DICT|INTERRES
   185   94   95 1    
   186   94  215 1    
   187   95   96 1    
   188   95   97 1    
   189   95  216 1    
   190   96  217 1    
   191   96  218 1    
   192   96  219 1    
   193   97   98 2    
   194   97   99 am   BACKBONE|DICT|INTERRES
   195   99  100 1    
   196   99  220 1    
   197  100  101 1    
   198  100  102 1    
   199  100  221 1    
   200  101  222 1    
   201  101  223 1    
   202  101  224 1    
   203  102  103 2    
   204  102  104 am   BACKBONE|DICT|INTERRES
   205  104  105 1    
   206  104  225 1    
   207  105  106 1    
   208  105  107 1    
   209  105  226 1    
   210  106  227 1    
   211  106  228 1    
   212  106  229 1    
   213  107  108 2    
   214  107  109 am   BACKBONE|DICT|INTERRES
   215  109  110 1    
   216  109  230 1    
   217  110  111 1    
   218  110  112 1    
   219  110  231 1    
   220  111  232 1    
   221  111  233 1    
   222  111  234 1    
   223  112  113 2    
   224  112  114 am   BACKBONE|DICT|INTERRES
   225  114  115 1    
   226  114  235 1    
   227  115  116 1    
   228  115  117 1    
   229  115  236 1    
   230  116  237 1    
   231  116  238 1    
   232  116  239 1    
   233  117  118 2    
   234  117  119 am   BACKBONE|DICT|INTERRES
   235  119  120 1    
   236  119  240 1    
   237  120  121 1    
   238  120  124 1    
   239  120  241 1    
   240  121  122 am   BACKBONE|DICT|INTERRES
   241  121  123 2    
   242  122  242 1    
   243  122  243 1    
   244  124  125 1    
   245  124  244 1    
   246  124  245 1    
   247  125  126 1    
   248  126  246 1    
   249  126  247 1    
@<TRIPOS>SUBSTRUCTURE
     1 UNK         1 GROUP             0       ****    0 ROOT    
