@<TRIPOS>MOLECULE
3R540
247   249    1
SMALL
USER_CHARGES


@<TRIPOS>ATOM
      1 CA         -1.4444  -11.4697  -51.2580 C.3       0 UNK        -0.1800 
      2 C          -1.4456  -12.1452  -49.8948 C.2       0 UNK         0.5000 
      3 O          -0.8523  -13.2102  -49.7374 O.2       0 UNK        -0.5000 
      4 N          -2.0932  -11.5266  -48.9004 N.am      1 UNK        -0.5000 
      5 CA         -2.2297  -12.0173  -47.5222 C.3       1 UNK         0.1400 
      6 C6         -3.5634  -11.5201  -46.9019 C.3       23 UNK        -0.0398 
      7 S7         -4.2434  -12.6270  -45.6185 S.3       23 UNK        -0.2404 
      8 C8         -5.3036  -13.7523  -46.5879 C.3       23 UNK        -0.0205 
      9 C9         -4.6127  -15.0861  -46.8221 C.ar      23 UNK        -0.0193 
     10 C10        -3.8178  -15.2892  -47.9542 C.ar      23 UNK        -0.1150 
     11 C11        -3.1263  -16.4916  -48.1271 C.ar      23 UNK        -0.0193 
     12 C12        -3.2655  -17.5072  -47.1790 C.ar      23 UNK        -0.1150 
     13 C13        -4.0817  -17.3290  -46.0601 C.ar      23 UNK        -0.0193 
     14 C14        -4.7520  -16.1153  -45.8863 C.ar      23 UNK        -0.1150 
     15 C15        -4.2191  -18.4345  -45.0270 C.3       23 UNK        -0.0205 
     16 S16        -3.2077  -18.0648  -43.5659 S.3       23 UNK        -0.2404 
     17 C17        -3.4137  -19.5778  -42.5728 C.3       23 UNK        -0.0398 
     18 CA         -2.1141  -20.4341  -42.5483 C.3       11 UNK         0.1400 
     19 N          -1.7409  -20.8775  -41.2024 N.am      11 UNK        -0.5000 
     20 C          -2.4475  -21.6865  -40.3984 C.2       10 UNK         0.5000 
     21 O          -3.5563  -22.1344  -40.6916 O.2       10 UNK        -0.5000 
     22 CA         -1.8107  -22.0834  -39.0480 C.3       10 UNK         0.1400 
     23 CB         -1.4453  -23.5769  -39.0513 C.3       10 UNK        -0.1800 
     24 N          -0.6069  -21.3160  -38.7226 N.am      10 UNK        -0.5000 
     25 C          -0.5842  -20.0404  -38.3113 C.2       9 UNK         0.5000 
     26 O          -1.5952  -19.3875  -38.0522 O.2       9 UNK        -0.5000 
     27 CA          0.8041  -19.3720  -38.2141 C.3       9 UNK         0.1400 
     28 CB          1.3130  -19.3980  -36.7648 C.3       9 UNK        -0.1800 
     29 N           1.8166  -19.9796  -39.0888 N.am      9 UNK        -0.5000 
     30 C           1.7590  -20.0040  -40.4271 C.2       8 UNK         0.5000 
     31 O           0.8373  -19.5090  -41.0810 O.2       8 UNK        -0.5000 
     32 CA          2.8764  -20.7685  -41.1466 C.3       8 UNK         0.1400 
     33 CB          2.6660  -22.2886  -41.0146 C.3       8 UNK        -0.1800 
     34 N           2.8678  -20.3935  -42.5549 N.am      8 UNK        -0.5000 
     35 C           3.8973  -20.4814  -43.3997 C.2       7 UNK         0.5000 
     36 O           5.0014  -20.9194  -43.0728 O.2       7 UNK        -0.5000 
     37 CA          3.6916  -19.9864  -44.8454 C.3       7 UNK         0.1400 
     38 CB          3.4835  -21.1679  -45.8131 C.3       7 UNK        -0.1800 
     39 N           2.6497  -18.9680  -45.0267 N.am      7 UNK        -0.5000 
     40 C           1.3162  -19.0911  -44.9584 C.2       6 UNK         0.5000 
     41 O           0.7364  -20.1066  -44.5789 O.2       6 UNK        -0.5000 
     42 CA          0.4920  -17.8636  -45.3939 C.3       6 UNK         0.1400 
     43 CB          0.2154  -16.9541  -44.1885 C.3       6 UNK        -0.1800 
     44 N           1.1426  -17.0807  -46.4485 N.am      6 UNK        -0.5000 
     45 C           1.4314  -17.5254  -47.6817 C.2       5 UNK         0.5000 
     46 O           1.1014  -18.6297  -48.1103 O.2       5 UNK        -0.5000 
     47 CA          2.2662  -16.5924  -48.5750 C.3       5 UNK         0.1400 
     48 CB          1.3809  -15.5449  -49.2639 C.3       5 UNK        -0.1800 
     49 N           3.3145  -15.9185  -47.8101 N.am      5 UNK        -0.5000 
     50 C           4.4762  -16.4862  -47.4560 C.2       4 UNK         0.5000 
     51 O           4.8096  -17.6257  -47.7804 O.2       4 UNK        -0.5000 
     52 CA          5.4210  -15.6446  -46.5765 C.3       4 UNK         0.1400 
     53 CB          6.3768  -14.8189  -47.4508 C.3       4 UNK        -0.1800 
     54 N           4.7058  -14.7460  -45.6691 N.am      4 UNK        -0.5000 
     55 C           3.9680  -15.1493  -44.6253 C.2       3 UNK         0.5000 
     56 O           3.8451  -16.3276  -44.2913 O.2       3 UNK        -0.5000 
     57 CA          3.2000  -14.0516  -43.8620 C.3       3 UNK         0.1400 
     58 CB          4.0774  -13.4514  -42.7538 C.3       3 UNK        -0.1800 
     59 N           2.7105  -12.9757  -44.7322 N.am      3 UNK        -0.5000 
     60 C           1.8306  -13.1476  -45.7275 C.2       2 UNK         0.5000 
     61 O           1.3444  -14.2416  -46.0225 O.2       2 UNK        -0.5000 
     62 CA          1.5077  -11.9117  -46.5814 C.3       2 UNK         0.1400 
     63 CB          2.5662  -11.7448  -47.6834 C.3       2 UNK        -0.1800 
     64 N           0.2011  -12.0513  -47.2174 N.am      2 UNK        -0.5000 
     65 C          -0.9712  -11.7015  -46.6764 C.2       1 UNK         0.5000 
     66 O          -1.0693  -11.1337  -45.5869 O.2       1 UNK        -0.5000 
     67 C          -2.0938  -21.6072  -43.5563 C.2       11 UNK         0.5000 
     68 O          -2.9544  -21.7075  -44.4333 O.2       11 UNK        -0.5000 
     69 N          -1.0985  -22.4922  -43.4001 N.am      12 UNK        -0.5000 
     70 CA         -0.8684  -23.7026  -44.1897 C.3       12 UNK         0.1400 
     71 CB          0.0285  -24.6502  -43.3728 C.3       12 UNK        -0.1800 
     72 C          -0.2928  -23.4024  -45.5917 C.2       12 UNK         0.5000 
     73 O           0.7448  -23.9456  -45.9729 O.2       12 UNK        -0.5000 
     74 N          -0.9949  -22.5571  -46.3522 N.am      13 UNK        -0.5000 
     75 CA         -0.6269  -22.0545  -47.6779 C.3       13 UNK         0.1400 
     76 CB         -1.3684  -20.7264  -47.8958 C.3       13 UNK        -0.1800 
     77 C          -0.9032  -23.0517  -48.8251 C.2       13 UNK         0.5000 
     78 O          -1.2058  -22.6237  -49.9402 O.2       13 UNK        -0.5000 
     79 N          -0.8407  -24.3602  -48.5360 N.am      14 UNK        -0.5000 
     80 CA         -1.1068  -25.4848  -49.4427 C.3       14 UNK         0.1400 
     81 CB          0.0265  -25.6112  -50.4822 C.3       14 UNK        -0.1800 
     82 C          -2.5062  -25.4088  -50.0912 C.2       14 UNK         0.5000 
     83 O          -2.6372  -25.5953  -51.3011 O.2       14 UNK        -0.5000 
     84 N          -3.5194  -25.0807  -49.2735 N.am      15 UNK        -0.5000 
     85 CA         -4.9132  -24.8255  -49.6627 C.3       15 UNK         0.1400 
     86 CB         -5.5918  -26.1210  -50.1568 C.3       15 UNK        -0.1800 
     87 C          -5.0320  -23.6608  -50.6694 C.2       15 UNK         0.5000 
     88 O          -5.7056  -23.7900  -51.6922 O.2       15 UNK        -0.5000 
     89 N          -4.3292  -22.5579  -50.3703 N.am      16 UNK        -0.5000 
     90 CA         -4.1703  -21.3566  -51.1978 C.3       16 UNK         0.1400 
     91 CB         -5.5041  -20.5906  -51.3228 C.3       16 UNK        -0.1800 
     92 C          -3.5294  -21.6796  -52.5622 C.2       16 UNK         0.5000 
     93 O          -4.0497  -21.2738  -53.6047 O.2       16 UNK        -0.5000 
     94 N          -2.4132  -22.4203  -52.5150 N.am      17 UNK        -0.5000 
     95 CA         -1.6477  -22.9517  -53.6470 C.3       17 UNK         0.1400 
     96 CB         -0.9459  -21.8087  -54.4094 C.3       17 UNK        -0.1800 
     97 C          -2.4986  -23.8613  -54.5589 C.2       17 UNK         0.5000 
     98 O          -2.4798  -23.7069  -55.7800 O.2       17 UNK        -0.5000 
     99 N          -3.2412  -24.7848  -53.9320 N.am      18 UNK        -0.5000 
    100 CA        -4.2174  -25.7005  -54.5284 C.3       18 UNK         0.1400 
    101 CB        -3.5178  -26.7394  -55.4297 C.3       18 UNK        -0.1800 
    102 C         -5.3659  -24.9484  -55.2332 C.2       18 UNK         0.5000 
    103 O         -5.6638  -25.2160  -56.3991 O.2       18 UNK        -0.5000 
    104 N         -5.9820  -24.0150  -54.4931 N.am      19 UNK        -0.5000 
    105 CA        -7.0885  -23.1414  -54.8917 C.3       19 UNK         0.1400 
    106 CB        -8.3798  -23.9606  -55.0974 C.3       19 UNK        -0.1800 
    107 C         -6.7427  -22.2349  -56.0921 C.2       19 UNK         0.5000 
    108 O         -7.5460  -22.0947  -57.0166 O.2       19 UNK        -0.5000 
    109 N         -5.5524  -21.6253  -56.0451 N.am      20 UNK        -0.5000 
    110 CA        -5.0275  -20.7053  -57.0564 C.3       20 UNK         0.1400 
    111 CB        -3.7367  -21.2929  -57.6507 C.3       20 UNK        -0.1800 
    112 C         -4.7993  -19.3034  -56.4603 C.2       20 UNK         0.5000 
    113 O         -3.9456  -18.5617  -56.9508 O.2       20 UNK        -0.5000 
    114 N         -5.5470  -18.9714  -55.3952 N.am      21 UNK        -0.5000 
    115 CA        -5.5277  -17.7031  -54.6541 C.3       21 UNK         0.1400 
    116 CB        -6.1475  -16.5770  -55.5074 C.3       21 UNK        -0.1800 
    117 C         -4.1314  -17.3391  -54.1032 C.2       21 UNK         0.5000 
    118 O         -3.7594  -16.1645  -54.0851 O.2       21 UNK        -0.5000 
    119 N         -3.3834  -18.3694  -53.6869 N.am      22 UNK        -0.5000 
    120 CA        -1.9923  -18.3068  -53.2062 C.3       22 UNK         0.1400 
    121 C         -0.9372  -18.0416  -54.3242 C.2       22 UNK         0.5000 
    122 N         -1.2891  -18.0726  -55.6051 N.am      22 UNK        -0.7600 
    123 O          0.2367  -17.8363  -54.0287 O.2       22 UNK        -0.5000 
    124 C124       -1.7878  -17.3788  -51.9739 C.3       23 UNK        -0.0398 
    125 S125       -2.9601  -17.6970  -50.6117 S.3       23 UNK        -0.2404 
    126 C126       -2.1985  -16.6813  -49.3143 C.3       23 UNK        -0.0205 
    127 H127       -0.4223  -11.2479  -51.5648 H         1 UNK         0.0600 
    128 H128       -2.0082  -10.5366  -51.2492 H         1 UNK         0.0600 
    129 H129       -1.8895  -12.1298  -52.0025 H         1 UNK         0.0600 
    130 H130       -2.5204  -10.6297  -49.0840 H         1 UNK         0.3000 
    131 H131       -2.2724  -13.1051  -47.5657 H         1 UNK         0.0600 
    132 H132       -3.4529  -10.5193  -46.4811 H         1 UNK         0.0800 
    133 H133       -4.3226  -11.4126  -47.6775 H         1 UNK         0.0800 
    134 H134       -6.2327  -13.9132  -46.0388 H         1 UNK         0.0800 
    135 H135       -5.5933  -13.3016  -47.5378 H         1 UNK         0.0800 
    136 H136       -3.7137  -14.5017  -48.6872 H         1 UNK         0.1150 
    137 H137       -2.7327  -18.4345  -47.3131 H         1 UNK         0.1150 
    138 H138       -5.3638  -15.9645  -45.0078 H         1 UNK         0.1150 
    139 H139       -5.2644  -18.5399  -44.7330 H         1 UNK         0.0800 
    140 H140       -3.9140  -19.3921  -45.4513 H         1 UNK         0.0800 
    141 H141       -4.2862  -20.1460  -42.8996 H         1 UNK         0.0800 
    142 H142       -3.6598  -19.2388  -41.5657 H         1 UNK         0.0800 
    143 H143       -1.2821  -19.7957  -42.8467 H         1 UNK         0.0600 
    144 H144       -0.8480  -20.5223  -40.8774 H         1 UNK         0.3000 
    145 H145       -2.5566  -21.9115  -38.2693 H         1 UNK         0.0600 
    146 H146       -1.0440  -23.8874  -38.0864 H         1 UNK         0.0600 
    147 H147       -2.3219  -24.1950  -39.2497 H         1 UNK         0.0600 
    148 H148       -0.7018  -23.8080  -39.8154 H         1 UNK         0.0600 
    149 H149        0.2764  -21.7747  -38.8875 H         1 UNK         0.3000 
    150 H150        0.6844  -18.3296  -38.5168 H         1 UNK         0.0600 
    151 H151        0.5957  -18.9287  -36.0901 H         1 UNK         0.0600 
    152 H152        2.2526  -18.8541  -36.6663 H         1 UNK         0.0600 
    153 H153        1.4753  -20.4178  -36.4134 H         1 UNK         0.0600 
    154 H154        2.6008  -20.4164  -38.6253 H         1 UNK         0.3000 
    155 H155        3.8314  -20.4836  -40.7003 H         1 UNK         0.0600 
    156 H156        2.6923  -22.6028  -39.9707 H         1 UNK         0.0600 
    157 H157        3.4459  -22.8442  -41.5357 H         1 UNK         0.0600 
    158 H158        1.7052  -22.5974  -41.4275 H         1 UNK         0.0600 
    159 H159        1.9860  -20.0234  -42.8952 H         1 UNK         0.3000 
    160 H160        4.6216  -19.4925  -45.1313 H         1 UNK         0.0600 
    161 H161        2.5898  -21.7428  -45.5686 H         1 UNK         0.0600 
    162 H162        4.3298  -21.8547  -45.7766 H         1 UNK         0.0600 
    163 H163        3.3884  -20.8217  -46.8425 H         1 UNK         0.0600 
    164 H164        3.0059  -18.0402  -45.2255 H         1 UNK         0.3000 
    165 H165       -0.4651  -18.2195  -45.7781 H         1 UNK         0.0600 
    166 H166       -0.4498  -16.1332  -44.4579 H         1 UNK         0.0600 
    167 H167       -0.2596  -17.5091  -43.3790 H         1 UNK         0.0600 
    168 H168        1.1343  -16.5275  -43.7889 H         1 UNK         0.0600 
    169 H169        1.3820  -16.1208  -46.2144 H         1 UNK         0.3000 
    170 H170        2.7352  -17.1982  -49.3535 H         1 UNK         0.0600 
    171 H171        0.6731  -16.0205  -49.9425 H         1 UNK         0.0600 
    172 H172        0.8045  -14.9653  -48.5428 H         1 UNK         0.0600 
    173 H173        1.9744  -14.8484  -49.8560 H         1 UNK         0.0600 
    174 H174        3.0940  -15.0003  -47.4543 H         1 UNK         0.3000 
    175 H175        6.0167  -16.3343  -45.9746 H         1 UNK         0.0600 
    176 H176        5.8390  -14.0936  -48.0628 H         1 UNK         0.0600 
    177 H177        7.0989  -14.2752  -46.8413 H         1 UNK         0.0600 
    178 H178        6.9426  -15.4626  -48.1258 H         1 UNK         0.0600 
    179 H179        4.7587  -13.7582  -45.8685 H         1 UNK         0.3000 
    180 H180        2.3332  -14.5190  -43.3916 H         1 UNK         0.0600 
    181 H181        4.9499  -12.9396  -43.1619 H         1 UNK         0.0600 
    182 H182        4.4385  -14.2283  -42.0784 H         1 UNK         0.0600 
    183 H183        3.5180  -12.7348  -42.1521 H         1 UNK         0.0600 
    184 H184        3.0789  -12.0519  -44.5558 H         1 UNK         0.3000 
    185 H185        1.5153  -11.0247  -45.9444 H         1 UNK         0.0600 
    186 H186        3.5621  -11.6146  -47.2584 H         1 UNK         0.0600 
    187 H187        2.6008  -12.6114  -48.3452 H         1 UNK         0.0600 
    188 H188        2.3595  -10.8669  -48.2958 H         1 UNK         0.0600 
    189 H189        0.1742  -12.5548  -48.0975 H         1 UNK         0.3000 
    190 H190       -0.4107  -22.2947  -42.6900 H         1 UNK         0.3000 
    191 H191       -1.8284  -24.2010  -44.3386 H         1 UNK         0.0600 
    192 H192       -0.4122  -24.8726  -42.4007 H         1 UNK         0.0600 
    193 H193        0.1666  -25.6009  -43.8892 H         1 UNK         0.0600 
    194 H194        1.0174  -24.2219  -43.2041 H         1 UNK         0.0600 
    195 H195       -1.8363  -22.1663  -45.9385 H         1 UNK         0.3000 
    196 H196        0.4450  -21.8461  -47.6843 H         1 UNK         0.0600 
    197 H197       -1.0725  -20.2497  -48.8314 H         1 UNK         0.0600 
    198 H198       -1.1352  -20.0284  -47.0937 H         1 UNK         0.0600 
    199 H199       -2.4498  -20.8650  -47.9204 H         1 UNK         0.0600 
    200 H200       -0.5388  -24.6049  -47.6013 H         1 UNK         0.3000 
    201 H201       -1.1000  -26.3888  -48.8325 H         1 UNK         0.0600 
    202 H202        0.9980  -25.6981  -49.9958 H         1 UNK         0.0600 
    203 H203        0.0630  -24.7497  -51.1495 H         1 UNK         0.0600 
    204 H204       -0.1060  -26.4994  -51.1011 H         1 UNK         0.0600 
    205 H205       -3.3041  -24.9368  -48.2971 H         1 UNK         0.3000 
    206 H206       -5.4357  -24.5043  -48.7606 H         1 UNK         0.0600 
    207 H207       -5.5068  -26.9168  -49.4170 H         1 UNK         0.0600 
    208 H208       -6.6550  -25.9590  -50.3377 H         1 UNK         0.0600 
    209 H209       -5.1552  -26.4818  -51.0884 H         1 UNK         0.0600 
    210 H210       -3.7620  -22.5808  -49.5357 H         1 UNK         0.3000 
    211 H211       -3.4650  -20.7115  -50.6723 H         1 UNK         0.0600 
    212 H212       -6.2485  -21.1545  -51.8855 H         1 UNK         0.0600 
    213 H213       -5.3596  -19.6386  -51.8342 H         1 UNK         0.0600 
    214 H214       -5.9221  -20.3680  -50.3414 H         1 UNK         0.0600 
    215 H215       -2.0499  -22.6611  -51.5945 H         1 UNK         0.3000 
    216 H216       -0.8717  -23.5888  -53.2209 H         1 UNK         0.0600 
    217 H217       -0.3108  -22.2002  -55.2046 H         1 UNK         0.0600 
    218 H218       -0.3076  -21.2273  -53.7443 H         1 UNK         0.0600 
    219 H219       -1.6612  -21.1270  -54.8692 H         1 UNK         0.0600 
    220 H220       -3.1343  -24.8736  -52.9232 H         1 UNK         0.3000 
    221 H221       -4.6711  -26.2421  -53.6970 H         1 UNK         0.0600 
    222 H222       -3.0658  -26.2788  -56.3085 H         1 UNK         0.0600 
    223 H223       -2.7336  -27.2663  -54.8862 H         1 UNK         0.0600 
    224 H224       -4.2276  -27.4883  -55.7827 H         1 UNK         0.0600 
    225 H225       -5.6791  -23.8961  -53.5277 H         1 UNK         0.3000 
    226 H226       -7.2585  -22.4716  -54.0475 H         1 UNK         0.0600 
    227 H227       -8.6072  -24.5629  -54.2179 H         1 UNK         0.0600 
    228 H228       -9.2346  -23.3060  -55.2707 H         1 UNK         0.0600 
    229 H229       -8.3029  -24.6318  -55.9532 H         1 UNK         0.0600 
    230 H230       -4.9652  -21.7554  -55.2239 H         1 UNK         0.3000 
    231 H231       -5.7441  -20.5811  -57.8701 H         1 UNK         0.0600 
    232 H232       -2.9343  -21.3188  -56.9137 H         1 UNK         0.0600 
    233 H233       -3.3867  -20.6995  -58.4959 H         1 UNK         0.0600 
    234 H234       -3.8941  -22.3101  -58.0101 H         1 UNK         0.0600 
    235 H235       -6.1882  -19.6707  -55.0500 H         1 UNK         0.3000 
    236 H236       -6.1668  -17.8466  -53.7818 H         1 UNK         0.0600 
    237 H237       -7.1395  -16.8535  -55.8644 H         1 UNK         0.0600 
    238 H238       -6.2573  -15.6600  -54.9274 H         1 UNK         0.0600 
    239 H239       -5.5314  -16.3434  -56.3763 H         1 UNK         0.0600 
    240 H240       -3.7666  -19.3044  -53.7797 H         1 UNK         0.3000 
    241 H241       -1.7700  -19.3180  -52.8675 H         1 UNK         0.0600 
    242 H242       -0.5874  -17.9099  -56.3092 H         1 UNK         0.3800 
    243 H243       -2.2503  -18.2275  -55.8891 H         1 UNK         0.3800 
    244 H244       -0.7780  -17.5042  -51.5794 H         1 UNK         0.0800 
    245 H245       -1.8702  -16.3301  -52.2630 H         1 UNK         0.0800 
    246 H246       -1.2770  -17.1601  -48.9825 H         1 UNK         0.0800 
    247 H247       -1.9155  -15.7121  -49.7276 H         1 UNK         0.0800 
@<TRIPOS>BOND
     1    1    2 1    
     2    1  127 1    
     3    1  128 1    
     4    1  129 1    
     5    2    3 2    
     6    2    4 am   BACKBONE|DICT|INTERRES
     7    4    5 1    
     8    4  130 1    
     9    5    6 1    
    10    5   65 1    
    11    5  131 1    
    12    6    7 1    
    13    6  132 1    
    14    6  133 1    
    15    7    8 1    
    16    8    9 1    
    17    8  134 1    
    18    8  135 1    
    19    9   10 ar   
    20    9   14 ar   
    21   10   11 ar   
    22   10  136 1    
    23   11   12 ar   
    24   11  126 1    
    25   12   13 ar   
    26   12  137 1    
    27   13   14 ar   
    28   13   15 1    
    29   14  138 1    
    30   15   16 1    
    31   15  139 1    
    32   15  140 1    
    33   16   17 1    
    34   17   18 1    
    35   17  141 1    
    36   17  142 1    
    37   18   19 1    
    38   18   67 1    
    39   18  143 1    
    40   19   20 am   BACKBONE|DICT|INTERRES
    41   19  144 1    
    42   20   21 2    
    43   20   22 1    
    44   22   23 1    
    45   22   24 1    
    46   22  145 1    
    47   23  146 1    
    48   23  147 1    
    49   23  148 1    
    50   24   25 am   BACKBONE|DICT|INTERRES
    51   24  149 1    
    52   25   26 2    
    53   25   27 1    
    54   27   28 1    
    55   27   29 1    
    56   27  150 1    
    57   28  151 1    
    58   28  152 1    
    59   28  153 1    
    60   29   30 am   BACKBONE|DICT|INTERRES
    61   29  154 1    
    62   30   31 2    
    63   30   32 1    
    64   32   33 1    
    65   32   34 1    
    66   32  155 1    
    67   33  156 1    
    68   33  157 1    
    69   33  158 1    
    70   34   35 am   BACKBONE|DICT|INTERRES
    71   34  159 1    
    72   35   36 2    
    73   35   37 1    
    74   37   38 1    
    75   37   39 1    
    76   37  160 1    
    77   38  161 1    
    78   38  162 1    
    79   38  163 1    
    80   39   40 am   BACKBONE|DICT|INTERRES
    81   39  164 1    
    82   40   41 2    
    83   40   42 1    
    84   42   43 1    
    85   42   44 1    
    86   42  165 1    
    87   43  166 1    
    88   43  167 1    
    89   43  168 1    
    90   44   45 am   BACKBONE|DICT|INTERRES
    91   44  169 1    
    92   45   46 2    
    93   45   47 1    
    94   47   48 1    
    95   47   49 1    
    96   47  170 1    
    97   48  171 1    
    98   48  172 1    
    99   48  173 1    
   100   49   50 am   BACKBONE|DICT|INTERRES
   101   49  174 1    
   102   50   51 2    
   103   50   52 1    
   104   52   53 1    
   105   52   54 1    
   106   52  175 1    
   107   53  176 1    
   108   53  177 1    
   109   53  178 1    
   110   54   55 am   BACKBONE|DICT|INTERRES
   111   54  179 1    
   112   55   56 2    
   113   55   57 1    
   114   57   58 1    
   115   57   59 1    
   116   57  180 1    
   117   58  181 1    
   118   58  182 1    
   119   58  183 1    
   120   59   60 am   BACKBONE|DICT|INTERRES
   121   59  184 1    
   122   60   61 2    
   123   60   62 1    
   124   62   63 1    
   125   62   64 1    
   126   62  185 1    
   127   63  186 1    
   128   63  187 1    
   129   63  188 1    
   130   64   65 am   BACKBONE|DICT|INTERRES
   131   64  189 1    
   132   65   66 2    
   133   67   68 2    
   134   67   69 am   BACKBONE|DICT|INTERRES
   135   69   70 1    
   136   69  190 1    
   137   70   71 1    
   138   70   72 1    
   139   70  191 1    
   140   71  192 1    
   141   71  193 1    
   142   71  194 1    
   143   72   73 2    
   144   72   74 am   BACKBONE|DICT|INTERRES
   145   74   75 1    
   146   74  195 1    
   147   75   76 1    
   148   75   77 1    
   149   75  196 1    
   150   76  197 1    
   151   76  198 1    
   152   76  199 1    
   153   77   78 2    
   154   77   79 am   BACKBONE|DICT|INTERRES
   155   79   80 1    
   156   79  200 1    
   157   80   81 1    
   158   80   82 1    
   159   80  201 1    
   160   81  202 1    
   161   81  203 1    
   162   81  204 1    
   163   82   83 2    
   164   82   84 am   BACKBONE|DICT|INTERRES
   165   84   85 1    
   166   84  205 1    
   167   85   86 1    
   168   85   87 1    
   169   85  206 1    
   170   86  207 1    
   171   86  208 1    
   172   86  209 1    
   173   87   88 2    
   174   87   89 am   BACKBONE|DICT|INTERRES
   175   89   90 1    
   176   89  210 1    
   177   90   91 1    
   178   90   92 1    
   179   90  211 1    
   180   91  212 1    
   181   91  213 1    
   182   91  214 1    
   183   92   93 2    
   184   92   94 am   BACKBONE|DICT|INTERRES
   185   94   95 1    
   186   94  215 1    
   187   95   96 1    
   188   95   97 1    
   189   95  216 1    
   190   96  217 1    
   191   96  218 1    
   192   96  219 1    
   193   97   98 2    
   194   97   99 am   BACKBONE|DICT|INTERRES
   195   99  100 1    
   196   99  220 1    
   197  100  101 1    
   198  100  102 1    
   199  100  221 1    
   200  101  222 1    
   201  101  223 1    
   202  101  224 1    
   203  102  103 2    
   204  102  104 am   BACKBONE|DICT|INTERRES
   205  104  105 1    
   206  104  225 1    
   207  105  106 1    
   208  105  107 1    
   209  105  226 1    
   210  106  227 1    
   211  106  228 1    
   212  106  229 1    
   213  107  108 2    
   214  107  109 am   BACKBONE|DICT|INTERRES
   215  109  110 1    
   216  109  230 1    
   217  110  111 1    
   218  110  112 1    
   219  110  231 1    
   220  111  232 1    
   221  111  233 1    
   222  111  234 1    
   223  112  113 2    
   224  112  114 am   BACKBONE|DICT|INTERRES
   225  114  115 1    
   226  114  235 1    
   227  115  116 1    
   228  115  117 1    
   229  115  236 1    
   230  116  237 1    
   231  116  238 1    
   232  116  239 1    
   233  117  118 2    
   234  117  119 am   BACKBONE|DICT|INTERRES
   235  119  120 1    
   236  119  240 1    
   237  120  121 1    
   238  120  124 1    
   239  120  241 1    
   240  121  122 am   BACKBONE|DICT|INTERRES
   241  121  123 2    
   242  122  242 1    
   243  122  243 1    
   244  124  125 1    
   245  124  244 1    
   246  124  245 1    
   247  125  126 1    
   248  126  246 1    
   249  126  247 1    
@<TRIPOS>SUBSTRUCTURE
     1 UNK         1 GROUP             0       ****    0 ROOT    
