@<TRIPOS>MOLECULE
3R540
247   249    1
SMALL
USER_CHARGES


@<TRIPOS>ATOM
      1 CA         -0.1112  -16.3470  -52.2089 C.3       0 UNK        -0.1800 
      2 C           0.8094  -15.1950  -52.5639 C.2       0 UNK         0.5000 
      3 O           0.3358  -14.0957  -52.8499 O.2       0 UNK        -0.5000 
      4 N           2.1236  -15.4435  -52.5294 N.am      1 UNK        -0.5000 
      5 CA          3.1767  -14.4467  -52.7568 C.3       1 UNK         0.1400 
      6 C6          4.5789  -15.0917  -52.8615 C.3       23 UNK        -0.0398 
      7 S7          4.6771  -16.3778  -54.1547 S.3       23 UNK        -0.2404 
      8 C8          5.0630  -17.8683  -53.1810 C.3       23 UNK        -0.0205 
      9 C9          3.8195  -18.5489  -52.6231 C.ar      23 UNK        -0.0193 
     10 C10         3.1602  -19.5191  -53.3836 C.ar      23 UNK        -0.1150 
     11 C11         2.0759  -20.2255  -52.8557 C.ar      23 UNK        -0.0193 
     12 C12         1.6441  -19.9426  -51.5571 C.ar      23 UNK        -0.1150 
     13 C13         2.2656  -18.9444  -50.7962 C.ar      23 UNK        -0.0193 
     14 C14         3.3616  -18.2594  -51.3331 C.ar      23 UNK        -0.1150 
     15 C15         1.7969  -18.6412  -49.3766 C.3       23 UNK        -0.0205 
     16 S16        -0.0212  -18.5441  -49.2310 S.3       23 UNK        -0.2404 
     17 C17        -0.2554  -18.9809  -47.4782 C.3       23 UNK        -0.0398 
     18 CA         -0.1657  -20.5041  -47.2203 C.3       11 UNK         0.1400 
     19 N           0.0829  -20.7993  -45.8105 N.am      11 UNK        -0.5000 
     20 C           0.4823  -21.9869  -45.3373 C.2       10 UNK         0.5000 
     21 O           0.7147  -22.9608  -46.0508 O.2       10 UNK        -0.5000 
     22 CA          0.5903  -22.1219  -43.8079 C.3       10 UNK         0.1400 
     23 CB          1.9098  -21.5265  -43.2956 C.3       10 UNK        -0.1800 
     24 N          -0.5408  -21.4937  -43.1230 N.am      10 UNK        -0.5000 
     25 C          -1.8073  -21.9233  -43.2226 C.2       9 UNK         0.5000 
     26 O          -2.1375  -22.9319  -43.8471 O.2       9 UNK        -0.5000 
     27 CA         -2.8880  -21.0531  -42.5564 C.3       9 UNK         0.1400 
     28 CB         -3.0259  -21.3973  -41.0662 C.3       9 UNK        -0.1800 
     29 N          -2.6170  -19.6225  -42.7057 N.am      9 UNK        -0.5000 
     30 C          -2.6789  -18.9595  -43.8698 C.2       8 UNK         0.5000 
     31 O          -3.0005  -19.4784  -44.9378 O.2       8 UNK        -0.5000 
     32 CA         -2.2373  -17.4858  -43.8499 C.3       8 UNK         0.1400 
     33 CB         -3.3782  -16.5708  -43.3836 C.3       8 UNK        -0.1800 
     34 N          -1.0547  -17.2786  -43.0095 N.am      8 UNK        -0.5000 
     35 C           0.1529  -17.7983  -43.2826 C.2       7 UNK         0.5000 
     36 O           0.3944  -18.4246  -44.3117 O.2       7 UNK        -0.5000 
     37 CA          1.2710  -17.6432  -42.2363 C.3       7 UNK         0.1400 
     38 CB          2.3204  -16.6211  -42.6982 C.3       7 UNK        -0.1800 
     39 N           0.7663  -17.2967  -40.9074 N.am      7 UNK        -0.5000 
     40 C           0.1194  -18.1637  -40.1127 C.2       6 UNK         0.5000 
     41 O          -0.0953  -19.3353  -40.4283 O.2       6 UNK        -0.5000 
     42 CA         -0.4109  -17.6375  -38.7638 C.3       6 UNK         0.1400 
     43 CB          0.5797  -17.9629  -37.6362 C.3       6 UNK        -0.1800 
     44 N          -0.6910  -16.1992  -38.7533 N.am      6 UNK        -0.5000 
     45 C          -1.6141  -15.5898  -39.5094 C.2       5 UNK         0.5000 
     46 O          -2.3385  -16.1916  -40.3030 O.2       5 UNK        -0.5000 
     47 CA         -1.7302  -14.0522  -39.4038 C.3       5 UNK         0.1400 
     48 CB         -0.7726  -13.4154  -38.3709 C.3       5 UNK        -0.1800 
     49 N          -1.5676  -13.3968  -40.7080 N.am      5 UNK        -0.5000 
     50 C          -0.5367  -13.5473  -41.5505 C.2       4 UNK         0.5000 
     51 O           0.4275  -14.2866  -41.3352 O.2       4 UNK        -0.5000 
     52 CA         -0.5741  -12.7211  -42.8430 C.3       4 UNK         0.1400 
     53 CB          0.0530  -11.3331  -42.6098 C.3       4 UNK        -0.1800 
     54 N           0.1594  -13.4562  -43.8691 N.am      4 UNK        -0.5000 
     55 C           0.1648  -13.1956  -45.1792 C.2       3 UNK         0.5000 
     56 O          -0.4290  -12.2468  -45.6984 O.2       3 UNK        -0.5000 
     57 CA          0.9419  -14.1771  -46.0673 C.3       3 UNK         0.1400 
     58 CB          0.0274  -15.3341  -46.5129 C.3       3 UNK        -0.1800 
     59 N           1.4590  -13.4529  -47.2250 N.am      3 UNK        -0.5000 
     60 C           2.3581  -13.9226  -48.0939 C.2       2 UNK         0.5000 
     61 O           2.8460  -15.0549  -48.0369 O.2       2 UNK        -0.5000 
     62 CA          2.8033  -12.9740  -49.2141 C.3       2 UNK         0.1400 
     63 CB          4.1140  -12.2598  -48.8321 C.3       2 UNK        -0.1800 
     64 N           2.9758  -13.7846  -50.4126 N.am      2 UNK        -0.5000 
     65 C           3.1695  -13.3548  -51.6645 C.2       1 UNK         0.5000 
     66 O           3.3056  -12.1712  -51.9770 O.2       1 UNK        -0.5000 
     67 C          -1.3738  -21.2879  -47.7753 C.2       11 UNK         0.5000 
     68 O          -1.2952  -21.7884  -48.8956 O.2       11 UNK        -0.5000 
     69 N          -2.4373  -21.4448  -46.9721 N.am      12 UNK        -0.5000 
     70 CA         -3.5882  -22.2979  -47.2835 C.3       12 UNK         0.1400 
     71 CB         -4.6588  -22.1537  -46.1895 C.3       12 UNK        -0.1800 
     72 C          -3.1942  -23.7748  -47.4650 C.2       12 UNK         0.5000 
     73 O          -3.6266  -24.4070  -48.4293 O.2       12 UNK        -0.5000 
     74 N          -2.3406  -24.2805  -46.5629 N.am      13 UNK        -0.5000 
     75 CA         -1.7699  -25.6257  -46.6274 C.3       13 UNK         0.1400 
     76 CB         -1.0544  -25.9477  -45.3069 C.3       13 UNK        -0.1800 
     77 C          -0.8286  -25.8198  -47.8320 C.2       13 UNK         0.5000 
     78 O          -0.8913  -26.8657  -48.4779 O.2       13 UNK        -0.5000 
     79 N          -0.0018  -24.8072  -48.1329 N.am      14 UNK        -0.5000 
     80 CA          0.9025  -24.7774  -49.2862 C.3       14 UNK         0.1400 
     81 CB          1.8491  -23.5715  -49.1773 C.3       14 UNK        -0.1800 
     82 C           0.1529  -24.7553  -50.6307 C.2       14 UNK         0.5000 
     83 O           0.5449  -25.4666  -51.5567 O.2       14 UNK        -0.5000 
     84 N          -0.9251  -23.9631  -50.7027 N.am      15 UNK        -0.5000 
     85 CA         -1.8351  -23.8976  -51.8463 C.3       15 UNK         0.1400 
     86 CB         -2.7363  -22.6612  -51.6972 C.3       15 UNK        -0.1800 
     87 C          -2.7050  -25.1603  -51.9962 C.2       15 UNK         0.5000 
     88 O          -3.1563  -25.4527  -53.1040 O.2       15 UNK        -0.5000 
     89 N          -2.9396  -25.8581  -50.8741 N.am      16 UNK        -0.5000 
     90 CA         -3.8675  -26.9766  -50.6838 C.3       16 UNK         0.1400 
     91 CB         -3.4145  -28.2168  -51.4813 C.3       16 UNK        -0.1800 
     92 C          -5.3236  -26.5544  -50.9711 C.2       16 UNK         0.5000 
     93 O          -6.0748  -27.2915  -51.6132 O.2       16 UNK        -0.5000 
     94 N          -5.6786  -25.3491  -50.5118 N.am      17 UNK        -0.5000 
     95 CA         -6.9389  -24.6669  -50.7841 C.3       17 UNK         0.1400 
     96 CB         -6.9459  -24.1327  -52.2355 C.3       17 UNK        -0.1800 
     97 C          -7.1514  -23.5757  -49.7194 C.2       17 UNK         0.5000 
     98 O          -6.7988  -23.7842  -48.5572 O.2       17 UNK        -0.5000 
     99 N          -7.7295  -22.4370  -50.1195 N.am      18 UNK        -0.5000 
    100 CA        -7.8836  -21.2440  -49.2889 C.3       18 UNK         0.1400 
    101 CB        -8.9264  -20.3226  -49.9421 C.3       18 UNK        -0.1800 
    102 C         -6.5460  -20.5020  -49.1059 C.2       18 UNK         0.5000 
    103 O         -5.6165  -20.6873  -49.8970 O.2       18 UNK        -0.5000 
    104 N         -6.4834  -19.6479  -48.0768 N.am      19 UNK        -0.5000 
    105 CA        -5.3409  -18.7826  -47.7858 C.3       19 UNK         0.1400 
    106 CB        -5.5992  -18.0110  -46.4836 C.3       19 UNK        -0.1800 
    107 C         -5.0514  -17.8169  -48.9478 C.2       19 UNK         0.5000 
    108 O         -5.9396  -17.0625  -49.3497 O.2       19 UNK        -0.5000 
    109 N         -3.8185  -17.8853  -49.4639 N.am      20 UNK        -0.5000 
    110 CA        -3.2889  -17.1088  -50.5863 C.3       20 UNK         0.1400 
    111 CB        -3.2175  -15.6061  -50.2415 C.3       20 UNK        -0.1800 
    112 C         -3.9686  -17.3931  -51.9427 C.2       20 UNK         0.5000 
    113 O         -3.9191  -16.5473  -52.8384 O.2       20 UNK        -0.5000 
    114 N         -4.5340  -18.6002  -52.1085 N.am      21 UNK        -0.5000 
    115 CA        -5.1592  -19.0668  -53.3536 C.3       21 UNK         0.1400 
    116 CB        -5.8696  -20.4044  -53.1003 C.3       21 UNK        -0.1800 
    117 C         -4.1951  -19.1728  -54.5564 C.2       21 UNK         0.5000 
    118 O         -4.6605  -19.2076  -55.6964 O.2       21 UNK        -0.5000 
    119 N         -2.8809  -19.1871  -54.2931 N.am      22 UNK        -0.5000 
    120 CA        -1.8157  -19.0644  -55.3034 C.3       22 UNK         0.1400 
    121 C         -1.7444  -17.6673  -55.9927 C.2       22 UNK         0.5000 
    122 N         -2.3802  -16.6242  -55.4682 N.am      22 UNK        -0.7600 
    123 O         -1.0991  -17.5293  -57.0280 O.2       22 UNK        -0.5000 
    124 C124       -0.4206  -19.4401  -54.7377 C.3       23 UNK        -0.0398 
    125 S125       -0.3842  -21.0616  -53.9068 S.3       23 UNK        -0.2404 
    126 C126        1.4046  -21.3224  -53.6752 C.3       23 UNK        -0.0205 
    127 H127        0.4057  -17.3044  -52.2474 H         1 UNK         0.0600 
    128 H128       -0.9627  -16.3848  -52.8876 H         1 UNK         0.0600 
    129 H129       -0.4743  -16.1995  -51.1939 H         1 UNK         0.0600 
    130 H130        2.4446  -16.3820  -52.3355 H         1 UNK         0.3000 
    131 H131        2.9604  -13.9565  -53.7085 H         1 UNK         0.0600 
    132 H132        5.3229  -14.3302  -53.1022 H         1 UNK         0.0800 
    133 H133        4.8822  -15.5112  -51.9010 H         1 UNK         0.0800 
    134 H134        5.7612  -17.6267  -52.3783 H         1 UNK         0.0800 
    135 H135        5.5944  -18.5683  -53.8277 H         1 UNK         0.0800 
    136 H136        3.5145  -19.7452  -54.3797 H         1 UNK         0.1150 
    137 H137        0.8162  -20.5010  -51.1417 H         1 UNK         0.1150 
    138 H138        3.8755  -17.5190  -50.7360 H         1 UNK         0.1150 
    139 H139        2.1893  -19.4197  -48.7228 H         1 UNK         0.0800 
    140 H140        2.2186  -17.6991  -49.0220 H         1 UNK         0.0800 
    141 H141       -1.2067  -18.5776  -47.1272 H         1 UNK         0.0800 
    142 H142        0.5180  -18.4617  -46.9116 H         1 UNK         0.0800 
    143 H143        0.7092  -20.8760  -47.7548 H         1 UNK         0.0600 
    144 H144       -0.0183  -20.0219  -45.1630 H         1 UNK         0.3000 
    145 H145        0.5808  -23.1862  -43.5631 H         1 UNK         0.0600 
    146 H146        1.9793  -21.5891  -42.2094 H         1 UNK         0.0600 
    147 H147        2.7621  -22.0675  -43.7084 H         1 UNK         0.0600 
    148 H148        2.0218  -20.4814  -43.5820 H         1 UNK         0.0600 
    149 H149       -0.3507  -20.6666  -42.5749 H         1 UNK         0.3000 
    150 H150       -3.8399  -21.2713  -43.0452 H         1 UNK         0.0600 
    151 H151       -3.2620  -22.4536  -40.9313 H         1 UNK         0.0600 
    152 H152       -3.8278  -20.8235  -40.6015 H         1 UNK         0.0600 
    153 H153       -2.1061  -21.1945  -40.5167 H         1 UNK         0.0600 
    154 H154       -2.3072  -19.1289  -41.8808 H         1 UNK         0.3000 
    155 H155       -1.9854  -17.2101  -44.8744 H         1 UNK         0.0600 
    156 H156       -4.2278  -16.6271  -44.0637 H         1 UNK         0.0600 
    157 H157       -3.0601  -15.5287  -43.3454 H         1 UNK         0.0600 
    158 H158       -3.7413  -16.8488  -42.3942 H         1 UNK         0.0600 
    159 H159       -1.1999  -16.8015  -42.1280 H         1 UNK         0.3000 
    160 H160        1.7747  -18.6081  -42.1562 H         1 UNK         0.0600 
    161 H161        1.8839  -15.6463  -42.9037 H         1 UNK         0.0600 
    162 H162        2.8039  -16.9553  -43.6171 H         1 UNK         0.0600 
    163 H163        3.1023  -16.4900  -41.9501 H         1 UNK         0.0600 
    164 H164        0.8520  -16.3269  -40.6256 H         1 UNK         0.3000 
    165 H165       -1.3470  -18.1605  -38.5575 H         1 UNK         0.0600 
    166 H166        0.1789  -17.6774  -36.6634 H         1 UNK         0.0600 
    167 H167        0.7905  -19.0326  -37.5976 H         1 UNK         0.0600 
    168 H168        1.5302  -17.4458  -37.7741 H         1 UNK         0.0600 
    169 H169       -0.1180  -15.6322  -38.1455 H         1 UNK         0.3000 
    170 H170       -2.7513  -13.8491  -39.0779 H         1 UNK         0.0600 
    171 H171       -0.9398  -13.8200  -37.3719 H         1 UNK         0.0600 
    172 H172        0.2755  -13.5736  -38.6282 H         1 UNK         0.0600 
    173 H173       -0.9336  -12.3392  -38.3067 H         1 UNK         0.0600 
    174 H174       -2.3270  -12.7893  -40.9819 H         1 UNK         0.3000 
    175 H175       -1.6125  -12.6101  -43.1621 H         1 UNK         0.0600 
    176 H176        1.1047  -11.4117  -42.3316 H         1 UNK         0.0600 
    177 H177       -0.0116  -10.7075  -43.4998 H         1 UNK         0.0600 
    178 H178       -0.4600  -10.8015  -41.8074 H         1 UNK         0.0600 
    179 H179        0.6708  -14.2480  -43.5016 H         1 UNK         0.3000 
    180 H180        1.7853  -14.5761  -45.4996 H         1 UNK         0.0600 
    181 H181       -0.3473  -15.8769  -45.6479 H         1 UNK         0.0600 
    182 H182        0.5581  -16.0536  -47.1347 H         1 UNK         0.0600 
    183 H183       -0.8329  -14.9748  -47.0788 H         1 UNK         0.0600 
    184 H184        1.0943  -12.5127  -47.3188 H         1 UNK         0.3000 
    185 H185        2.0191  -12.2368  -49.3973 H         1 UNK         0.0600 
    186 H186        3.9976  -11.7048  -47.9004 H         1 UNK         0.0600 
    187 H187        4.9302  -12.9696  -48.6920 H         1 UNK         0.0600 
    188 H188        4.4200  -11.5442  -49.5948 H         1 UNK         0.0600 
    189 H189        2.8674  -14.7765  -50.2427 H         1 UNK         0.3000 
    190 H190       -2.4622  -20.9539  -46.0833 H         1 UNK         0.3000 
    191 H191       -4.0092  -21.9518  -48.2281 H         1 UNK         0.0600 
    192 H192       -4.3163  -22.5419  -45.2315 H         1 UNK         0.0600 
    193 H193       -5.5615  -22.7032  -46.4557 H         1 UNK         0.0600 
    194 H194       -4.9462  -21.1149  -46.0390 H         1 UNK         0.0600 
    195 H195       -2.0623  -23.7029  -45.7768 H         1 UNK         0.3000 
    196 H196       -2.5972  -26.3297  -46.7399 H         1 UNK         0.0600 
    197 H197       -0.6570  -26.9633  -45.3166 H         1 UNK         0.0600 
    198 H198       -1.7378  -25.8730  -44.4607 H         1 UNK         0.0600 
    199 H199       -0.2204  -25.2713  -45.1214 H         1 UNK         0.0600 
    200 H200        0.0395  -24.0114  -47.5022 H         1 UNK         0.3000 
    201 H201        1.5073  -25.6860  -49.2559 H         1 UNK         0.0600 
    202 H202        2.4081  -23.5890  -48.2417 H         1 UNK         0.0600 
    203 H203        1.3070  -22.6276  -49.2283 H         1 UNK         0.0600 
    204 H204        2.5751  -23.5724  -49.9912 H         1 UNK         0.0600 
    205 H205       -1.1352  -23.3445  -49.9223 H         1 UNK         0.3000 
    206 H206       -1.2392  -23.7873  -52.7543 H         1 UNK         0.0600 
    207 H207       -2.1497  -21.7515  -51.5707 H         1 UNK         0.0600 
    208 H208       -3.3517  -22.5306  -52.5869 H         1 UNK         0.0600 
    209 H209       -3.4049  -22.7460  -50.8390 H         1 UNK         0.0600 
    210 H210       -2.5559  -25.4797  -50.0171 H         1 UNK         0.3000 
    211 H211       -3.8242  -27.2306  -49.6237 H         1 UNK         0.0600 
    212 H212       -3.4873  -28.0588  -52.5575 H         1 UNK         0.0600 
    213 H213       -4.0300  -29.0829  -51.2362 H         1 UNK         0.0600 
    214 H214       -2.3816  -28.4763  -51.2488 H         1 UNK         0.0600 
    215 H215       -5.0349  -24.8490  -49.9040 H         1 UNK         0.3000 
    216 H216       -7.7555  -25.3819  -50.6677 H         1 UNK         0.0600 
    217 H217       -7.9037  -23.6811  -52.4950 H         1 UNK         0.0600 
    218 H218       -6.7763  -24.9338  -52.9548 H         1 UNK         0.0600 
    219 H219       -6.1658  -23.3864  -52.3887 H         1 UNK         0.0600 
    220 H220       -7.9576  -22.3329  -51.0965 H         1 UNK         0.3000 
    221 H221       -8.2494  -21.5467  -48.3054 H         1 UNK         0.0600 
    222 H222       -8.6058  -19.9826  -50.9273 H         1 UNK         0.0600 
    223 H223       -9.8839  -20.8309  -50.0581 H         1 UNK         0.0600 
    224 H224       -9.1044  -19.4353  -49.3333 H         1 UNK         0.0600 
    225 H225       -7.2976  -19.5224  -47.4938 H         1 UNK         0.3000 
    226 H226       -4.4671  -19.4182  -47.6327 H         1 UNK         0.0600 
    227 H227       -4.7598  -17.3535  -46.2564 H         1 UNK         0.0600 
    228 H228       -6.4941  -17.3912  -46.5505 H         1 UNK         0.0600 
    229 H229       -5.7188  -18.6886  -45.6381 H         1 UNK         0.0600 
    230 H230       -3.1787  -18.5658  -49.0800 H         1 UNK         0.3000 
    231 H231       -2.2694  -17.4649  -50.7134 H         1 UNK         0.0600 
    232 H232       -2.6977  -15.0463  -51.0199 H         1 UNK         0.0600 
    233 H233       -2.6741  -15.4422  -49.3108 H         1 UNK         0.0600 
    234 H234       -4.2092  -15.1664  -50.1350 H         1 UNK         0.0600 
    235 H235       -4.5657  -19.2404  -51.3239 H         1 UNK         0.3000 
    236 H236       -5.9199  -18.3340  -53.6300 H         1 UNK         0.0600 
    237 H237       -6.6863  -20.2841  -52.3900 H         1 UNK         0.0600 
    238 H238       -6.2988  -20.8083  -54.0181 H         1 UNK         0.0600 
    239 H239       -5.1859  -21.1503  -52.6987 H         1 UNK         0.0600 
    240 H240       -2.5832  -19.1920  -53.3300 H         1 UNK         0.3000 
    241 H241       -2.0475  -19.7796  -56.0948 H         1 UNK         0.0600 
    242 H242       -2.3244  -15.7319  -55.9323 H         1 UNK         0.3800 
    243 H243       -2.9218  -16.7080  -54.6150 H         1 UNK         0.3800 
    244 H244        0.3206  -19.4532  -55.5389 H         1 UNK         0.0800 
    245 H245       -0.0853  -18.6875  -54.0251 H         1 UNK         0.0800 
    246 H246        1.8741  -21.4183  -54.6553 H         1 UNK         0.0800 
    247 H247        1.5535  -22.2773  -53.1691 H         1 UNK         0.0800 
@<TRIPOS>BOND
     1    1    2 1    
     2    1  127 1    
     3    1  128 1    
     4    1  129 1    
     5    2    3 2    
     6    2    4 am   BACKBONE|DICT|INTERRES
     7    4    5 1    
     8    4  130 1    
     9    5    6 1    
    10    5   65 1    
    11    5  131 1    
    12    6    7 1    
    13    6  132 1    
    14    6  133 1    
    15    7    8 1    
    16    8    9 1    
    17    8  134 1    
    18    8  135 1    
    19    9   10 ar   
    20    9   14 ar   
    21   10   11 ar   
    22   10  136 1    
    23   11   12 ar   
    24   11  126 1    
    25   12   13 ar   
    26   12  137 1    
    27   13   14 ar   
    28   13   15 1    
    29   14  138 1    
    30   15   16 1    
    31   15  139 1    
    32   15  140 1    
    33   16   17 1    
    34   17   18 1    
    35   17  141 1    
    36   17  142 1    
    37   18   19 1    
    38   18   67 1    
    39   18  143 1    
    40   19   20 am   BACKBONE|DICT|INTERRES
    41   19  144 1    
    42   20   21 2    
    43   20   22 1    
    44   22   23 1    
    45   22   24 1    
    46   22  145 1    
    47   23  146 1    
    48   23  147 1    
    49   23  148 1    
    50   24   25 am   BACKBONE|DICT|INTERRES
    51   24  149 1    
    52   25   26 2    
    53   25   27 1    
    54   27   28 1    
    55   27   29 1    
    56   27  150 1    
    57   28  151 1    
    58   28  152 1    
    59   28  153 1    
    60   29   30 am   BACKBONE|DICT|INTERRES
    61   29  154 1    
    62   30   31 2    
    63   30   32 1    
    64   32   33 1    
    65   32   34 1    
    66   32  155 1    
    67   33  156 1    
    68   33  157 1    
    69   33  158 1    
    70   34   35 am   BACKBONE|DICT|INTERRES
    71   34  159 1    
    72   35   36 2    
    73   35   37 1    
    74   37   38 1    
    75   37   39 1    
    76   37  160 1    
    77   38  161 1    
    78   38  162 1    
    79   38  163 1    
    80   39   40 am   BACKBONE|DICT|INTERRES
    81   39  164 1    
    82   40   41 2    
    83   40   42 1    
    84   42   43 1    
    85   42   44 1    
    86   42  165 1    
    87   43  166 1    
    88   43  167 1    
    89   43  168 1    
    90   44   45 am   BACKBONE|DICT|INTERRES
    91   44  169 1    
    92   45   46 2    
    93   45   47 1    
    94   47   48 1    
    95   47   49 1    
    96   47  170 1    
    97   48  171 1    
    98   48  172 1    
    99   48  173 1    
   100   49   50 am   BACKBONE|DICT|INTERRES
   101   49  174 1    
   102   50   51 2    
   103   50   52 1    
   104   52   53 1    
   105   52   54 1    
   106   52  175 1    
   107   53  176 1    
   108   53  177 1    
   109   53  178 1    
   110   54   55 am   BACKBONE|DICT|INTERRES
   111   54  179 1    
   112   55   56 2    
   113   55   57 1    
   114   57   58 1    
   115   57   59 1    
   116   57  180 1    
   117   58  181 1    
   118   58  182 1    
   119   58  183 1    
   120   59   60 am   BACKBONE|DICT|INTERRES
   121   59  184 1    
   122   60   61 2    
   123   60   62 1    
   124   62   63 1    
   125   62   64 1    
   126   62  185 1    
   127   63  186 1    
   128   63  187 1    
   129   63  188 1    
   130   64   65 am   BACKBONE|DICT|INTERRES
   131   64  189 1    
   132   65   66 2    
   133   67   68 2    
   134   67   69 am   BACKBONE|DICT|INTERRES
   135   69   70 1    
   136   69  190 1    
   137   70   71 1    
   138   70   72 1    
   139   70  191 1    
   140   71  192 1    
   141   71  193 1    
   142   71  194 1    
   143   72   73 2    
   144   72   74 am   BACKBONE|DICT|INTERRES
   145   74   75 1    
   146   74  195 1    
   147   75   76 1    
   148   75   77 1    
   149   75  196 1    
   150   76  197 1    
   151   76  198 1    
   152   76  199 1    
   153   77   78 2    
   154   77   79 am   BACKBONE|DICT|INTERRES
   155   79   80 1    
   156   79  200 1    
   157   80   81 1    
   158   80   82 1    
   159   80  201 1    
   160   81  202 1    
   161   81  203 1    
   162   81  204 1    
   163   82   83 2    
   164   82   84 am   BACKBONE|DICT|INTERRES
   165   84   85 1    
   166   84  205 1    
   167   85   86 1    
   168   85   87 1    
   169   85  206 1    
   170   86  207 1    
   171   86  208 1    
   172   86  209 1    
   173   87   88 2    
   174   87   89 am   BACKBONE|DICT|INTERRES
   175   89   90 1    
   176   89  210 1    
   177   90   91 1    
   178   90   92 1    
   179   90  211 1    
   180   91  212 1    
   181   91  213 1    
   182   91  214 1    
   183   92   93 2    
   184   92   94 am   BACKBONE|DICT|INTERRES
   185   94   95 1    
   186   94  215 1    
   187   95   96 1    
   188   95   97 1    
   189   95  216 1    
   190   96  217 1    
   191   96  218 1    
   192   96  219 1    
   193   97   98 2    
   194   97   99 am   BACKBONE|DICT|INTERRES
   195   99  100 1    
   196   99  220 1    
   197  100  101 1    
   198  100  102 1    
   199  100  221 1    
   200  101  222 1    
   201  101  223 1    
   202  101  224 1    
   203  102  103 2    
   204  102  104 am   BACKBONE|DICT|INTERRES
   205  104  105 1    
   206  104  225 1    
   207  105  106 1    
   208  105  107 1    
   209  105  226 1    
   210  106  227 1    
   211  106  228 1    
   212  106  229 1    
   213  107  108 2    
   214  107  109 am   BACKBONE|DICT|INTERRES
   215  109  110 1    
   216  109  230 1    
   217  110  111 1    
   218  110  112 1    
   219  110  231 1    
   220  111  232 1    
   221  111  233 1    
   222  111  234 1    
   223  112  113 2    
   224  112  114 am   BACKBONE|DICT|INTERRES
   225  114  115 1    
   226  114  235 1    
   227  115  116 1    
   228  115  117 1    
   229  115  236 1    
   230  116  237 1    
   231  116  238 1    
   232  116  239 1    
   233  117  118 2    
   234  117  119 am   BACKBONE|DICT|INTERRES
   235  119  120 1    
   236  119  240 1    
   237  120  121 1    
   238  120  124 1    
   239  120  241 1    
   240  121  122 am   BACKBONE|DICT|INTERRES
   241  121  123 2    
   242  122  242 1    
   243  122  243 1    
   244  124  125 1    
   245  124  244 1    
   246  124  245 1    
   247  125  126 1    
   248  126  246 1    
   249  126  247 1    
@<TRIPOS>SUBSTRUCTURE
     1 UNK         1 GROUP             0       ****    0 ROOT    
