@<TRIPOS>MOLECULE
3R540
247   249    1
SMALL
USER_CHARGES


@<TRIPOS>ATOM
      1 CA         -1.0280  -11.6730  -47.7339 C.3       0 UNK        -0.1800 
      2 C           0.4695  -11.9298  -47.7952 C.2       0 UNK         0.5000 
      3 O           1.0989  -12.1038  -46.7508 O.2       0 UNK        -0.5000 
      4 N           1.0264  -11.9164  -49.0133 N.am      1 UNK        -0.5000 
      5 CA          2.4178  -12.2011  -49.3999 C.3       1 UNK         0.1400 
      6 C6          2.7098  -13.7212  -49.5338 C.3       23 UNK        -0.0398 
      7 S7          2.9634  -14.6527  -47.9789 S.3       23 UNK        -0.2404 
      8 C8          4.3085  -15.7868  -48.4601 C.3       23 UNK        -0.0205 
      9 C9          3.7765  -17.0284  -49.1634 C.ar      23 UNK        -0.0193 
     10 C10         3.3183  -16.9565  -50.4804 C.ar      23 UNK        -0.1150 
     11 C11         2.7848  -18.0827  -51.1103 C.ar      23 UNK        -0.0193 
     12 C12         2.7506  -19.3022  -50.4289 C.ar      23 UNK        -0.1150 
     13 C13         3.2310  -19.4013  -49.1153 C.ar      23 UNK        -0.0193 
     14 C14         3.7364  -18.2543  -48.4944 C.ar      23 UNK        -0.1150 
     15 C15         3.2020  -20.6978  -48.3029 C.3       23 UNK        -0.0205 
     16 S16         2.8899  -22.2353  -49.2312 S.3       23 UNK        -0.2404 
     17 C17         1.0765  -22.1867  -49.4224 C.3       23 UNK        -0.0398 
     18 CA          0.3593  -23.1292  -48.4297 C.3       11 UNK         0.1400 
     19 N           0.4710  -22.6874  -47.0373 N.am      11 UNK        -0.5000 
     20 C           0.2141  -23.4659  -45.9779 C.2       10 UNK         0.5000 
     21 O          -0.1160  -24.6495  -46.0618 O.2       10 UNK        -0.5000 
     22 CA          0.2984  -22.7940  -44.5960 C.3       10 UNK         0.1400 
     23 CB          1.7575  -22.6918  -44.1274 C.3       10 UNK        -0.1800 
     24 N          -0.3182  -21.4661  -44.5865 N.am      10 UNK        -0.5000 
     25 C          -1.6374  -21.2568  -44.7143 C.2       9 UNK         0.5000 
     26 O          -2.4588  -22.1642  -44.8312 O.2       9 UNK        -0.5000 
     27 CA         -2.1332  -19.7990  -44.7567 C.3       9 UNK         0.1400 
     28 CB         -2.4641  -19.3078  -43.3398 C.3       9 UNK        -0.1800 
     29 N          -1.2033  -18.8632  -45.3866 N.am      9 UNK        -0.5000 
     30 C          -0.6845  -18.9821  -46.6168 C.2       8 UNK         0.5000 
     31 O          -0.9399  -19.9080  -47.3868 O.2       8 UNK        -0.5000 
     32 CA          0.3361  -17.9103  -47.0334 C.3       8 UNK         0.1400 
     33 CB         -0.3905  -16.7033  -47.6443 C.3       8 UNK        -0.1800 
     34 N           1.2070  -17.4660  -45.9375 N.am      8 UNK        -0.5000 
     35 C           1.9983  -18.2609  -45.1974 C.2       7 UNK         0.5000 
     36 O           2.0537  -19.4836  -45.3195 O.2       7 UNK        -0.5000 
     37 CA          2.8414  -17.5770  -44.1080 C.3       7 UNK         0.1400 
     38 CB          4.0549  -16.8575  -44.7125 C.3       7 UNK        -0.1800 
     39 N           2.0415  -16.6301  -43.3357 N.am      7 UNK        -0.5000 
     40 C           1.1471  -16.9934  -42.4065 C.2       6 UNK         0.5000 
     41 O           0.9740  -18.1540  -42.0338 O.2       6 UNK        -0.5000 
     42 CA          0.2746  -15.8697  -41.8231 C.3       6 UNK         0.1400 
     43 CB          0.9783  -15.1902  -40.6392 C.3       6 UNK        -0.1800 
     44 N          -0.0889  -14.8628  -42.8228 N.am      6 UNK        -0.5000 
     45 C          -0.9054  -15.0922  -43.8625 C.2       5 UNK         0.5000 
     46 O          -1.3699  -16.2042  -44.1140 O.2       5 UNK        -0.5000 
     47 CA         -1.2432  -13.9208  -44.8084 C.3       5 UNK         0.1400 
     48 CB         -2.7645  -13.7875  -45.0243 C.3       5 UNK        -0.1800 
     49 N          -0.6397  -12.6365  -44.4397 N.am      5 UNK        -0.5000 
     50 C          -0.9020  -11.8604  -43.3771 C.2       4 UNK         0.5000 
     51 O          -1.7761  -12.1066  -42.5452 O.2       4 UNK        -0.5000 
     52 CA          0.0009  -10.6167  -43.2081 C.3       4 UNK         0.1400 
     53 CB          0.0782  -10.1337  -41.7448 C.3       4 UNK        -0.1800 
     54 N           1.3522  -10.7976  -43.7592 N.am      4 UNK        -0.5000 
     55 C           2.2489  -11.7403  -43.4234 C.2       3 UNK         0.5000 
     56 O           2.0397  -12.5994  -42.5659 O.2       3 UNK        -0.5000 
     57 CA          3.5747  -11.7588  -44.2089 C.3       3 UNK         0.1400 
     58 CB          4.0066  -13.1978  -44.5388 C.3       3 UNK        -0.1800 
     59 N           3.4534  -11.0134  -45.4621 N.am      3 UNK        -0.5000 
     60 C           4.2265   -9.9920  -45.8533 C.2       2 UNK         0.5000 
     61 O           5.1497   -9.5401  -45.1739 O.2       2 UNK        -0.5000 
     62 CA          3.8933   -9.3483  -47.2203 C.3       2 UNK         0.1400 
     63 CB          5.1372   -8.7797  -47.9352 C.3       2 UNK        -0.1800 
     64 N           3.1192  -10.2259  -48.1087 N.am      2 UNK        -0.5000 
     65 C           3.5059  -11.3941  -48.6464 C.2       1 UNK         0.5000 
     66 O           4.6556  -11.8302  -48.5734 O.2       1 UNK        -0.5000 
     67 C          -1.1144  -23.3294  -48.8241 C.2       11 UNK         0.5000 
     68 O          -1.4304  -24.3257  -49.4738 O.2       11 UNK        -0.5000 
     69 N          -1.9943  -22.4179  -48.3849 N.am      12 UNK        -0.5000 
     70 CA         -3.4401  -22.5100  -48.5832 C.3       12 UNK         0.1400 
     71 CB         -4.1201  -21.2318  -48.0743 C.3       12 UNK        -0.1800 
     72 C          -4.0441  -23.7586  -47.9157 C.2       12 UNK         0.5000 
     73 O          -4.8493  -24.4434  -48.5433 O.2       12 UNK        -0.5000 
     74 N          -3.6138  -24.0641  -46.6822 N.am      13 UNK        -0.5000 
     75 CA         -3.9978  -25.2686  -45.9443 C.3       13 UNK         0.1400 
     76 CB         -3.4832  -25.1872  -44.4997 C.3       13 UNK        -0.1800 
     77 C          -3.5132  -26.5623  -46.6213 C.2       13 UNK         0.5000 
     78 O          -4.2890  -27.5128  -46.7237 O.2       13 UNK        -0.5000 
     79 N          -2.2658  -26.5661  -47.1151 N.am      14 UNK        -0.5000 
     80 CA         -1.6818  -27.6745  -47.8785 C.3       14 UNK         0.1400 
     81 CB         -0.1881  -27.4062  -48.1153 C.3       14 UNK        -0.1800 
     82 C          -2.4113  -27.9367  -49.2120 C.2       14 UNK         0.5000 
     83 O          -2.5619  -29.0921  -49.6096 O.2       14 UNK        -0.5000 
     84 N          -2.8913  -26.8616  -49.8486 N.am      15 UNK        -0.5000 
     85 CA         -3.7249  -26.8796  -51.0509 C.3       15 UNK         0.1400 
     86 CB         -3.5076  -25.5587  -51.8042 C.3       15 UNK        -0.1800 
     87 C          -5.2256  -27.1074  -50.7603 C.2       15 UNK         0.5000 
     88 O          -6.0284  -27.0458  -51.6925 O.2       15 UNK        -0.5000 
     89 N          -5.5942  -27.3363  -49.4892 N.am      16 UNK        -0.5000 
     90 CA         -6.9516  -27.5762  -48.9805 C.3       16 UNK         0.1400 
     91 CB         -7.4688  -28.9468  -49.4640 C.3       16 UNK        -0.1800 
     92 C          -7.9391  -26.4257  -49.2793 C.2       16 UNK         0.5000 
     93 O          -9.1304  -26.6694  -49.4776 O.2       16 UNK        -0.5000 
     94 N          -7.4117  -25.1938  -49.3294 N.am      17 UNK        -0.5000 
     95 CA         -8.0713  -23.9285  -49.6666 C.3       17 UNK         0.1400 
     96 CB         -9.1557  -23.5801  -48.6267 C.3       17 UNK        -0.1800 
     97 C          -8.5963  -23.8408  -51.1176 C.2       17 UNK         0.5000 
     98 O          -9.3147  -22.8928  -51.4391 O.2       17 UNK        -0.5000 
     99 N          -8.2235  -24.7973  -51.9806 N.am      18 UNK        -0.5000 
    100 CA        -8.6071  -24.8300  -53.3940 C.3       18 UNK         0.1400 
    101 CB        -8.5651  -26.2843  -53.8881 C.3       18 UNK        -0.1800 
    102 C         -7.7100  -23.9366  -54.2719 C.2       18 UNK         0.5000 
    103 O         -8.0980  -23.6031  -55.3924 O.2       18 UNK        -0.5000 
    104 N         -6.5324  -23.5711  -53.7558 N.am      19 UNK        -0.5000 
    105 CA        -5.5146  -22.7489  -54.3965 C.3       19 UNK         0.1400 
    106 CB        -4.7591  -23.5836  -55.4522 C.3       19 UNK        -0.1800 
    107 C         -4.5684  -22.2124  -53.3089 C.2       19 UNK         0.5000 
    108 O         -4.7830  -22.4800  -52.1237 O.2       19 UNK        -0.5000 
    109 N         -3.5328  -21.4778  -53.7388 N.am      20 UNK        -0.5000 
    110 CA        -2.3958  -20.9971  -52.9412 C.3       20 UNK         0.1400 
    111 CB        -1.5456  -22.1825  -52.4469 C.3       20 UNK        -0.1800 
    112 C         -2.7641  -20.0182  -51.8061 C.2       20 UNK         0.5000 
    113 O         -2.0164  -19.8867  -50.8360 O.2       20 UNK        -0.5000 
    114 N         -3.8858  -19.3049  -51.9656 N.am      21 UNK        -0.5000 
    115 CA        -4.3354  -18.2305  -51.0824 C.3       21 UNK         0.1400 
    116 CB        -5.8642  -18.1005  -51.2015 C.3       21 UNK        -0.1800 
    117 C         -3.5903  -16.9222  -51.4172 C.2       21 UNK         0.5000 
    118 O         -4.1908  -15.9743  -51.9258 O.2       21 UNK        -0.5000 
    119 N         -2.2758  -16.9222  -51.1690 N.am      22 UNK        -0.5000 
    120 CA        -1.3310  -15.8476  -51.5235 C.3       22 UNK         0.1400 
    121 C         -1.4696  -14.5313  -50.6987 C.2       22 UNK         0.5000 
    122 N         -2.3132  -14.4670  -49.6762 N.am      22 UNK        -0.7600 
    123 O         -0.8044  -13.5439  -50.9998 O.2       22 UNK        -0.5000 
    124 C124        0.1358  -16.3508  -51.5112 C.3       23 UNK        -0.0398 
    125 S125        0.4070  -17.8464  -52.5268 S.3       23 UNK        -0.2404 
    126 C126        2.2253  -17.9714  -52.5211 C.3       23 UNK        -0.0205 
    127 H127       -1.4048  -11.2580  -48.6690 H         1 UNK         0.0600 
    128 H128       -1.5546  -12.6047  -47.5374 H         1 UNK         0.0600 
    129 H129       -1.2601  -10.9704  -46.9335 H         1 UNK         0.0600 
    130 H130        0.4056  -11.7906  -49.8025 H         1 UNK         0.3000 
    131 H131        2.4767  -11.8077  -50.4159 H         1 UNK         0.0600 
    132 H132        1.8948  -14.1999  -50.0767 H         1 UNK         0.0800 
    133 H133        3.5900  -13.8437  -50.1654 H         1 UNK         0.0800 
    134 H134        5.0311  -15.2746  -49.0966 H         1 UNK         0.0800 
    135 H135        4.8584  -16.0710  -47.5626 H         1 UNK         0.0800 
    136 H136        3.3513  -16.0172  -51.0114 H         1 UNK         0.1150 
    137 H137        2.3339  -20.1614  -50.9323 H         1 UNK         0.1150 
    138 H138        4.0923  -18.3170  -47.4764 H         1 UNK         0.1150 
    139 H139        4.1578  -20.8115  -47.7895 H         1 UNK         0.0800 
    140 H140        2.4462  -20.6067  -47.5259 H         1 UNK         0.0800 
    141 H141        0.8734  -22.4977  -50.4472 H         1 UNK         0.0800 
    142 H142        0.7044  -21.1641  -49.3322 H         1 UNK         0.0800 
    143 H143        0.8370  -24.1089  -48.5036 H         1 UNK         0.0600 
    144 H144        0.6684  -21.7090  -46.8840 H         1 UNK         0.3000 
    145 H145       -0.2415  -23.4231  -43.8849 H         1 UNK         0.0600 
    146 H146        1.8247  -22.2345  -43.1401 H         1 UNK         0.0600 
    147 H147        2.2137  -23.6802  -44.0608 H         1 UNK         0.0600 
    148 H148        2.3631  -22.0989  -44.8136 H         1 UNK         0.0600 
    149 H149        0.3065  -20.6697  -44.5472 H         1 UNK         0.3000 
    150 H150       -3.0528  -19.7818  -45.3430 H         1 UNK         0.0600 
    151 H151       -3.1535  -19.9887  -42.8388 H         1 UNK         0.0600 
    152 H152       -2.9392  -18.3270  -43.3632 H         1 UNK         0.0600 
    153 H153       -1.5682  -19.2317  -42.7224 H         1 UNK         0.0600 
    154 H154       -0.9788  -18.0304  -44.8512 H         1 UNK         0.3000 
    155 H155        0.9705  -18.3475  -47.8044 H         1 UNK         0.0600 
    156 H156       -1.0592  -16.2292  -46.9267 H         1 UNK         0.0600 
    157 H157       -0.9987  -17.0126  -48.4945 H         1 UNK         0.0600 
    158 H158        0.3100  -15.9509  -48.0043 H         1 UNK         0.0600 
    159 H159        1.2264  -16.4745  -45.7591 H         1 UNK         0.3000 
    160 H160        3.2141  -18.3523  -43.4348 H         1 UNK         0.0600 
    161 H161        3.7539  -16.0728  -45.4049 H         1 UNK         0.0600 
    162 H162        4.6898  -17.5554  -45.2589 H         1 UNK         0.0600 
    163 H163        4.6697  -16.4015  -43.9364 H         1 UNK         0.0600 
    164 H164        2.1246  -15.6511  -43.5659 H         1 UNK         0.3000 
    165 H165       -0.6481  -16.3231  -41.4546 H         1 UNK         0.0600 
    166 H166        1.9269  -14.7418  -40.9361 H         1 UNK         0.0600 
    167 H167        0.3571  -14.4051  -40.2077 H         1 UNK         0.0600 
    168 H168        1.1907  -15.9102  -39.8479 H         1 UNK         0.0600 
    169 H169        0.3000  -13.9360  -42.6963 H         1 UNK         0.3000 
    170 H170       -0.7959  -14.1790  -45.7683 H         1 UNK         0.0600 
    171 H171       -3.2973  -13.6572  -44.0822 H         1 UNK         0.0600 
    172 H172       -3.1685  -14.6804  -45.5028 H         1 UNK         0.0600 
    173 H173       -3.0066  -12.9392  -45.6636 H         1 UNK         0.0600 
    174 H174        0.1092  -12.3377  -45.0581 H         1 UNK         0.3000 
    175 H175       -0.4662   -9.8243  -43.7943 H         1 UNK         0.0600 
    176 H176        0.7129   -9.2523  -41.6537 H         1 UNK         0.0600 
    177 H177       -0.9084   -9.8607  -41.3686 H         1 UNK         0.0600 
    178 H178        0.4779  -10.9045  -41.0851 H         1 UNK         0.0600 
    179 H179        1.6150  -10.1548  -44.4922 H         1 UNK         0.3000 
    180 H180        4.3302  -11.3079  -43.5632 H         1 UNK         0.0600 
    181 H181        3.2360  -13.7179  -45.1080 H         1 UNK         0.0600 
    182 H182        4.1953  -13.7731  -43.6318 H         1 UNK         0.0600 
    183 H183        4.9231  -13.2113  -45.1288 H         1 UNK         0.0600 
    184 H184        2.7134  -11.3344  -46.0827 H         1 UNK         0.3000 
    185 H185        3.2385   -8.5055  -46.9949 H         1 UNK         0.0600 
    186 H186        4.8739   -8.3422  -48.8981 H         1 UNK         0.0600 
    187 H187        5.6037   -7.9935  -47.3405 H         1 UNK         0.0600 
    188 H188        5.8933   -9.5455  -48.1088 H         1 UNK         0.0600 
    189 H189        2.1524   -9.9636  -48.2402 H         1 UNK         0.3000 
    190 H190       -1.6478  -21.5894  -47.9073 H         1 UNK         0.3000 
    191 H191       -3.6189  -22.5833  -49.6575 H         1 UNK         0.0600 
    192 H192       -3.6763  -20.3440  -48.5243 H         1 UNK         0.0600 
    193 H193       -5.1813  -21.2313  -48.3257 H         1 UNK         0.0600 
    194 H194       -4.0379  -21.1363  -46.9923 H         1 UNK         0.0600 
    195 H195       -2.9933  -23.4198  -46.2003 H         1 UNK         0.3000 
    196 H196       -5.0888  -25.3030  -45.9118 H         1 UNK         0.0600 
    197 H197       -3.7489  -26.0834  -43.9376 H         1 UNK         0.0600 
    198 H198       -3.9175  -24.3360  -43.9754 H         1 UNK         0.0600 
    199 H199       -2.3981  -25.0848  -44.4631 H         1 UNK         0.0600 
    200 H200       -1.6733  -25.7577  -46.9595 H         1 UNK         0.3000 
    201 H201       -1.7710  -28.5777  -47.2714 H         1 UNK         0.0600 
    202 H202        0.3446  -27.2811  -47.1725 H         1 UNK         0.0600 
    203 H203       -0.0288  -26.5074  -48.7110 H         1 UNK         0.0600 
    204 H204        0.2783  -28.2375  -48.6452 H         1 UNK         0.0600 
    205 H205       -2.6618  -25.9435  -49.4804 H         1 UNK         0.3000 
    206 H206       -3.3975  -27.6953  -51.6982 H         1 UNK         0.0600 
    207 H207       -2.4613  -25.4278  -52.0801 H         1 UNK         0.0600 
    208 H208       -4.0934  -25.5195  -52.7229 H         1 UNK         0.0600 
    209 H209       -3.7970  -24.7068  -51.1893 H         1 UNK         0.0600 
    210 H210       -4.8708  -27.3296  -48.7805 H         1 UNK         0.3000 
    211 H211       -6.8642  -27.6211  -47.8943 H         1 UNK         0.0600 
    212 H212       -7.6377  -28.9579  -50.5413 H         1 UNK         0.0600 
    213 H213       -8.4129  -29.2027  -48.9818 H         1 UNK         0.0600 
    214 H214       -6.7603  -29.7405  -49.2272 H         1 UNK         0.0600 
    215 H215       -6.4160  -25.1009  -49.1282 H         1 UNK         0.3000 
    216 H216       -7.2927  -23.1678  -49.5920 H         1 UNK         0.0600 
    217 H217       -8.7582  -23.6264  -47.6129 H         1 UNK         0.0600 
    218 H218      -10.0075  -24.2579  -48.6858 H         1 UNK         0.0600 
    219 H219       -9.5340  -22.5686  -48.7784 H         1 UNK         0.0600 
    220 H220       -7.6196  -25.5453  -51.6587 H         1 UNK         0.3000 
    221 H221       -9.6334  -24.4703  -53.4935 H         1 UNK         0.0600 
    222 H222       -7.5520  -26.6870  -53.8701 H         1 UNK         0.0600 
    223 H223       -9.1939  -26.9293  -53.2739 H         1 UNK         0.0600 
    224 H224       -8.9271  -26.3576  -54.9143 H         1 UNK         0.0600 
    225 H225       -6.3102  -23.8271  -52.8018 H         1 UNK         0.3000 
    226 H226       -5.9962  -21.8944  -54.8759 H         1 UNK         0.0600 
    227 H227       -5.4383  -23.9875  -56.2029 H         1 UNK         0.0600 
    228 H228       -4.0220  -22.9834  -55.9859 H         1 UNK         0.0600 
    229 H229       -4.2324  -24.4226  -54.9961 H         1 UNK         0.0600 
    230 H230       -3.4665  -21.2890  -54.7294 H         1 UNK         0.3000 
    231 H231       -1.7738  -20.4210  -53.6278 H         1 UNK         0.0600 
    232 H232       -0.6102  -21.8279  -52.0169 H         1 UNK         0.0600 
    233 H233       -1.2904  -22.8576  -53.2634 H         1 UNK         0.0600 
    234 H234       -2.0659  -22.7603  -51.6834 H         1 UNK         0.0600 
    235 H235       -4.4281  -19.4555  -52.8030 H         1 UNK         0.3000 
    236 H236       -4.1036  -18.4882  -50.0471 H         1 UNK         0.0600 
    237 H237       -6.2412  -17.3138  -50.5469 H         1 UNK         0.0600 
    238 H238       -6.1727  -17.8587  -52.2194 H         1 UNK         0.0600 
    239 H239       -6.3600  -19.0278  -50.9131 H         1 UNK         0.0600 
    240 H240       -1.8644  -17.7787  -50.8142 H         1 UNK         0.3000 
    241 H241       -1.5601  -15.5629  -52.5520 H         1 UNK         0.0600 
    242 H242       -2.8898  -15.2574  -49.4413 H         1 UNK         0.3800 
    243 H243       -2.4202  -13.5999  -49.1791 H         1 UNK         0.3800 
    244 H244        0.8052  -15.5714  -51.8792 H         1 UNK         0.0800 
    245 H245        0.4476  -16.5695  -50.4893 H         1 UNK         0.0800 
    246 H246        2.6475  -17.1069  -53.0357 H         1 UNK         0.0800 
    247 H247        2.5220  -18.8462  -53.1013 H         1 UNK         0.0800 
@<TRIPOS>BOND
     1    1    2 1    
     2    1  127 1    
     3    1  128 1    
     4    1  129 1    
     5    2    3 2    
     6    2    4 am   BACKBONE|DICT|INTERRES
     7    4    5 1    
     8    4  130 1    
     9    5    6 1    
    10    5   65 1    
    11    5  131 1    
    12    6    7 1    
    13    6  132 1    
    14    6  133 1    
    15    7    8 1    
    16    8    9 1    
    17    8  134 1    
    18    8  135 1    
    19    9   10 ar   
    20    9   14 ar   
    21   10   11 ar   
    22   10  136 1    
    23   11   12 ar   
    24   11  126 1    
    25   12   13 ar   
    26   12  137 1    
    27   13   14 ar   
    28   13   15 1    
    29   14  138 1    
    30   15   16 1    
    31   15  139 1    
    32   15  140 1    
    33   16   17 1    
    34   17   18 1    
    35   17  141 1    
    36   17  142 1    
    37   18   19 1    
    38   18   67 1    
    39   18  143 1    
    40   19   20 am   BACKBONE|DICT|INTERRES
    41   19  144 1    
    42   20   21 2    
    43   20   22 1    
    44   22   23 1    
    45   22   24 1    
    46   22  145 1    
    47   23  146 1    
    48   23  147 1    
    49   23  148 1    
    50   24   25 am   BACKBONE|DICT|INTERRES
    51   24  149 1    
    52   25   26 2    
    53   25   27 1    
    54   27   28 1    
    55   27   29 1    
    56   27  150 1    
    57   28  151 1    
    58   28  152 1    
    59   28  153 1    
    60   29   30 am   BACKBONE|DICT|INTERRES
    61   29  154 1    
    62   30   31 2    
    63   30   32 1    
    64   32   33 1    
    65   32   34 1    
    66   32  155 1    
    67   33  156 1    
    68   33  157 1    
    69   33  158 1    
    70   34   35 am   BACKBONE|DICT|INTERRES
    71   34  159 1    
    72   35   36 2    
    73   35   37 1    
    74   37   38 1    
    75   37   39 1    
    76   37  160 1    
    77   38  161 1    
    78   38  162 1    
    79   38  163 1    
    80   39   40 am   BACKBONE|DICT|INTERRES
    81   39  164 1    
    82   40   41 2    
    83   40   42 1    
    84   42   43 1    
    85   42   44 1    
    86   42  165 1    
    87   43  166 1    
    88   43  167 1    
    89   43  168 1    
    90   44   45 am   BACKBONE|DICT|INTERRES
    91   44  169 1    
    92   45   46 2    
    93   45   47 1    
    94   47   48 1    
    95   47   49 1    
    96   47  170 1    
    97   48  171 1    
    98   48  172 1    
    99   48  173 1    
   100   49   50 am   BACKBONE|DICT|INTERRES
   101   49  174 1    
   102   50   51 2    
   103   50   52 1    
   104   52   53 1    
   105   52   54 1    
   106   52  175 1    
   107   53  176 1    
   108   53  177 1    
   109   53  178 1    
   110   54   55 am   BACKBONE|DICT|INTERRES
   111   54  179 1    
   112   55   56 2    
   113   55   57 1    
   114   57   58 1    
   115   57   59 1    
   116   57  180 1    
   117   58  181 1    
   118   58  182 1    
   119   58  183 1    
   120   59   60 am   BACKBONE|DICT|INTERRES
   121   59  184 1    
   122   60   61 2    
   123   60   62 1    
   124   62   63 1    
   125   62   64 1    
   126   62  185 1    
   127   63  186 1    
   128   63  187 1    
   129   63  188 1    
   130   64   65 am   BACKBONE|DICT|INTERRES
   131   64  189 1    
   132   65   66 2    
   133   67   68 2    
   134   67   69 am   BACKBONE|DICT|INTERRES
   135   69   70 1    
   136   69  190 1    
   137   70   71 1    
   138   70   72 1    
   139   70  191 1    
   140   71  192 1    
   141   71  193 1    
   142   71  194 1    
   143   72   73 2    
   144   72   74 am   BACKBONE|DICT|INTERRES
   145   74   75 1    
   146   74  195 1    
   147   75   76 1    
   148   75   77 1    
   149   75  196 1    
   150   76  197 1    
   151   76  198 1    
   152   76  199 1    
   153   77   78 2    
   154   77   79 am   BACKBONE|DICT|INTERRES
   155   79   80 1    
   156   79  200 1    
   157   80   81 1    
   158   80   82 1    
   159   80  201 1    
   160   81  202 1    
   161   81  203 1    
   162   81  204 1    
   163   82   83 2    
   164   82   84 am   BACKBONE|DICT|INTERRES
   165   84   85 1    
   166   84  205 1    
   167   85   86 1    
   168   85   87 1    
   169   85  206 1    
   170   86  207 1    
   171   86  208 1    
   172   86  209 1    
   173   87   88 2    
   174   87   89 am   BACKBONE|DICT|INTERRES
   175   89   90 1    
   176   89  210 1    
   177   90   91 1    
   178   90   92 1    
   179   90  211 1    
   180   91  212 1    
   181   91  213 1    
   182   91  214 1    
   183   92   93 2    
   184   92   94 am   BACKBONE|DICT|INTERRES
   185   94   95 1    
   186   94  215 1    
   187   95   96 1    
   188   95   97 1    
   189   95  216 1    
   190   96  217 1    
   191   96  218 1    
   192   96  219 1    
   193   97   98 2    
   194   97   99 am   BACKBONE|DICT|INTERRES
   195   99  100 1    
   196   99  220 1    
   197  100  101 1    
   198  100  102 1    
   199  100  221 1    
   200  101  222 1    
   201  101  223 1    
   202  101  224 1    
   203  102  103 2    
   204  102  104 am   BACKBONE|DICT|INTERRES
   205  104  105 1    
   206  104  225 1    
   207  105  106 1    
   208  105  107 1    
   209  105  226 1    
   210  106  227 1    
   211  106  228 1    
   212  106  229 1    
   213  107  108 2    
   214  107  109 am   BACKBONE|DICT|INTERRES
   215  109  110 1    
   216  109  230 1    
   217  110  111 1    
   218  110  112 1    
   219  110  231 1    
   220  111  232 1    
   221  111  233 1    
   222  111  234 1    
   223  112  113 2    
   224  112  114 am   BACKBONE|DICT|INTERRES
   225  114  115 1    
   226  114  235 1    
   227  115  116 1    
   228  115  117 1    
   229  115  236 1    
   230  116  237 1    
   231  116  238 1    
   232  116  239 1    
   233  117  118 2    
   234  117  119 am   BACKBONE|DICT|INTERRES
   235  119  120 1    
   236  119  240 1    
   237  120  121 1    
   238  120  124 1    
   239  120  241 1    
   240  121  122 am   BACKBONE|DICT|INTERRES
   241  121  123 2    
   242  122  242 1    
   243  122  243 1    
   244  124  125 1    
   245  124  244 1    
   246  124  245 1    
   247  125  126 1    
   248  126  246 1    
   249  126  247 1    
@<TRIPOS>SUBSTRUCTURE
     1 UNK         1 GROUP             0       ****    0 ROOT    
