@<TRIPOS>MOLECULE
3R540
247   249    1
SMALL
USER_CHARGES


@<TRIPOS>ATOM
      1 CA          4.3865  -16.4890  -45.0746 C.3       0 UNK        -0.1800 
      2 C           3.8218  -15.7064  -46.2494 C.2       0 UNK         0.5000 
      3 O           2.7048  -15.1971  -46.1651 O.2       0 UNK        -0.5000 
      4 N           4.6037  -15.5965  -47.3323 N.am      1 UNK        -0.5000 
      5 CA          4.2469  -15.0125  -48.6363 C.3       1 UNK         0.1400 
      6 C6          5.4335  -15.0589  -49.6327 C.3       23 UNK        -0.0398 
      7 S7          6.2687  -16.6791  -49.7359 S.3       23 UNK        -0.2404 
      8 C8          5.6294  -17.3387  -51.3048 C.3       23 UNK        -0.0205 
      9 C9          4.2996  -18.0519  -51.1198 C.ar      23 UNK        -0.0193 
     10 C10         3.1033  -17.4614  -51.5377 C.ar      23 UNK        -0.1150 
     11 C11         1.8937  -18.1581  -51.4360 C.ar      23 UNK        -0.0193 
     12 C12         1.8884  -19.4469  -50.8866 C.ar      23 UNK        -0.1150 
     13 C13         3.0788  -20.0417  -50.4550 C.ar      23 UNK        -0.0193 
     14 C14         4.2788  -19.3385  -50.5773 C.ar      23 UNK        -0.1150 
     15 C15         3.0913  -21.4689  -49.9255 C.3       23 UNK        -0.0205 
     16 S16         3.5605  -21.5723  -48.1652 S.3       23 UNK        -0.2404 
     17 C17         2.0610  -20.9599  -47.3265 C.3       23 UNK        -0.0398 
     18 CA          1.1283  -22.1019  -46.8463 C.3       11 UNK         0.1400 
     19 N           0.2011  -21.6570  -45.8007 N.am      11 UNK        -0.5000 
     20 C          -0.6489  -22.4560  -45.1368 C.2       10 UNK         0.5000 
     21 O          -0.6958  -23.6777  -45.2819 O.2       10 UNK        -0.5000 
     22 CA         -1.6530  -21.7735  -44.1897 C.3       10 UNK         0.1400 
     23 CB         -0.9973  -21.4405  -42.8416 C.3       10 UNK        -0.1800 
     24 N          -2.2372  -20.5622  -44.7651 N.am      10 UNK        -0.5000 
     25 C          -2.9966  -20.5277  -45.8689 C.2       9 UNK         0.5000 
     26 O          -3.3331  -21.5271  -46.4990 O.2       9 UNK        -0.5000 
     27 CA         -3.3998  -19.1404  -46.3945 C.3       9 UNK         0.1400 
     28 CB         -4.6318  -18.5997  -45.6532 C.3       9 UNK        -0.1800 
     29 N          -2.3056  -18.1755  -46.3052 N.am      9 UNK        -0.5000 
     30 C          -1.1528  -18.2719  -46.9820 C.2       8 UNK         0.5000 
     31 O          -0.8891  -19.1871  -47.7627 O.2       8 UNK        -0.5000 
     32 CA         -0.1033  -17.1879  -46.6817 C.3       8 UNK         0.1400 
     33 CB         -0.4854  -15.8587  -47.3508 C.3       8 UNK        -0.1800 
     34 N           0.0703  -16.9781  -45.2423 N.am      8 UNK        -0.5000 
     35 C           0.5832  -17.8890  -44.4032 C.2       7 UNK         0.5000 
     36 O           1.0004  -18.9897  -44.7622 O.2       7 UNK        -0.5000 
     37 CA          0.5855  -17.5346  -42.9027 C.3       7 UNK         0.1400 
     38 CB          1.8448  -16.7387  -42.5320 C.3       7 UNK        -0.1800 
     39 N          -0.5946  -16.7872  -42.4622 N.am      7 UNK        -0.5000 
     40 C          -1.8668  -17.1918  -42.5821 C.2       6 UNK         0.5000 
     41 O          -2.1906  -18.2474  -43.1237 O.2       6 UNK        -0.5000 
     42 CA         -2.9695  -16.2816  -42.0044 C.3       6 UNK         0.1400 
     43 CB         -3.7075  -16.9934  -40.8595 C.3       6 UNK        -0.1800 
     44 N          -2.4959  -14.9815  -41.5193 N.am      6 UNK        -0.5000 
     45 C          -2.0948  -13.9672  -42.2970 C.2       5 UNK         0.5000 
     46 O          -1.9977  -14.0433  -43.5218 O.2       5 UNK        -0.5000 
     47 CA         -1.6817  -12.6757  -41.5758 C.3       5 UNK         0.1400 
     48 CB         -2.6987  -12.2525  -40.4999 C.3       5 UNK        -0.1800 
     49 N          -0.3741  -12.8846  -40.9513 N.am      5 UNK        -0.5000 
     50 C           0.7993  -12.3065  -41.2472 C.2       4 UNK         0.5000 
     51 O           1.8298  -12.6554  -40.6723 O.2       4 UNK        -0.5000 
     52 CA          0.8841  -11.2288  -42.3479 C.3       4 UNK         0.1400 
     53 CB          2.1649  -10.3785  -42.2475 C.3       4 UNK        -0.1800 
     54 N           0.8777  -11.8956  -43.6449 N.am      4 UNK        -0.5000 
     55 C           0.0219  -11.6521  -44.6433 C.2       3 UNK         0.5000 
     56 O          -0.8683  -10.8006  -44.5972 O.2       3 UNK        -0.5000 
     57 CA          0.2298  -12.5107  -45.9052 C.3       3 UNK         0.1400 
     58 CB         -0.7872  -12.2111  -47.0265 C.3       3 UNK        -0.1800 
     59 N           1.6068  -12.4195  -46.4030 N.am      3 UNK        -0.5000 
     60 C           2.2414  -11.3095  -46.8187 C.2       2 UNK         0.5000 
     61 O           1.7192  -10.1952  -46.8685 O.2       2 UNK        -0.5000 
     62 CA          3.7181  -11.4480  -47.2420 C.3       2 UNK         0.1400 
     63 CB          4.6386  -10.8775  -46.1508 C.3       2 UNK        -0.1800 
     64 N           4.1315  -12.8215  -47.5272 N.am      2 UNK        -0.5000 
     65 C           3.7177  -13.5623  -48.5649 C.2       1 UNK         0.5000 
     66 O           2.9615  -13.1466  -49.4432 O.2       1 UNK        -0.5000 
     67 C           0.3717  -22.7379  -48.0286 C.2       11 UNK         0.5000 
     68 O           0.6960  -23.8521  -48.4397 O.2       11 UNK        -0.5000 
     69 N          -0.6417  -22.0255  -48.5347 N.am      12 UNK        -0.5000 
     70 CA         -1.4916  -22.4725  -49.6333 C.3       12 UNK         0.1400 
     71 CB         -2.3763  -21.3087  -50.0781 C.3       12 UNK        -0.1800 
     72 C          -2.3171  -23.7262  -49.2948 C.2       12 UNK         0.5000 
     73 O          -2.4139  -24.6199  -50.1335 O.2       12 UNK        -0.5000 
     74 N          -2.8452  -23.8052  -48.0659 N.am      13 UNK        -0.5000 
     75 CA         -3.5420  -24.9781  -47.5367 C.3       13 UNK         0.1400 
     76 CB         -4.1546  -24.6510  -46.1666 C.3       13 UNK        -0.1800 
     77 C          -2.6295  -26.2143  -47.4423 C.2       13 UNK         0.5000 
     78 O          -3.0466  -27.3014  -47.8416 O.2       13 UNK        -0.5000 
     79 N          -1.3887  -26.0241  -46.9684 N.am      14 UNK        -0.5000 
     80 CA         -0.3541  -27.0616  -46.9125 C.3       14 UNK         0.1400 
     81 CB          0.8473  -26.5495  -46.1037 C.3       14 UNK        -0.1800 
     82 C           0.0880  -27.5450  -48.3083 C.2       14 UNK         0.5000 
     83 O           0.3644  -28.7323  -48.4820 O.2       14 UNK        -0.5000 
     84 N           0.1028  -26.6278  -49.2846 N.am      15 UNK        -0.5000 
     85 CA          0.3512  -26.9013  -50.7021 C.3       15 UNK         0.1400 
     86 CB          0.7841  -25.5941  -51.3865 C.3       15 UNK        -0.1800 
     87 C          -0.8568  -27.5279  -51.4358 C.2       15 UNK         0.5000 
     88 O          -0.7144  -27.9049  -52.5998 O.2       15 UNK        -0.5000 
     89 N          -2.0125  -27.6213  -50.7595 N.am      16 UNK        -0.5000 
     90 CA         -3.3054  -28.1171  -51.2442 C.3       16 UNK         0.1400 
     91 CB         -3.2239  -29.6117  -51.6201 C.3       16 UNK        -0.1800 
     92 C          -3.9229  -27.2406  -52.3560 C.2       16 UNK         0.5000 
     93 O          -4.6395  -27.7508  -53.2199 O.2       16 UNK        -0.5000 
     94 N          -3.6487  -25.9328  -52.3032 N.am      17 UNK        -0.5000 
     95 CA         -4.2354  -24.9060  -53.1585 C.3       17 UNK         0.1400 
     96 CB         -3.1518  -23.8562  -53.4596 C.3       17 UNK        -0.1800 
     97 C          -5.4509  -24.2610  -52.4647 C.2       17 UNK         0.5000 
     98 O          -5.7213  -24.5354  -51.2918 O.2       17 UNK        -0.5000 
     99 N          -6.1635  -23.3996  -53.2031 N.am      18 UNK        -0.5000 
    100 CA        -7.2742  -22.5868  -52.7059 C.3       18 UNK         0.1400 
    101 CB        -8.0167  -21.9662  -53.9014 C.3       18 UNK        -0.1800 
    102 C         -6.7539  -21.5036  -51.7443 C.2       18 UNK         0.5000 
    103 O         -6.2656  -20.4676  -52.2015 O.2       18 UNK        -0.5000 
    104 N         -6.8242  -21.7826  -50.4368 N.am      19 UNK        -0.5000 
    105 CA        -6.2085  -21.0018  -49.3601 C.3       19 UNK         0.1400 
    106 CB        -6.4963  -21.6843  -48.0161 C.3       19 UNK        -0.1800 
    107 C         -6.6111  -19.5168  -49.3202 C.2       19 UNK         0.5000 
    108 O         -5.7683  -18.6699  -49.0275 O.2       19 UNK        -0.5000 
    109 N         -7.8717  -19.2244  -49.6654 N.am      20 UNK        -0.5000 
    110 CA        -8.4234  -17.8691  -49.7409 C.3       20 UNK         0.1400 
    111 CB        -9.9498  -17.9641  -49.8880 C.3       20 UNK        -0.1800 
    112 C         -7.8271  -17.0124  -50.8776 C.2       20 UNK         0.5000 
    113 O         -7.8493  -15.7851  -50.7792 O.2       20 UNK        -0.5000 
    114 N         -7.3114  -17.6651  -51.9272 N.am      21 UNK        -0.5000 
    115 CA        -6.6926  -17.0336  -53.0947 C.3       21 UNK         0.1400 
    116 CB        -7.2694  -17.6993  -54.3558 C.3       21 UNK        -0.1800 
    117 C         -5.1554  -17.1548  -53.0803 C.2       21 UNK         0.5000 
    118 O         -4.5044  -16.6428  -53.9921 O.2       21 UNK        -0.5000 
    119 N         -4.6032  -17.8456  -52.0738 N.am      22 UNK        -0.5000 
    120 CA        -3.2056  -18.2983  -52.0038 C.3       22 UNK         0.1400 
    121 C         -2.8504  -19.3662  -53.0891 C.2       22 UNK         0.5000 
    122 N         -3.7935  -20.1982  -53.5126 N.am      22 UNK        -0.7600 
    123 O         -1.7213  -19.4569  -53.5589 O.2       22 UNK        -0.5000 
    124 C124       -2.1841  -17.1267  -51.8976 C.3       23 UNK        -0.0398 
    125 S125       -0.7638  -17.5351  -50.8209 S.3       23 UNK        -0.2404 
    126 C126        0.6160  -17.5532  -52.0087 C.3       23 UNK        -0.0205 
    127 H127        3.8060  -17.3991  -44.9243 H         1 UNK         0.0600 
    128 H128        4.3370  -15.8903  -44.1653 H         1 UNK         0.0600 
    129 H129        5.4264  -16.7726  -45.2380 H         1 UNK         0.0600 
    130 H130        5.5104  -16.0424  -47.3178 H         1 UNK         0.3000 
    131 H131        3.4393  -15.6267  -49.0398 H         1 UNK         0.0600 
    132 H132        5.1027  -14.7576  -50.6282 H         1 UNK         0.0800 
    133 H133        6.1967  -14.3337  -49.3431 H         1 UNK         0.0800 
    134 H134        6.3574  -18.0477  -51.7021 H         1 UNK         0.0800 
    135 H135        5.5513  -16.5459  -52.0500 H         1 UNK         0.0800 
    136 H136        3.1206  -16.4743  -51.9780 H         1 UNK         0.1150 
    137 H137        0.9584  -19.9948  -50.8224 H         1 UNK         0.1150 
    138 H138        5.2039  -19.8023  -50.2641 H         1 UNK         0.1150 
    139 H139        2.1281  -21.9518  -50.0892 H         1 UNK         0.0800 
    140 H140        3.8125  -22.0462  -50.5056 H         1 UNK         0.0800 
    141 H141        1.5384  -20.2429  -47.9612 H         1 UNK         0.0800 
    142 H142        2.4104  -20.3890  -46.4661 H         1 UNK         0.0800 
    143 H143        1.7470  -22.8812  -46.3960 H         1 UNK         0.0600 
    144 H144        0.2039  -20.6647  -45.5887 H         1 UNK         0.3000 
    145 H145       -2.4675  -22.4767  -44.0056 H         1 UNK         0.0600 
    146 H146       -1.7171  -21.0012  -42.1506 H         1 UNK         0.0600 
    147 H147       -0.5982  -22.3392  -42.3700 H         1 UNK         0.0600 
    148 H148       -0.1731  -20.7371  -42.9575 H         1 UNK         0.0600 
    149 H149       -2.0587  -19.6893  -44.2736 H         1 UNK         0.3000 
    150 H150       -3.6586  -19.2509  -47.4491 H         1 UNK         0.0600 
    151 H151       -5.4666  -19.2975  -45.7230 H         1 UNK         0.0600 
    152 H152       -4.9651  -17.6555  -46.0842 H         1 UNK         0.0600 
    153 H153       -4.4312  -18.4353  -44.5945 H         1 UNK         0.0600 
    154 H154       -2.4147  -17.4270  -45.6381 H         1 UNK         0.3000 
    155 H155        0.8489  -17.5205  -47.1015 H         1 UNK         0.0600 
    156 H156       -1.3387  -15.3868  -46.8625 H         1 UNK         0.0600 
    157 H157        0.3480  -15.1586  -47.3321 H         1 UNK         0.0600 
    158 H158       -0.7496  -16.0019  -48.3973 H         1 UNK         0.0600 
    159 H159       -0.2566  -16.1029  -44.8613 H         1 UNK         0.3000 
    160 H160        0.6002  -18.4720  -42.3437 H         1 UNK         0.0600 
    161 H161        1.9109  -15.8036  -43.0903 H         1 UNK         0.0600 
    162 H162        2.7436  -17.3179  -42.7440 H         1 UNK         0.0600 
    163 H163        1.8640  -16.4974  -41.4690 H         1 UNK         0.0600 
    164 H164       -0.4255  -15.9048  -42.0048 H         1 UNK         0.3000 
    165 H165       -3.6857  -16.1036  -42.8093 H         1 UNK         0.0600 
    166 H166       -4.5405  -16.3932  -40.4930 H         1 UNK         0.0600 
    167 H167       -4.1202  -17.9476  -41.1905 H         1 UNK         0.0600 
    168 H168       -3.0434  -17.1975  -40.0187 H         1 UNK         0.0600 
    169 H169       -2.5342  -14.8418  -40.5202 H         1 UNK         0.3000 
    170 H170       -1.6689  -11.8869  -42.3235 H         1 UNK         0.0600 
    171 H171       -3.7048  -12.1857  -40.9161 H         1 UNK         0.0600 
    172 H172       -2.7321  -12.9481  -39.6608 H         1 UNK         0.0600 
    173 H173       -2.4502  -11.2695  -40.0993 H         1 UNK         0.0600 
    174 H174       -0.3591  -13.5936  -40.2334 H         1 UNK         0.3000 
    175 H175        0.0411  -10.5458  -42.2344 H         1 UNK         0.0600 
    176 H176        3.0656  -10.9798  -42.3777 H         1 UNK         0.0600 
    177 H177        2.1757   -9.5981  -43.0087 H         1 UNK         0.0600 
    178 H178        2.2324   -9.8867  -41.2764 H         1 UNK         0.0600 
    179 H179        1.5686  -12.6226  -43.7672 H         1 UNK         0.3000 
    180 H180        0.0810  -13.5447  -45.5928 H         1 UNK         0.0600 
    181 H181       -0.7444  -11.1711  -47.3508 H         1 UNK         0.0600 
    182 H182       -1.8050  -12.4056  -46.6861 H         1 UNK         0.0600 
    183 H183       -0.6100  -12.8400  -47.8988 H         1 UNK         0.0600 
    184 H184        2.1262  -13.2929  -46.3983 H         1 UNK         0.3000 
    185 H185        3.8542  -10.8577  -48.1505 H         1 UNK         0.0600 
    186 H186        4.5519  -11.4375  -45.2186 H         1 UNK         0.0600 
    187 H187        5.6831  -10.9006  -46.4624 H         1 UNK         0.0600 
    188 H188        4.3898   -9.8381  -45.9323 H         1 UNK         0.0600 
    189 H189        4.7460  -13.2564  -46.8544 H         1 UNK         0.3000 
    190 H190       -0.8337  -21.1024  -48.1537 H         1 UNK         0.3000 
    191 H191       -0.8414  -22.7318  -50.4711 H         1 UNK         0.0600 
    192 H192       -2.9147  -20.8734  -49.2371 H         1 UNK         0.0600 
    193 H193       -3.1042  -21.6179  -50.8291 H         1 UNK         0.0600 
    194 H194       -1.7583  -20.5256  -50.5152 H         1 UNK         0.0600 
    195 H195       -2.7841  -22.9978  -47.4492 H         1 UNK         0.3000 
    196 H196       -4.3559  -25.2161  -48.2250 H         1 UNK         0.0600 
    197 H197       -4.6927  -25.5100  -45.7642 H         1 UNK         0.0600 
    198 H198       -4.8645  -23.8274  -46.2359 H         1 UNK         0.0600 
    199 H199       -3.3910  -24.3718  -45.4406 H         1 UNK         0.0600 
    200 H200       -1.1288  -25.1046  -46.6235 H         1 UNK         0.3000 
    201 H201       -0.7736  -27.9208  -46.3853 H         1 UNK         0.0600 
    202 H202        0.5524  -26.2797  -45.0895 H         1 UNK         0.0600 
    203 H203        1.2999  -25.6711  -46.5639 H         1 UNK         0.0600 
    204 H204        1.6205  -27.3147  -46.0255 H         1 UNK         0.0600 
    205 H205       -0.0671  -25.6587  -49.0353 H         1 UNK         0.3000 
    206 H206        1.1779  -27.6107  -50.7758 H         1 UNK         0.0600 
    207 H207        1.6478  -25.1531  -50.8883 H         1 UNK         0.0600 
    208 H208        1.0633  -25.7695  -52.4260 H         1 UNK         0.0600 
    209 H209       -0.0169  -24.8553  -51.3845 H         1 UNK         0.0600 
    210 H210       -2.0261  -27.2613  -49.8135 H         1 UNK         0.3000 
    211 H211       -3.9870  -28.0352  -50.3966 H         1 UNK         0.0600 
    212 H212       -2.6209  -29.7744  -52.5136 H         1 UNK         0.0600 
    213 H213       -4.2158  -30.0190  -51.8185 H         1 UNK         0.0600 
    214 H214       -2.7903  -30.1983  -50.8100 H         1 UNK         0.0600 
    215 H215       -3.1171  -25.5814  -51.5083 H         1 UNK         0.3000 
    216 H216       -4.5678  -25.3464  -54.1006 H         1 UNK         0.0600 
    217 H217       -3.5065  -23.1170  -54.1775 H         1 UNK         0.0600 
    218 H218       -2.2637  -24.3202  -53.8891 H         1 UNK         0.0600 
    219 H219       -2.8445  -23.3219  -52.5605 H         1 UNK         0.0600 
    220 H220       -5.8743  -23.2180  -54.1530 H         1 UNK         0.3000 
    221 H221       -7.9736  -23.2314  -52.1694 H         1 UNK         0.0600 
    222 H222       -7.3568  -21.3529  -54.5164 H         1 UNK         0.0600 
    223 H223       -8.4467  -22.7376  -54.5405 H         1 UNK         0.0600 
    224 H224       -8.8359  -21.3296  -53.5646 H         1 UNK         0.0600 
    225 H225       -7.1963  -22.6829  -50.1686 H         1 UNK         0.3000 
    226 H226       -5.1336  -21.0336  -49.5265 H         1 UNK         0.0600 
    227 H227       -6.1066  -22.7022  -48.0041 H         1 UNK         0.0600 
    228 H228       -6.0214  -21.1490  -47.1939 H         1 UNK         0.0600 
    229 H229       -7.5656  -21.7293  -47.8068 H         1 UNK         0.0600 
    230 H230       -8.4920  -19.9836  -49.9062 H         1 UNK         0.3000 
    231 H231       -8.2016  -17.3620  -48.7994 H         1 UNK         0.0600 
    232 H232      -10.4025  -16.9720  -49.9174 H         1 UNK         0.0600 
    233 H233      -10.3953  -18.4976  -49.0482 H         1 UNK         0.0600 
    234 H234      -10.2339  -18.4817  -50.8052 H         1 UNK         0.0600 
    235 H235       -7.2938  -18.6786  -51.9156 H         1 UNK         0.3000 
    236 H236       -6.9345  -15.9696  -53.1297 H         1 UNK         0.0600 
    237 H237       -8.3547  -17.6037  -54.3907 H         1 UNK         0.0600 
    238 H238       -6.8746  -17.2368  -55.2612 H         1 UNK         0.0600 
    239 H239       -7.0249  -18.7616  -54.3962 H         1 UNK         0.0600 
    240 H240       -5.2183  -18.2181  -51.3641 H         1 UNK         0.3000 
    241 H241       -3.1762  -18.8350  -51.0575 H         1 UNK         0.0600 
    242 H242       -4.7277  -20.1785  -53.1094 H         1 UNK         0.3800 
    243 H243       -3.5653  -20.8655  -54.2292 H         1 UNK         0.3800 
    244 H244       -1.8464  -16.8016  -52.8830 H         1 UNK         0.0800 
    245 H245       -2.6641  -16.2553  -51.4508 H         1 UNK         0.0800 
    246 H246        0.3389  -18.1288  -52.8907 H         1 UNK         0.0800 
    247 H247        0.7902  -16.5319  -52.3505 H         1 UNK         0.0800 
@<TRIPOS>BOND
     1    1    2 1    
     2    1  127 1    
     3    1  128 1    
     4    1  129 1    
     5    2    3 2    
     6    2    4 am   BACKBONE|DICT|INTERRES
     7    4    5 1    
     8    4  130 1    
     9    5    6 1    
    10    5   65 1    
    11    5  131 1    
    12    6    7 1    
    13    6  132 1    
    14    6  133 1    
    15    7    8 1    
    16    8    9 1    
    17    8  134 1    
    18    8  135 1    
    19    9   10 ar   
    20    9   14 ar   
    21   10   11 ar   
    22   10  136 1    
    23   11   12 ar   
    24   11  126 1    
    25   12   13 ar   
    26   12  137 1    
    27   13   14 ar   
    28   13   15 1    
    29   14  138 1    
    30   15   16 1    
    31   15  139 1    
    32   15  140 1    
    33   16   17 1    
    34   17   18 1    
    35   17  141 1    
    36   17  142 1    
    37   18   19 1    
    38   18   67 1    
    39   18  143 1    
    40   19   20 am   BACKBONE|DICT|INTERRES
    41   19  144 1    
    42   20   21 2    
    43   20   22 1    
    44   22   23 1    
    45   22   24 1    
    46   22  145 1    
    47   23  146 1    
    48   23  147 1    
    49   23  148 1    
    50   24   25 am   BACKBONE|DICT|INTERRES
    51   24  149 1    
    52   25   26 2    
    53   25   27 1    
    54   27   28 1    
    55   27   29 1    
    56   27  150 1    
    57   28  151 1    
    58   28  152 1    
    59   28  153 1    
    60   29   30 am   BACKBONE|DICT|INTERRES
    61   29  154 1    
    62   30   31 2    
    63   30   32 1    
    64   32   33 1    
    65   32   34 1    
    66   32  155 1    
    67   33  156 1    
    68   33  157 1    
    69   33  158 1    
    70   34   35 am   BACKBONE|DICT|INTERRES
    71   34  159 1    
    72   35   36 2    
    73   35   37 1    
    74   37   38 1    
    75   37   39 1    
    76   37  160 1    
    77   38  161 1    
    78   38  162 1    
    79   38  163 1    
    80   39   40 am   BACKBONE|DICT|INTERRES
    81   39  164 1    
    82   40   41 2    
    83   40   42 1    
    84   42   43 1    
    85   42   44 1    
    86   42  165 1    
    87   43  166 1    
    88   43  167 1    
    89   43  168 1    
    90   44   45 am   BACKBONE|DICT|INTERRES
    91   44  169 1    
    92   45   46 2    
    93   45   47 1    
    94   47   48 1    
    95   47   49 1    
    96   47  170 1    
    97   48  171 1    
    98   48  172 1    
    99   48  173 1    
   100   49   50 am   BACKBONE|DICT|INTERRES
   101   49  174 1    
   102   50   51 2    
   103   50   52 1    
   104   52   53 1    
   105   52   54 1    
   106   52  175 1    
   107   53  176 1    
   108   53  177 1    
   109   53  178 1    
   110   54   55 am   BACKBONE|DICT|INTERRES
   111   54  179 1    
   112   55   56 2    
   113   55   57 1    
   114   57   58 1    
   115   57   59 1    
   116   57  180 1    
   117   58  181 1    
   118   58  182 1    
   119   58  183 1    
   120   59   60 am   BACKBONE|DICT|INTERRES
   121   59  184 1    
   122   60   61 2    
   123   60   62 1    
   124   62   63 1    
   125   62   64 1    
   126   62  185 1    
   127   63  186 1    
   128   63  187 1    
   129   63  188 1    
   130   64   65 am   BACKBONE|DICT|INTERRES
   131   64  189 1    
   132   65   66 2    
   133   67   68 2    
   134   67   69 am   BACKBONE|DICT|INTERRES
   135   69   70 1    
   136   69  190 1    
   137   70   71 1    
   138   70   72 1    
   139   70  191 1    
   140   71  192 1    
   141   71  193 1    
   142   71  194 1    
   143   72   73 2    
   144   72   74 am   BACKBONE|DICT|INTERRES
   145   74   75 1    
   146   74  195 1    
   147   75   76 1    
   148   75   77 1    
   149   75  196 1    
   150   76  197 1    
   151   76  198 1    
   152   76  199 1    
   153   77   78 2    
   154   77   79 am   BACKBONE|DICT|INTERRES
   155   79   80 1    
   156   79  200 1    
   157   80   81 1    
   158   80   82 1    
   159   80  201 1    
   160   81  202 1    
   161   81  203 1    
   162   81  204 1    
   163   82   83 2    
   164   82   84 am   BACKBONE|DICT|INTERRES
   165   84   85 1    
   166   84  205 1    
   167   85   86 1    
   168   85   87 1    
   169   85  206 1    
   170   86  207 1    
   171   86  208 1    
   172   86  209 1    
   173   87   88 2    
   174   87   89 am   BACKBONE|DICT|INTERRES
   175   89   90 1    
   176   89  210 1    
   177   90   91 1    
   178   90   92 1    
   179   90  211 1    
   180   91  212 1    
   181   91  213 1    
   182   91  214 1    
   183   92   93 2    
   184   92   94 am   BACKBONE|DICT|INTERRES
   185   94   95 1    
   186   94  215 1    
   187   95   96 1    
   188   95   97 1    
   189   95  216 1    
   190   96  217 1    
   191   96  218 1    
   192   96  219 1    
   193   97   98 2    
   194   97   99 am   BACKBONE|DICT|INTERRES
   195   99  100 1    
   196   99  220 1    
   197  100  101 1    
   198  100  102 1    
   199  100  221 1    
   200  101  222 1    
   201  101  223 1    
   202  101  224 1    
   203  102  103 2    
   204  102  104 am   BACKBONE|DICT|INTERRES
   205  104  105 1    
   206  104  225 1    
   207  105  106 1    
   208  105  107 1    
   209  105  226 1    
   210  106  227 1    
   211  106  228 1    
   212  106  229 1    
   213  107  108 2    
   214  107  109 am   BACKBONE|DICT|INTERRES
   215  109  110 1    
   216  109  230 1    
   217  110  111 1    
   218  110  112 1    
   219  110  231 1    
   220  111  232 1    
   221  111  233 1    
   222  111  234 1    
   223  112  113 2    
   224  112  114 am   BACKBONE|DICT|INTERRES
   225  114  115 1    
   226  114  235 1    
   227  115  116 1    
   228  115  117 1    
   229  115  236 1    
   230  116  237 1    
   231  116  238 1    
   232  116  239 1    
   233  117  118 2    
   234  117  119 am   BACKBONE|DICT|INTERRES
   235  119  120 1    
   236  119  240 1    
   237  120  121 1    
   238  120  124 1    
   239  120  241 1    
   240  121  122 am   BACKBONE|DICT|INTERRES
   241  121  123 2    
   242  122  242 1    
   243  122  243 1    
   244  124  125 1    
   245  124  244 1    
   246  124  245 1    
   247  125  126 1    
   248  126  246 1    
   249  126  247 1    
@<TRIPOS>SUBSTRUCTURE
     1 UNK         1 GROUP             0       ****    0 ROOT    
