@<TRIPOS>MOLECULE
3R540
247   249    1
SMALL
USER_CHARGES


@<TRIPOS>ATOM
      1 CA          1.2462  -12.5625  -52.3243 C.3       0 UNK        -0.1800 
      2 C           2.6298  -12.6656  -51.7015 C.2       0 UNK         0.5000 
      3 O           3.1244  -11.6834  -51.1495 O.2       0 UNK        -0.5000 
      4 N           3.2620  -13.8410  -51.8047 N.am      1 UNK        -0.5000 
      5 CA          4.6445  -14.0832  -51.3730 C.3       1 UNK         0.1400 
      6 C6          5.3032  -15.3254  -52.0386 C.3       23 UNK        -0.0398 
      7 S7          4.7849  -15.5995  -53.7755 S.3       23 UNK        -0.2404 
      8 C8          3.9880  -17.2454  -53.7422 C.3       23 UNK        -0.0205 
      9 C9          3.1002  -17.4795  -52.5248 C.ar      23 UNK        -0.0193 
     10 C10         1.8895  -16.8000  -52.3757 C.ar      23 UNK        -0.1150 
     11 C11         1.0996  -17.0019  -51.2396 C.ar      23 UNK        -0.0193 
     12 C12         1.5248  -17.8982  -50.2525 C.ar      23 UNK        -0.1150 
     13 C13         2.7250  -18.6105  -50.4010 C.ar      23 UNK        -0.0193 
     14 C14         3.5000  -18.3877  -51.5415 C.ar      23 UNK        -0.1150 
     15 C15         3.2508  -19.6332  -49.3874 C.3       23 UNK        -0.0205 
     16 S16         2.2562  -19.8948  -47.8812 S.3       23 UNK        -0.2404 
     17 C17         0.7779  -20.7367  -48.5390 C.3       23 UNK        -0.0398 
     18 CA          0.4650  -22.0870  -47.8492 C.3       11 UNK         0.1400 
     19 N           0.4538  -21.9909  -46.3869 N.am      11 UNK        -0.5000 
     20 C           0.3392  -23.0278  -45.5456 C.2       10 UNK         0.5000 
     21 O           0.2936  -24.2042  -45.9064 O.2       10 UNK        -0.5000 
     22 CA          0.1890  -22.6800  -44.0547 C.3       10 UNK         0.1400 
     23 CB          1.5619  -22.4803  -43.3964 C.3       10 UNK        -0.1800 
     24 N          -0.6368  -21.4854  -43.8618 N.am      10 UNK        -0.5000 
     25 C          -1.9630  -21.4592  -44.0663 C.2       9 UNK         0.5000 
     26 O          -2.6188  -22.4508  -44.3825 O.2       9 UNK        -0.5000 
     27 CA         -2.6740  -20.0982  -43.9442 C.3       9 UNK         0.1400 
     28 CB         -3.0922  -19.8431  -42.4887 C.3       9 UNK        -0.1800 
     29 N          -1.8582  -18.9830  -44.4227 N.am      9 UNK        -0.5000 
     30 C          -1.4191  -18.8377  -45.6797 C.2       8 UNK         0.5000 
     31 O          -1.7615  -19.5713  -46.6062 O.2       8 UNK        -0.5000 
     32 CA         -0.4038  -17.7145  -45.9565 C.3       8 UNK         0.1400 
     33 CB         -1.0911  -16.5297  -46.6338 C.3       8 UNK        -0.1800 
     34 N           0.3161  -17.2492  -44.7721 N.am      8 UNK        -0.5000 
     35 C           1.1762  -17.9922  -44.0616 C.2       7 UNK         0.5000 
     36 O           1.4068  -19.1789  -44.2932 O.2       7 UNK        -0.5000 
     37 CA          1.8494  -17.3016  -42.8662 C.3       7 UNK         0.1400 
     38 CB          2.9636  -16.3495  -43.3303 C.3       7 UNK        -0.1800 
     39 N           0.8666  -16.5621  -42.0771 N.am      7 UNK        -0.5000 
     40 C           0.0619  -17.1211  -41.1626 C.2       6 UNK         0.5000 
     41 O           0.1207  -18.3055  -40.8321 O.2       6 UNK        -0.5000 
     42 CA         -1.0016  -16.2092  -40.5202 C.3       6 UNK         0.1400 
     43 CB         -0.4408  -15.5318  -39.2608 C.3       6 UNK        -0.1800 
     44 N          -1.5054  -15.1817  -41.4333 N.am      6 UNK        -0.5000 
     45 C          -2.2346  -15.4302  -42.5304 C.2       5 UNK         0.5000 
     46 O          -2.5890  -16.5564  -42.8730 O.2       5 UNK        -0.5000 
     47 CA         -2.5896  -14.2224  -43.4167 C.3       5 UNK         0.1400 
     48 CB         -3.9266  -13.6060  -42.9804 C.3       5 UNK        -0.1800 
     49 N          -1.5574  -13.1817  -43.4342 N.am      5 UNK        -0.5000 
     50 C          -0.3057  -13.3627  -43.8733 C.2       4 UNK         0.5000 
     51 O           0.1435  -14.4505  -44.2424 O.2       4 UNK        -0.5000 
     52 CA          0.6195  -12.1391  -43.8448 C.3       4 UNK         0.1400 
     53 CB          1.6626  -12.2809  -42.7255 C.3       4 UNK        -0.1800 
     54 N           1.3058  -12.0173  -45.1243 N.am      4 UNK        -0.5000 
     55 C           0.7756  -11.4947  -46.2334 C.2       3 UNK         0.5000 
     56 O          -0.3232  -10.9373  -46.2601 O.2       3 UNK        -0.5000 
     57 CA          1.6017  -11.5979  -47.5326 C.3       3 UNK         0.1400 
     58 CB          2.6654  -10.4862  -47.5965 C.3       3 UNK        -0.1800 
     59 N           2.1993  -12.9136  -47.8055 N.am      3 UNK        -0.5000 
     60 C           3.1382  -13.5876  -47.1228 C.2       2 UNK         0.5000 
     61 O           3.6360  -13.2088  -46.0621 O.2       2 UNK        -0.5000 
     62 CA          3.6211  -14.9053  -47.7530 C.3       2 UNK         0.1400 
     63 CB          2.6776  -16.0623  -47.3987 C.3       2 UNK        -0.1800 
     64 N           3.7435  -14.8028  -49.2075 N.am      2 UNK        -0.5000 
     65 C           4.7453  -14.1698  -49.8373 C.2       1 UNK         0.5000 
     66 O           5.7092  -13.6642  -49.2607 O.2       1 UNK        -0.5000 
     67 C          -0.8754  -22.6462  -48.3674 C.2       11 UNK         0.5000 
     68 O          -0.8804  -23.5524  -49.1987 O.2       11 UNK        -0.5000 
     69 N          -1.9858  -22.1177  -47.8318 N.am      12 UNK        -0.5000 
     70 CA         -3.3485  -22.5520  -48.1300 C.3       12 UNK         0.1400 
     71 CB         -4.3544  -21.5841  -47.4939 C.3       12 UNK        -0.1800 
     72 C          -3.6189  -23.9968  -47.6875 C.2       12 UNK         0.5000 
     73 O          -4.2386  -24.7430  -48.4417 O.2       12 UNK        -0.5000 
     74 N          -3.1188  -24.3849  -46.5059 N.am      13 UNK        -0.5000 
     75 CA         -3.1837  -25.7549  -45.9944 C.3       13 UNK         0.1400 
     76 CB         -2.6662  -25.8017  -44.5492 C.3       13 UNK        -0.1800 
     77 C          -2.4227  -26.7520  -46.8870 C.2       13 UNK         0.5000 
     78 O          -2.9624  -27.8130  -47.2021 O.2       13 UNK        -0.5000 
     79 N          -1.2143  -26.3720  -47.3283 N.am      14 UNK        -0.5000 
     80 CA         -0.3994  -27.1358  -48.2777 C.3       14 UNK         0.1400 
     81 CB          0.9959  -26.5018  -48.3816 C.3       14 UNK        -0.1800 
     82 C          -1.0533  -27.2602  -49.6692 C.2       14 UNK         0.5000 
     83 O          -0.9502  -28.3135  -50.2986 O.2       14 UNK        -0.5000 
     84 N          -1.7478  -26.2003  -50.1030 N.am      15 UNK        -0.5000 
     85 CA         -2.5350  -26.1458  -51.3363 C.3       15 UNK         0.1400 
     86 CB         -2.6948  -24.6744  -51.7560 C.3       15 UNK        -0.1800 
     87 C          -3.9177  -26.8235  -51.2255 C.2       15 UNK         0.5000 
     88 O          -4.6535  -26.8279  -52.2121 O.2       15 UNK        -0.5000 
     89 N          -4.2766  -27.3424  -50.0404 N.am      16 UNK        -0.5000 
     90 CA         -5.5649  -27.9583  -49.6950 C.3       16 UNK         0.1400 
     91 CB         -5.7311  -29.3083  -50.4226 C.3       16 UNK        -0.1800 
     92 C          -6.7659  -27.0073  -49.9046 C.2       16 UNK         0.5000 
     93 O          -7.8387  -27.4420  -50.3267 O.2       16 UNK        -0.5000 
     94 N          -6.5400  -25.7156  -49.6244 N.am      17 UNK        -0.5000 
     95 CA         -7.4426  -24.5702  -49.7741 C.3       17 UNK         0.1400 
     96 CB         -8.6814  -24.7221  -48.8678 C.3       17 UNK        -0.1800 
     97 C          -7.8170  -24.2286  -51.2336 C.2       17 UNK         0.5000 
     98 O          -8.7102  -23.4069  -51.4460 O.2       17 UNK        -0.5000 
     99 N          -7.1303  -24.8273  -52.2180 N.am      18 UNK        -0.5000 
    100 CA        -7.3630  -24.5893  -53.6451 C.3       18 UNK         0.1400 
    101 CB        -6.9083  -25.8234  -54.4398 C.3       18 UNK        -0.1800 
    102 C         -6.6593  -23.3230  -54.1721 C.2       18 UNK         0.5000 
    103 O         -6.9755  -22.8778  -55.2766 O.2       18 UNK        -0.5000 
    104 N         -5.7179  -22.7716  -53.3977 N.am      19 UNK        -0.5000 
    105 CA        -4.9169  -21.5992  -53.7328 C.3       19 UNK         0.1400 
    106 CB        -3.7710  -22.0088  -54.6819 C.3       19 UNK        -0.1800 
    107 C         -4.3864  -20.9513  -52.4426 C.2       19 UNK         0.5000 
    108 O         -4.6579  -21.4490  -51.3463 O.2       19 UNK        -0.5000 
    109 N         -3.6226  -19.8645  -52.6155 N.am      20 UNK        -0.5000 
    110 CA        -2.9690  -19.0557  -51.5846 C.3       20 UNK         0.1400 
    111 CB        -1.9295  -19.8826  -50.7981 C.3       20 UNK        -0.1800 
    112 C         -3.9764  -18.2788  -50.7091 C.2       20 UNK         0.5000 
    113 O         -4.9277  -17.7201  -51.2583 O.2       20 UNK        -0.5000 
    114 N         -3.7204  -18.2005  -49.3921 N.am      21 UNK        -0.5000 
    115 CA        -4.4513  -17.4030  -48.3934 C.3       21 UNK         0.1400 
    116 CB        -5.9060  -17.8960  -48.2373 C.3       21 UNK        -0.1800 
    117 C         -4.3516  -15.8785  -48.6432 C.2       21 UNK         0.5000 
    118 O         -5.3021  -15.1394  -48.3805 O.2       21 UNK        -0.5000 
    119 N         -3.1951  -15.4451  -49.1596 N.am      22 UNK        -0.5000 
    120 CA        -2.8233  -14.0458  -49.4077 C.3       22 UNK         0.1400 
    121 C         -2.5227  -13.2179  -48.1215 C.2       22 UNK         0.5000 
    122 N         -2.2361  -11.9303  -48.2596 N.am      22 UNK        -0.7600 
    123 O         -2.5327  -13.7191  -47.0017 O.2       22 UNK        -0.5000 
    124 C124       -1.6807  -13.9600  -50.4564 C.3       23 UNK        -0.0398 
    125 S125       -0.1349  -14.8372  -50.0022 S.3       23 UNK        -0.2404 
    126 C126       -0.2323  -16.2800  -51.1055 C.3       23 UNK        -0.0205 
    127 H127        1.2852  -11.9408  -53.2186 H         1 UNK         0.0600 
    128 H128        0.5549  -12.1010  -51.6205 H         1 UNK         0.0600 
    129 H129        0.8525  -13.5395  -52.6048 H         1 UNK         0.0600 
    130 H130        2.8188  -14.6121  -52.2825 H         1 UNK         0.3000 
    131 H131        5.2283  -13.2134  -51.6832 H         1 UNK         0.0600 
    132 H132        5.1301  -16.2281  -51.4546 H         1 UNK         0.0800 
    133 H133        6.3869  -15.1998  -52.0346 H         1 UNK         0.0800 
    134 H134        3.3924  -17.3659  -54.6479 H         1 UNK         0.0800 
    135 H135        4.7689  -18.0056  -53.7943 H         1 UNK         0.0800 
    136 H136        1.5634  -16.1166  -53.1474 H         1 UNK         0.1150 
    137 H137        0.9071  -18.0351  -49.3785 H         1 UNK         0.1150 
    138 H138        4.4315  -18.9238  -51.6607 H         1 UNK         0.1150 
    139 H139        3.3837  -20.5940  -49.8869 H         1 UNK         0.0800 
    140 H140        4.2447  -19.3149  -49.0697 H         1 UNK         0.0800 
    141 H141        0.8934  -20.8872  -49.6139 H         1 UNK         0.0800 
    142 H142       -0.0528  -20.0440  -48.4213 H         1 UNK         0.0800 
    143 H143        1.2487  -22.7966  -48.1231 H         1 UNK         0.0600 
    144 H144        0.5060  -21.0596  -45.9993 H         1 UNK         0.3000 
    145 H145       -0.3024  -23.5206  -43.5603 H         1 UNK         0.0600 
    146 H146        1.4615  -22.2299  -42.3402 H         1 UNK         0.0600 
    147 H147        2.1574  -23.3918  -43.4602 H         1 UNK         0.0600 
    148 H148        2.1320  -21.6855  -43.8777 H         1 UNK         0.0600 
    149 H149       -0.1485  -20.6212  -43.6603 H         1 UNK         0.3000 
    150 H150       -3.5765  -20.1388  -44.5568 H         1 UNK         0.0600 
    151 H151       -3.6731  -20.6784  -42.0952 H         1 UNK         0.0600 
    152 H152       -3.7153  -18.9526  -42.4084 H         1 UNK         0.0600 
    153 H153       -2.2268  -19.7075  -41.8389 H         1 UNK         0.0600 
    154 H154       -1.6179  -18.2715  -43.7433 H         1 UNK         0.3000 
    155 H155        0.3389  -18.1074  -46.6507 H         1 UNK         0.0600 
    156 H156       -1.4476  -16.8182  -47.6205 H         1 UNK         0.0600 
    157 H157       -0.4124  -15.6874  -46.7681 H         1 UNK         0.0600 
    158 H158       -1.9461  -16.1796  -46.0554 H         1 UNK         0.0600 
    159 H159        0.1936  -16.2690  -44.5256 H         1 UNK         0.3000 
    160 H160        2.3062  -18.0739  -42.2434 H         1 UNK         0.0600 
    161 H161        2.5777  -15.5321  -43.9398 H         1 UNK         0.0600 
    162 H162        3.7059  -16.8806  -43.9275 H         1 UNK         0.0600 
    163 H163        3.4845  -15.9111  -42.4790 H         1 UNK         0.0600 
    164 H164        0.7095  -15.5990  -42.3399 H         1 UNK         0.3000 
    165 H165       -1.8426  -16.8403  -40.2244 H         1 UNK         0.0600 
    166 H166       -1.2070  -14.9452  -38.7537 H         1 UNK         0.0600 
    167 H167       -0.0763  -16.2732  -38.5485 H         1 UNK         0.0600 
    168 H168        0.3910  -14.8669  -39.4971 H         1 UNK         0.0600 
    169 H169       -1.2598  -14.2250  -41.2266 H         1 UNK         0.3000 
    170 H170       -2.7042  -14.5909  -44.4373 H         1 UNK         0.0600 
    171 H171       -4.7189  -14.3559  -42.9762 H         1 UNK         0.0600 
    172 H172       -3.8680  -13.1835  -41.9765 H         1 UNK         0.0600 
    173 H173       -4.2357  -12.8138  -43.6627 H         1 UNK         0.0600 
    174 H174       -1.8464  -12.2591  -43.1434 H         1 UNK         0.3000 
    175 H175        0.0320  -11.2369  -43.6617 H         1 UNK         0.0600 
    176 H176        2.2924  -13.1601  -42.8691 H         1 UNK         0.0600 
    177 H177        2.3142  -11.4080  -42.6833 H         1 UNK         0.0600 
    178 H178        1.1816  -12.3757  -41.7512 H         1 UNK         0.0600 
    179 H179        2.2019  -12.4903  -45.2154 H         1 UNK         0.3000 
    180 H180        0.9042  -11.4257  -48.3542 H         1 UNK         0.0600 
    181 H181        3.4080  -10.5864  -46.8045 H         1 UNK         0.0600 
    182 H182        2.2068   -9.5023  -47.4911 H         1 UNK         0.0600 
    183 H183        3.1906  -10.4996  -48.5516 H         1 UNK         0.0600 
    184 H184        1.8546  -13.3561  -48.6453 H         1 UNK         0.3000 
    185 H185        4.6031  -15.1340  -47.3331 H         1 UNK         0.0600 
    186 H186        2.5297  -16.1330  -46.3216 H         1 UNK         0.0600 
    187 H187        1.6975  -15.9420  -47.8582 H         1 UNK         0.0600 
    188 H188        3.0893  -17.0139  -47.7316 H         1 UNK         0.0600 
    189 H189        2.9936  -15.1935  -49.7600 H         1 UNK         0.3000 
    190 H190       -1.8922  -21.3341  -47.1906 H         1 UNK         0.3000 
    191 H191       -3.4793  -22.5124  -49.2118 H         1 UNK         0.0600 
    192 H192       -4.3008  -21.6014  -46.4057 H         1 UNK         0.0600 
    193 H193       -5.3753  -21.8411  -47.7789 H         1 UNK         0.0600 
    194 H194       -4.1720  -20.5619  -47.8216 H         1 UNK         0.0600 
    195 H195       -2.6825  -23.6929  -45.9046 H         1 UNK         0.3000 
    196 H196       -4.2340  -26.0540  -45.9857 H         1 UNK         0.0600 
    197 H197       -2.7323  -26.8121  -44.1439 H         1 UNK         0.0600 
    198 H198       -3.2532  -25.1522  -43.8997 H         1 UNK         0.0600 
    199 H199       -1.6246  -25.4888  -44.4817 H         1 UNK         0.0600 
    200 H200       -0.8243  -25.4956  -46.9951 H         1 UNK         0.3000 
    201 H201       -0.2828  -28.1451  -47.8776 H         1 UNK         0.0600 
    202 H202        1.4901  -26.4766  -47.4102 H         1 UNK         0.0600 
    203 H203        0.9485  -25.4797  -48.7575 H         1 UNK         0.0600 
    204 H204        1.6345  -27.0714  -49.0577 H         1 UNK         0.0600 
    205 H205       -1.7173  -25.3473  -49.5533 H         1 UNK         0.3000 
    206 H206       -1.9849  -26.6640  -52.1241 H         1 UNK         0.0600 
    207 H207       -1.7265  -24.1890  -51.8787 H         1 UNK         0.0600 
    208 H208       -3.2207  -24.5934  -52.7077 H         1 UNK         0.0600 
    209 H209       -3.2628  -24.1058  -51.0197 H         1 UNK         0.0600 
    210 H210       -3.6216  -27.2575  -49.2732 H         1 UNK         0.3000 
    211 H211       -5.5252  -28.1627  -48.6243 H         1 UNK         0.0600 
    212 H212       -5.8347  -29.1779  -51.5002 H         1 UNK         0.0600 
    213 H213       -6.6179  -29.8363  -50.0703 H         1 UNK         0.0600 
    214 H214       -4.8751  -29.9592  -50.2441 H         1 UNK         0.0600 
    215 H215       -5.6150  -25.4715  -49.2685 H         1 UNK         0.3000 
    216 H216       -6.8788  -23.7099  -49.4102 H         1 UNK         0.0600 
    217 H217       -9.2677  -23.8029  -48.8476 H         1 UNK         0.0600 
    218 H218       -8.3929  -24.9424  -47.8400 H         1 UNK         0.0600 
    219 H219       -9.3401  -25.5201  -49.2111 H         1 UNK         0.0600 
    220 H220       -6.4097  -25.5001  -51.9834 H         1 UNK         0.3000 
    221 H221       -8.4349  -24.4631  -53.8115 H         1 UNK         0.0600 
    222 H222       -5.8262  -25.9511  -54.4009 H         1 UNK         0.0600 
    223 H223       -7.3693  -26.7345  -54.0578 H         1 UNK         0.0600 
    224 H224       -7.1865  -25.7335  -55.4905 H         1 UNK         0.0600 
    225 H225       -5.5580  -23.1382  -52.4686 H         1 UNK         0.3000 
    226 H226       -5.5544  -20.8645  -54.2289 H         1 UNK         0.0600 
    227 H227       -4.1506  -22.5030  -55.5762 H         1 UNK         0.0600 
    228 H228       -3.2015  -21.1423  -55.0186 H         1 UNK         0.0600 
    229 H229       -3.0726  -22.6907  -54.1963 H         1 UNK         0.0600 
    230 H230       -3.4995  -19.5240  -53.5584 H         1 UNK         0.3000 
    231 H231       -2.4165  -18.2922  -52.1333 H         1 UNK         0.0600 
    232 H232       -1.2466  -20.3988  -51.4729 H         1 UNK         0.0600 
    233 H233       -2.4027  -20.6340  -50.1695 H         1 UNK         0.0600 
    234 H234       -1.3212  -19.2453  -50.1588 H         1 UNK         0.0600 
    235 H235       -2.9345  -18.7232  -49.0315 H         1 UNK         0.3000 
    236 H236       -3.9496  -17.5824  -47.4414 H         1 UNK         0.0600 
    237 H237       -6.3896  -17.4170  -47.3853 H         1 UNK         0.0600 
    238 H238       -6.5077  -17.6740  -49.1188 H         1 UNK         0.0600 
    239 H239       -5.9468  -18.9713  -48.0677 H         1 UNK         0.0600 
    240 H240       -2.4610  -16.1160  -49.3139 H         1 UNK         0.3000 
    241 H241       -3.6997  -13.5698  -49.8515 H         1 UNK         0.0600 
    242 H242       -1.9530  -11.4158  -47.4341 H         1 UNK         0.3800 
    243 H243       -2.2488  -11.4663  -49.1531 H         1 UNK         0.3800 
    244 H244       -2.0488  -14.3444  -51.4080 H         1 UNK         0.0800 
    245 H245       -1.4307  -12.9195  -50.6622 H         1 UNK         0.0800 
    246 H246       -0.5780  -15.9689  -52.0925 H         1 UNK         0.0800 
    247 H247       -0.9834  -16.9653  -50.7185 H         1 UNK         0.0800 
@<TRIPOS>BOND
     1    1    2 1    
     2    1  127 1    
     3    1  128 1    
     4    1  129 1    
     5    2    3 2    
     6    2    4 am   BACKBONE|DICT|INTERRES
     7    4    5 1    
     8    4  130 1    
     9    5    6 1    
    10    5   65 1    
    11    5  131 1    
    12    6    7 1    
    13    6  132 1    
    14    6  133 1    
    15    7    8 1    
    16    8    9 1    
    17    8  134 1    
    18    8  135 1    
    19    9   10 ar   
    20    9   14 ar   
    21   10   11 ar   
    22   10  136 1    
    23   11   12 ar   
    24   11  126 1    
    25   12   13 ar   
    26   12  137 1    
    27   13   14 ar   
    28   13   15 1    
    29   14  138 1    
    30   15   16 1    
    31   15  139 1    
    32   15  140 1    
    33   16   17 1    
    34   17   18 1    
    35   17  141 1    
    36   17  142 1    
    37   18   19 1    
    38   18   67 1    
    39   18  143 1    
    40   19   20 am   BACKBONE|DICT|INTERRES
    41   19  144 1    
    42   20   21 2    
    43   20   22 1    
    44   22   23 1    
    45   22   24 1    
    46   22  145 1    
    47   23  146 1    
    48   23  147 1    
    49   23  148 1    
    50   24   25 am   BACKBONE|DICT|INTERRES
    51   24  149 1    
    52   25   26 2    
    53   25   27 1    
    54   27   28 1    
    55   27   29 1    
    56   27  150 1    
    57   28  151 1    
    58   28  152 1    
    59   28  153 1    
    60   29   30 am   BACKBONE|DICT|INTERRES
    61   29  154 1    
    62   30   31 2    
    63   30   32 1    
    64   32   33 1    
    65   32   34 1    
    66   32  155 1    
    67   33  156 1    
    68   33  157 1    
    69   33  158 1    
    70   34   35 am   BACKBONE|DICT|INTERRES
    71   34  159 1    
    72   35   36 2    
    73   35   37 1    
    74   37   38 1    
    75   37   39 1    
    76   37  160 1    
    77   38  161 1    
    78   38  162 1    
    79   38  163 1    
    80   39   40 am   BACKBONE|DICT|INTERRES
    81   39  164 1    
    82   40   41 2    
    83   40   42 1    
    84   42   43 1    
    85   42   44 1    
    86   42  165 1    
    87   43  166 1    
    88   43  167 1    
    89   43  168 1    
    90   44   45 am   BACKBONE|DICT|INTERRES
    91   44  169 1    
    92   45   46 2    
    93   45   47 1    
    94   47   48 1    
    95   47   49 1    
    96   47  170 1    
    97   48  171 1    
    98   48  172 1    
    99   48  173 1    
   100   49   50 am   BACKBONE|DICT|INTERRES
   101   49  174 1    
   102   50   51 2    
   103   50   52 1    
   104   52   53 1    
   105   52   54 1    
   106   52  175 1    
   107   53  176 1    
   108   53  177 1    
   109   53  178 1    
   110   54   55 am   BACKBONE|DICT|INTERRES
   111   54  179 1    
   112   55   56 2    
   113   55   57 1    
   114   57   58 1    
   115   57   59 1    
   116   57  180 1    
   117   58  181 1    
   118   58  182 1    
   119   58  183 1    
   120   59   60 am   BACKBONE|DICT|INTERRES
   121   59  184 1    
   122   60   61 2    
   123   60   62 1    
   124   62   63 1    
   125   62   64 1    
   126   62  185 1    
   127   63  186 1    
   128   63  187 1    
   129   63  188 1    
   130   64   65 am   BACKBONE|DICT|INTERRES
   131   64  189 1    
   132   65   66 2    
   133   67   68 2    
   134   67   69 am   BACKBONE|DICT|INTERRES
   135   69   70 1    
   136   69  190 1    
   137   70   71 1    
   138   70   72 1    
   139   70  191 1    
   140   71  192 1    
   141   71  193 1    
   142   71  194 1    
   143   72   73 2    
   144   72   74 am   BACKBONE|DICT|INTERRES
   145   74   75 1    
   146   74  195 1    
   147   75   76 1    
   148   75   77 1    
   149   75  196 1    
   150   76  197 1    
   151   76  198 1    
   152   76  199 1    
   153   77   78 2    
   154   77   79 am   BACKBONE|DICT|INTERRES
   155   79   80 1    
   156   79  200 1    
   157   80   81 1    
   158   80   82 1    
   159   80  201 1    
   160   81  202 1    
   161   81  203 1    
   162   81  204 1    
   163   82   83 2    
   164   82   84 am   BACKBONE|DICT|INTERRES
   165   84   85 1    
   166   84  205 1    
   167   85   86 1    
   168   85   87 1    
   169   85  206 1    
   170   86  207 1    
   171   86  208 1    
   172   86  209 1    
   173   87   88 2    
   174   87   89 am   BACKBONE|DICT|INTERRES
   175   89   90 1    
   176   89  210 1    
   177   90   91 1    
   178   90   92 1    
   179   90  211 1    
   180   91  212 1    
   181   91  213 1    
   182   91  214 1    
   183   92   93 2    
   184   92   94 am   BACKBONE|DICT|INTERRES
   185   94   95 1    
   186   94  215 1    
   187   95   96 1    
   188   95   97 1    
   189   95  216 1    
   190   96  217 1    
   191   96  218 1    
   192   96  219 1    
   193   97   98 2    
   194   97   99 am   BACKBONE|DICT|INTERRES
   195   99  100 1    
   196   99  220 1    
   197  100  101 1    
   198  100  102 1    
   199  100  221 1    
   200  101  222 1    
   201  101  223 1    
   202  101  224 1    
   203  102  103 2    
   204  102  104 am   BACKBONE|DICT|INTERRES
   205  104  105 1    
   206  104  225 1    
   207  105  106 1    
   208  105  107 1    
   209  105  226 1    
   210  106  227 1    
   211  106  228 1    
   212  106  229 1    
   213  107  108 2    
   214  107  109 am   BACKBONE|DICT|INTERRES
   215  109  110 1    
   216  109  230 1    
   217  110  111 1    
   218  110  112 1    
   219  110  231 1    
   220  111  232 1    
   221  111  233 1    
   222  111  234 1    
   223  112  113 2    
   224  112  114 am   BACKBONE|DICT|INTERRES
   225  114  115 1    
   226  114  235 1    
   227  115  116 1    
   228  115  117 1    
   229  115  236 1    
   230  116  237 1    
   231  116  238 1    
   232  116  239 1    
   233  117  118 2    
   234  117  119 am   BACKBONE|DICT|INTERRES
   235  119  120 1    
   236  119  240 1    
   237  120  121 1    
   238  120  124 1    
   239  120  241 1    
   240  121  122 am   BACKBONE|DICT|INTERRES
   241  121  123 2    
   242  122  242 1    
   243  122  243 1    
   244  124  125 1    
   245  124  244 1    
   246  124  245 1    
   247  125  126 1    
   248  126  246 1    
   249  126  247 1    
@<TRIPOS>SUBSTRUCTURE
     1 UNK         1 GROUP             0       ****    0 ROOT    
