@<TRIPOS>MOLECULE
3R540
247   249    1
SMALL
USER_CHARGES


@<TRIPOS>ATOM
      1 CA          2.3359  -10.5186  -50.3852 C.3       0 UNK        -0.1800 
      2 C           2.6040  -11.8634  -49.7244 C.2       0 UNK         0.5000 
      3 O           1.7937  -12.3158  -48.9177 O.2       0 UNK        -0.5000 
      4 N           3.7344  -12.4977  -50.0682 N.am      1 UNK        -0.5000 
      5 CA          4.2002  -13.7909  -49.5404 C.3       1 UNK         0.1400 
      6 C6          3.2618  -14.9867  -49.8755 C.3       23 UNK        -0.0398 
      7 S7          2.9618  -15.1383  -51.6719 S.3       23 UNK        -0.2404 
      8 C8          4.0405  -16.5317  -52.1271 C.3       23 UNK        -0.0205 
      9 C9          3.3245  -17.8659  -51.9850 C.ar      23 UNK        -0.0193 
     10 C10         2.4236  -18.2780  -52.9717 C.ar      23 UNK        -0.1150 
     11 C11         1.7592  -19.5024  -52.8608 C.ar      23 UNK        -0.0193 
     12 C12         2.0192  -20.3268  -51.7645 C.ar      23 UNK        -0.1150 
     13 C13         2.9062  -19.9222  -50.7642 C.ar      23 UNK        -0.0193 
     14 C14         3.5601  -18.6910  -50.8809 C.ar      23 UNK        -0.1150 
     15 C15         3.1503  -20.8087  -49.5533 C.3       23 UNK        -0.0205 
     16 S16         2.0638  -20.3492  -48.1680 S.3       23 UNK        -0.2404 
     17 C17         0.4897  -21.1740  -48.6071 C.3       23 UNK        -0.0398 
     18 CA          0.1355  -22.2919  -47.6003 C.3       11 UNK         0.1400 
     19 N          -0.0287  -21.7807  -46.2379 N.am      11 UNK        -0.5000 
     20 C           0.0715  -22.5318  -45.1366 C.2       10 UNK         0.5000 
     21 O           0.2869  -23.7432  -45.1605 O.2       10 UNK        -0.5000 
     22 CA         -0.1346  -21.8225  -43.7880 C.3       10 UNK         0.1400 
     23 CB          1.1347  -21.0612  -43.3785 C.3       10 UNK        -0.1800 
     24 N          -1.2790  -20.9093  -43.7710 N.am      10 UNK        -0.5000 
     25 C          -2.5560  -21.2812  -43.9348 C.2       9 UNK         0.5000 
     26 O          -2.8996  -22.4299  -44.2109 O.2       9 UNK        -0.5000 
     27 CA         -3.6273  -20.1916  -43.7647 C.3       9 UNK         0.1400 
     28 CB         -3.8000  -19.8148  -42.2853 C.3       9 UNK        -0.1800 
     29 N          -3.3018  -18.9962  -44.5355 N.am      9 UNK        -0.5000 
     30 C          -3.5625  -18.8508  -45.8413 C.2       8 UNK         0.5000 
     31 O          -4.1649  -19.6831  -46.5177 O.2       8 UNK        -0.5000 
     32 CA         -3.0329  -17.5723  -46.5172 C.3       8 UNK         0.1400 
     33 CB         -4.0515  -16.4314  -46.3772 C.3       8 UNK        -0.1800 
     34 N          -1.7300  -17.1316  -46.0134 N.am      8 UNK        -0.5000 
     35 C          -0.6206  -17.8860  -45.9978 C.2       7 UNK         0.5000 
     36 O          -0.5750  -19.0474  -46.3951 O.2       7 UNK        -0.5000 
     37 CA          0.6314  -17.2750  -45.3507 C.3       7 UNK         0.1400 
     38 CB          1.3547  -16.3448  -46.3335 C.3       7 UNK        -0.1800 
     39 N           0.3416  -16.5575  -44.1092 N.am      7 UNK        -0.5000 
     40 C          -0.2380  -17.0850  -43.0208 C.2       6 UNK         0.5000 
     41 O          -0.6177  -18.2533  -42.9393 O.2       6 UNK        -0.5000 
     42 CA         -0.4686  -16.1320  -41.8389 C.3       6 UNK         0.1400 
     43 CB          0.8300  -15.9082  -41.0486 C.3       6 UNK        -0.1800 
     44 N          -0.9935  -14.8495  -42.3021 N.am      6 UNK        -0.5000 
     45 C          -2.2807  -14.6315  -42.6049 C.2       5 UNK         0.5000 
     46 O          -3.1717  -15.4675  -42.4497 O.2       5 UNK        -0.5000 
     47 CA         -2.6323  -13.2525  -43.1948 C.3       5 UNK         0.1400 
     48 CB         -2.9641  -12.2558  -42.0739 C.3       5 UNK        -0.1800 
     49 N          -1.5729  -12.6928  -44.0368 N.am      5 UNK        -0.5000 
     50 C          -1.1876  -13.2074  -45.2127 C.2       4 UNK         0.5000 
     51 O          -1.6762  -14.2217  -45.7094 O.2       4 UNK        -0.5000 
     52 CA         -0.0389  -12.4836  -45.9394 C.3       4 UNK         0.1400 
     53 CB         -0.5845  -11.2709  -46.7098 C.3       4 UNK        -0.1800 
     54 N           1.0626  -12.0443  -45.0758 N.am      4 UNK        -0.5000 
     55 C           1.7282  -12.7938  -44.1872 C.2       3 UNK         0.5000 
     56 O           1.4202  -13.9485  -43.8912 O.2       3 UNK        -0.5000 
     57 CA          2.9701  -12.1486  -43.5462 C.3       3 UNK         0.1400 
     58 CB          3.2458  -12.7033  -42.1376 C.3       3 UNK        -0.1800 
     59 N           4.1467  -12.3769  -44.3824 N.am      3 UNK        -0.5000 
     60 C           4.4028  -11.7543  -45.5397 C.2       2 UNK         0.5000 
     61 O           3.7048  -10.8423  -45.9882 O.2       2 UNK        -0.5000 
     62 CA          5.6507  -12.1944  -46.3325 C.3       2 UNK         0.1400 
     63 CB          6.5319  -13.2501  -45.6247 C.3       2 UNK        -0.1800 
     64 N           5.2843  -12.6198  -47.6866 N.am      2 UNK        -0.5000 
     65 C           4.5403  -13.6818  -48.0359 C.2       1 UNK         0.5000 
     66 O           4.1286  -14.5259  -47.2400 O.2       1 UNK        -0.5000 
     67 C          -1.0943  -23.1080  -48.0501 C.2       11 UNK         0.5000 
     68 O          -0.9454  -24.0186  -48.8665 O.2       11 UNK        -0.5000 
     69 N          -2.2728  -22.8184  -47.4769 N.am      12 UNK        -0.5000 
     70 CA         -3.4813  -23.6221  -47.6564 C.3       12 UNK         0.1400 
     71 CB         -4.7226  -22.8145  -47.2620 C.3       12 UNK        -0.1800 
     72 C          -3.4072  -24.9497  -46.8846 C.2       12 UNK         0.5000 
     73 O          -3.7894  -25.9839  -47.4300 O.2       12 UNK        -0.5000 
     74 N          -2.8632  -24.9189  -45.6590 N.am      13 UNK        -0.5000 
     75 CA         -2.5771  -26.1050  -44.8456 C.3       13 UNK         0.1400 
     76 CB         -2.1678  -25.6742  -43.4292 C.3       13 UNK        -0.1800 
     77 C          -1.5054  -27.0151  -45.4792 C.2       13 UNK         0.5000 
     78 O          -1.6178  -28.2382  -45.3947 O.2       13 UNK        -0.5000 
     79 N          -0.5186  -26.4031  -46.1495 N.am      14 UNK        -0.5000 
     80 CA          0.4892  -27.0761  -46.9743 C.3       14 UNK         0.1400 
     81 CB          1.6619  -26.1117  -47.2108 C.3       14 UNK        -0.1800 
     82 C          -0.0588  -27.5937  -48.3235 C.2       14 UNK         0.5000 
     83 O           0.6505  -28.3276  -49.0128 O.2       14 UNK        -0.5000 
     84 N          -1.2942  -27.2059  -48.6749 N.am      15 UNK        -0.5000 
     85 CA         -2.0409  -27.5566  -49.8850 C.3       15 UNK         0.1400 
     86 CB         -2.3492  -29.0683  -49.9224 C.3       15 UNK        -0.1800 
     87 C          -1.3922  -27.0326  -51.1821 C.2       15 UNK         0.5000 
     88 O          -1.4443  -27.7084  -52.2118 O.2       15 UNK        -0.5000 
     89 N          -0.8097  -25.8259  -51.1233 N.am      16 UNK        -0.5000 
     90 CA         -0.2651  -25.1249  -52.2896 C.3       16 UNK         0.1400 
     91 CB          0.6361  -23.9745  -51.8184 C.3       16 UNK        -0.1800 
     92 C          -1.3770  -24.5926  -53.2148 C.2       16 UNK         0.5000 
     93 O          -1.2104  -24.5930  -54.4349 O.2       16 UNK        -0.5000 
     94 N          -2.4944  -24.1784  -52.6085 N.am      17 UNK        -0.5000 
     95 CA         -3.7278  -23.7087  -53.2289 C.3       17 UNK         0.1400 
     96 CB         -3.5199  -22.3381  -53.9060 C.3       17 UNK        -0.1800 
     97 C          -4.7982  -23.6370  -52.1258 C.2       17 UNK         0.5000 
     98 O          -4.5635  -24.1106  -51.0107 O.2       17 UNK        -0.5000 
     99 N          -5.9488  -23.0339  -52.4419 N.am      18 UNK        -0.5000 
    100 CA        -6.9792  -22.6763  -51.4685 C.3       18 UNK         0.1400 
    101 CB        -8.2895  -22.4025  -52.2240 C.3       18 UNK        -0.1800 
    102 C         -6.5699  -21.4303  -50.6610 C.2       18 UNK         0.5000 
    103 O         -5.7823  -20.6122  -51.1447 O.2       18 UNK        -0.5000 
    104 N         -7.1768  -21.2553  -49.4798 N.am      19 UNK        -0.5000 
    105 CA        -7.0156  -20.0625  -48.6363 C.3       19 UNK         0.1400 
    106 CB        -7.6346  -20.3301  -47.2561 C.3       19 UNK        -0.1800 
    107 C         -7.6131  -18.7852  -49.2635 C.2       19 UNK         0.5000 
    108 O         -7.1943  -17.6815  -48.9161 O.2       19 UNK        -0.5000 
    109 N         -8.5614  -18.9624  -50.1949 N.am      20 UNK        -0.5000 
    110 CA        -9.1218  -17.9084  -51.0419 C.3       20 UNK         0.1400 
    111 CB       -10.4372  -18.4177  -51.6518 C.3       20 UNK        -0.1800 
    112 C         -8.1549  -17.4482  -52.1543 C.2       20 UNK         0.5000 
    113 O         -8.3547  -16.3679  -52.7118 O.2       20 UNK        -0.5000 
    114 N         -7.1398  -18.2682  -52.4599 N.am      21 UNK        -0.5000 
    115 CA        -6.0419  -17.9602  -53.3690 C.3       21 UNK         0.1400 
    116 CB        -5.7836  -19.1822  -54.2739 C.3       21 UNK        -0.1800 
    117 C         -4.8286  -17.5223  -52.5249 C.2       21 UNK         0.5000 
    118 O         -4.9514  -16.5668  -51.7557 O.2       21 UNK        -0.5000 
    119 N         -3.6840  -18.2005  -52.6744 N.am      22 UNK        -0.5000 
    120 CA        -2.4565  -17.9274  -51.9104 C.3       22 UNK         0.1400 
    121 C         -2.3989  -18.5788  -50.4963 C.2       22 UNK         0.5000 
    122 N         -3.3432  -19.4235  -50.0957 N.am      22 UNK        -0.7600 
    123 O         -1.4837  -18.2869  -49.7345 O.2       22 UNK        -0.5000 
    124 C124       -1.1797  -18.1987  -52.7467 C.3       23 UNK        -0.0398 
    125 S125       -0.9565  -19.9436  -53.2403 S.3       23 UNK        -0.2404 
    126 C126        0.7390  -19.9242  -53.9079 C.3       23 UNK        -0.0205 
    127 H127        2.2562   -9.7393  -49.6272 H         1 UNK         0.0600 
    128 H128        1.3978  -10.5539  -50.9392 H         1 UNK         0.0600 
    129 H129        3.1305  -10.2403  -51.0780 H         1 UNK         0.0600 
    130 H130        4.3419  -12.0704  -50.7533 H         1 UNK         0.3000 
    131 H131        5.1522  -13.9885  -50.0359 H         1 UNK         0.0600 
    132 H132        3.6818  -15.9218  -49.5018 H         1 UNK         0.0800 
    133 H133        2.2984  -14.8752  -49.3761 H         1 UNK         0.0800 
    134 H134        4.3540  -16.4042  -53.1643 H         1 UNK         0.0800 
    135 H135        4.9551  -16.5113  -51.5323 H         1 UNK         0.0800 
    136 H136        2.2287  -17.6339  -53.8179 H         1 UNK         0.1150 
    137 H137        1.5061  -21.2723  -51.6816 H         1 UNK         0.1150 
    138 H138        4.2473  -18.3749  -50.1086 H         1 UNK         0.1150 
    139 H139        3.0106  -21.8611  -49.8059 H         1 UNK         0.0800 
    140 H140        4.1882  -20.7090  -49.2323 H         1 UNK         0.0800 
    141 H141        0.5603  -21.5803  -49.6147 H         1 UNK         0.0800 
    142 H142       -0.2993  -20.4221  -48.6418 H         1 UNK         0.0800 
    143 H143        0.9780  -22.9857  -47.5911 H         1 UNK         0.0600 
    144 H144       -0.2142  -20.7808  -46.1580 H         1 UNK         0.3000 
    145 H145       -0.3211  -22.5939  -43.0381 H         1 UNK         0.0600 
    146 H146        1.0282  -20.6209  -42.3871 H         1 UNK         0.0600 
    147 H147        1.9979  -21.7271  -43.3490 H         1 UNK         0.0600 
    148 H148        1.3630  -20.2574  -44.0785 H         1 UNK         0.0600 
    149 H149       -1.0761  -19.9378  -43.5457 H         1 UNK         0.3000 
    150 H150       -4.5776  -20.5979  -44.1178 H         1 UNK         0.0600 
    151 H151       -4.6046  -19.0908  -42.1564 H         1 UNK         0.0600 
    152 H152       -2.8918  -19.3809  -41.8662 H         1 UNK         0.0600 
    153 H153       -4.0519  -20.6914  -41.6872 H         1 UNK         0.0600 
    154 H154       -2.7516  -18.2874  -44.0694 H         1 UNK         0.3000 
    155 H155       -2.9158  -17.7909  -47.5782 H         1 UNK         0.0600 
    156 H156       -5.0351  -16.7386  -46.7359 H         1 UNK         0.0600 
    157 H157       -4.1602  -16.1149  -45.3391 H         1 UNK         0.0600 
    158 H158       -3.7515  -15.5628  -46.9635 H         1 UNK         0.0600 
    159 H159       -1.6694  -16.1668  -45.6999 H         1 UNK         0.3000 
    160 H160        1.3103  -18.0923  -45.1024 H         1 UNK         0.0600 
    161 H161        2.2609  -15.9331  -45.8899 H         1 UNK         0.0600 
    162 H162        0.7230  -15.5115  -46.6390 H         1 UNK         0.0600 
    163 H163        1.6476  -16.8827  -47.2362 H         1 UNK         0.0600 
    164 H164        0.6446  -15.5864  -44.0709 H         1 UNK         0.3000 
    165 H165       -1.1943  -16.5956  -41.1669 H         1 UNK         0.0600 
    166 H166        0.6621  -15.2551  -40.1922 H         1 UNK         0.0600 
    167 H167        1.2190  -16.8529  -40.6666 H         1 UNK         0.0600 
    168 H168        1.6097  -15.4592  -41.6639 H         1 UNK         0.0600 
    169 H169       -0.3109  -14.1409  -42.5372 H         1 UNK         0.3000 
    170 H170       -3.5229  -13.3780  -43.8147 H         1 UNK         0.0600 
    171 H171       -2.1015  -12.0680  -41.4331 H         1 UNK         0.0600 
    172 H172       -3.2957  -11.3002  -42.4807 H         1 UNK         0.0600 
    173 H173       -3.7676  -12.6341  -41.4404 H         1 UNK         0.0600 
    174 H174       -1.1080  -11.8631  -43.6987 H         1 UNK         0.3000 
    175 H175        0.3844  -13.1814  -46.6635 H         1 UNK         0.0600 
    176 H176        0.1977  -10.7916  -47.2987 H         1 UNK         0.0600 
    177 H177       -1.0039  -10.5209  -46.0383 H         1 UNK         0.0600 
    178 H178       -1.3717  -11.5710  -47.4029 H         1 UNK         0.0600 
    179 H179        1.4502  -11.1363  -45.2930 H         1 UNK         0.3000 
    180 H180        2.7957  -11.0744  -43.4554 H         1 UNK         0.0600 
    181 H181        3.4905  -13.7660  -42.1601 H         1 UNK         0.0600 
    182 H182        2.3752  -12.5806  -41.4921 H         1 UNK         0.0600 
    183 H183        4.0770  -12.1798  -41.6650 H         1 UNK         0.0600 
    184 H184        4.7491  -13.1384  -44.1068 H         1 UNK         0.3000 
    185 H185        6.2587  -11.2966  -46.4516 H         1 UNK         0.0600 
    186 H186        5.9990  -14.1816  -45.4339 H         1 UNK         0.0600 
    187 H187        7.4073  -13.4909  -46.2277 H         1 UNK         0.0600 
    188 H188        6.8984  -12.8761  -44.6678 H         1 UNK         0.0600 
    189 H189        5.5278  -11.9667  -48.4178 H         1 UNK         0.3000 
    190 H190       -2.3140  -22.0757  -46.7935 H         1 UNK         0.3000 
    191 H191       -3.5682  -23.8663  -48.7145 H         1 UNK         0.0600 
    192 H192       -4.8078  -21.9210  -47.8782 H         1 UNK         0.0600 
    193 H193       -5.6321  -23.3978  -47.4099 H         1 UNK         0.0600 
    194 H194       -4.6951  -22.5025  -46.2181 H         1 UNK         0.0600 
    195 H195       -2.6413  -24.0184  -45.2427 H         1 UNK         0.3000 
    196 H196       -3.4989  -26.6853  -44.7688 H         1 UNK         0.0600 
    197 H197       -1.9881  -26.5425  -42.7942 H         1 UNK         0.0600 
    198 H198       -2.9508  -25.0812  -42.9564 H         1 UNK         0.0600 
    199 H199       -1.2557  -25.0778  -43.4348 H         1 UNK         0.0600 
    200 H200       -0.4481  -25.3931  -46.0816 H         1 UNK         0.3000 
    201 H201        0.8639  -27.9388  -46.4200 H         1 UNK         0.0600 
    202 H202        2.0540  -25.7227  -46.2709 H         1 UNK         0.0600 
    203 H203        1.3642  -25.2660  -47.8294 H         1 UNK         0.0600 
    204 H204        2.4835  -26.6147  -47.7222 H         1 UNK         0.0600 
    205 H205       -1.7931  -26.6012  -48.0353 H         1 UNK         0.3000 
    206 H206       -2.9959  -27.0355  -49.8078 H         1 UNK         0.0600 
    207 H207       -2.8237  -29.3955  -48.9971 H         1 UNK         0.0600 
    208 H208       -3.0327  -29.3079  -50.7377 H         1 UNK         0.0600 
    209 H209       -1.4475  -29.6639  -50.0668 H         1 UNK         0.0600 
    210 H210       -0.8153  -25.3133  -50.2441 H         1 UNK         0.3000 
    211 H211        0.3471  -25.8259  -52.8610 H         1 UNK         0.0600 
    212 H212        0.0621  -23.2105  -51.2941 H         1 UNK         0.0600 
    213 H213        1.1243  -23.4936  -52.6669 H         1 UNK         0.0600 
    214 H214        1.4183  -24.3294  -51.1471 H         1 UNK         0.0600 
    215 H215       -2.5635  -24.2587  -51.6007 H         1 UNK         0.3000 
    216 H216       -4.0453  -24.4437  -53.9706 H         1 UNK         0.0600 
    217 H217       -4.3762  -22.0726  -54.5258 H         1 UNK         0.0600 
    218 H218       -2.6479  -22.3291  -54.5589 H         1 UNK         0.0600 
    219 H219       -3.3915  -21.5489  -53.1647 H         1 UNK         0.0600 
    220 H220       -6.0572  -22.6481  -53.3676 H         1 UNK         0.3000 
    221 H221       -7.1315  -23.5114  -50.7812 H         1 UNK         0.0600 
    222 H222       -8.1935  -21.5564  -52.9064 H         1 UNK         0.0600 
    223 H223       -8.5950  -23.2704  -52.8088 H         1 UNK         0.0600 
    224 H224       -9.1038  -22.1776  -51.5343 H         1 UNK         0.0600 
    225 H225       -7.8194  -21.9587  -49.1448 H         1 UNK         0.3000 
    226 H226       -5.9474  -19.8824  -48.5046 H         1 UNK         0.0600 
    227 H227       -7.1638  -21.1849  -46.7708 H         1 UNK         0.0600 
    228 H228       -7.4979  -19.4722  -46.5963 H         1 UNK         0.0600 
    229 H229       -8.7050  -20.5270  -47.3248 H         1 UNK         0.0600 
    230 H230       -8.8644  -19.9044  -50.3899 H         1 UNK         0.3000 
    231 H231       -9.3446  -17.0407  -50.4174 H         1 UNK         0.0600 
    232 H232      -10.2758  -19.2914  -52.2846 H         1 UNK         0.0600 
    233 H233      -10.9063  -17.6488  -52.2673 H         1 UNK         0.0600 
    234 H234      -11.1524  -18.6912  -50.8759 H         1 UNK         0.0600 
    235 H235       -7.0050  -19.0988  -51.8974 H         1 UNK         0.3000 
    236 H236       -6.3041  -17.1185  -54.0130 H         1 UNK         0.0600 
    237 H237       -6.6752  -19.4323  -54.8489 H         1 UNK         0.0600 
    238 H238       -4.9871  -18.9838  -54.9922 H         1 UNK         0.0600 
    239 H239       -5.5079  -20.0655  -53.6993 H         1 UNK         0.0600 
    240 H240       -3.6495  -18.9904  -53.3014 H         1 UNK         0.3000 
    241 H241       -2.4387  -16.8548  -51.7074 H         1 UNK         0.0600 
    242 H242       -3.2856  -19.8082  -49.1676 H         1 UNK         0.3800 
    243 H243       -4.1176  -19.6873  -50.6957 H         1 UNK         0.3800 
    244 H244       -1.1972  -17.5894  -53.6511 H         1 UNK         0.0800 
    245 H245       -0.3046  -17.8679  -52.1858 H         1 UNK         0.0800 
    246 H246        0.7745  -19.2637  -54.7757 H         1 UNK         0.0800 
    247 H247        0.9876  -20.9228  -54.2699 H         1 UNK         0.0800 
@<TRIPOS>BOND
     1    1    2 1    
     2    1  127 1    
     3    1  128 1    
     4    1  129 1    
     5    2    3 2    
     6    2    4 am   BACKBONE|DICT|INTERRES
     7    4    5 1    
     8    4  130 1    
     9    5    6 1    
    10    5   65 1    
    11    5  131 1    
    12    6    7 1    
    13    6  132 1    
    14    6  133 1    
    15    7    8 1    
    16    8    9 1    
    17    8  134 1    
    18    8  135 1    
    19    9   10 ar   
    20    9   14 ar   
    21   10   11 ar   
    22   10  136 1    
    23   11   12 ar   
    24   11  126 1    
    25   12   13 ar   
    26   12  137 1    
    27   13   14 ar   
    28   13   15 1    
    29   14  138 1    
    30   15   16 1    
    31   15  139 1    
    32   15  140 1    
    33   16   17 1    
    34   17   18 1    
    35   17  141 1    
    36   17  142 1    
    37   18   19 1    
    38   18   67 1    
    39   18  143 1    
    40   19   20 am   BACKBONE|DICT|INTERRES
    41   19  144 1    
    42   20   21 2    
    43   20   22 1    
    44   22   23 1    
    45   22   24 1    
    46   22  145 1    
    47   23  146 1    
    48   23  147 1    
    49   23  148 1    
    50   24   25 am   BACKBONE|DICT|INTERRES
    51   24  149 1    
    52   25   26 2    
    53   25   27 1    
    54   27   28 1    
    55   27   29 1    
    56   27  150 1    
    57   28  151 1    
    58   28  152 1    
    59   28  153 1    
    60   29   30 am   BACKBONE|DICT|INTERRES
    61   29  154 1    
    62   30   31 2    
    63   30   32 1    
    64   32   33 1    
    65   32   34 1    
    66   32  155 1    
    67   33  156 1    
    68   33  157 1    
    69   33  158 1    
    70   34   35 am   BACKBONE|DICT|INTERRES
    71   34  159 1    
    72   35   36 2    
    73   35   37 1    
    74   37   38 1    
    75   37   39 1    
    76   37  160 1    
    77   38  161 1    
    78   38  162 1    
    79   38  163 1    
    80   39   40 am   BACKBONE|DICT|INTERRES
    81   39  164 1    
    82   40   41 2    
    83   40   42 1    
    84   42   43 1    
    85   42   44 1    
    86   42  165 1    
    87   43  166 1    
    88   43  167 1    
    89   43  168 1    
    90   44   45 am   BACKBONE|DICT|INTERRES
    91   44  169 1    
    92   45   46 2    
    93   45   47 1    
    94   47   48 1    
    95   47   49 1    
    96   47  170 1    
    97   48  171 1    
    98   48  172 1    
    99   48  173 1    
   100   49   50 am   BACKBONE|DICT|INTERRES
   101   49  174 1    
   102   50   51 2    
   103   50   52 1    
   104   52   53 1    
   105   52   54 1    
   106   52  175 1    
   107   53  176 1    
   108   53  177 1    
   109   53  178 1    
   110   54   55 am   BACKBONE|DICT|INTERRES
   111   54  179 1    
   112   55   56 2    
   113   55   57 1    
   114   57   58 1    
   115   57   59 1    
   116   57  180 1    
   117   58  181 1    
   118   58  182 1    
   119   58  183 1    
   120   59   60 am   BACKBONE|DICT|INTERRES
   121   59  184 1    
   122   60   61 2    
   123   60   62 1    
   124   62   63 1    
   125   62   64 1    
   126   62  185 1    
   127   63  186 1    
   128   63  187 1    
   129   63  188 1    
   130   64   65 am   BACKBONE|DICT|INTERRES
   131   64  189 1    
   132   65   66 2    
   133   67   68 2    
   134   67   69 am   BACKBONE|DICT|INTERRES
   135   69   70 1    
   136   69  190 1    
   137   70   71 1    
   138   70   72 1    
   139   70  191 1    
   140   71  192 1    
   141   71  193 1    
   142   71  194 1    
   143   72   73 2    
   144   72   74 am   BACKBONE|DICT|INTERRES
   145   74   75 1    
   146   74  195 1    
   147   75   76 1    
   148   75   77 1    
   149   75  196 1    
   150   76  197 1    
   151   76  198 1    
   152   76  199 1    
   153   77   78 2    
   154   77   79 am   BACKBONE|DICT|INTERRES
   155   79   80 1    
   156   79  200 1    
   157   80   81 1    
   158   80   82 1    
   159   80  201 1    
   160   81  202 1    
   161   81  203 1    
   162   81  204 1    
   163   82   83 2    
   164   82   84 am   BACKBONE|DICT|INTERRES
   165   84   85 1    
   166   84  205 1    
   167   85   86 1    
   168   85   87 1    
   169   85  206 1    
   170   86  207 1    
   171   86  208 1    
   172   86  209 1    
   173   87   88 2    
   174   87   89 am   BACKBONE|DICT|INTERRES
   175   89   90 1    
   176   89  210 1    
   177   90   91 1    
   178   90   92 1    
   179   90  211 1    
   180   91  212 1    
   181   91  213 1    
   182   91  214 1    
   183   92   93 2    
   184   92   94 am   BACKBONE|DICT|INTERRES
   185   94   95 1    
   186   94  215 1    
   187   95   96 1    
   188   95   97 1    
   189   95  216 1    
   190   96  217 1    
   191   96  218 1    
   192   96  219 1    
   193   97   98 2    
   194   97   99 am   BACKBONE|DICT|INTERRES
   195   99  100 1    
   196   99  220 1    
   197  100  101 1    
   198  100  102 1    
   199  100  221 1    
   200  101  222 1    
   201  101  223 1    
   202  101  224 1    
   203  102  103 2    
   204  102  104 am   BACKBONE|DICT|INTERRES
   205  104  105 1    
   206  104  225 1    
   207  105  106 1    
   208  105  107 1    
   209  105  226 1    
   210  106  227 1    
   211  106  228 1    
   212  106  229 1    
   213  107  108 2    
   214  107  109 am   BACKBONE|DICT|INTERRES
   215  109  110 1    
   216  109  230 1    
   217  110  111 1    
   218  110  112 1    
   219  110  231 1    
   220  111  232 1    
   221  111  233 1    
   222  111  234 1    
   223  112  113 2    
   224  112  114 am   BACKBONE|DICT|INTERRES
   225  114  115 1    
   226  114  235 1    
   227  115  116 1    
   228  115  117 1    
   229  115  236 1    
   230  116  237 1    
   231  116  238 1    
   232  116  239 1    
   233  117  118 2    
   234  117  119 am   BACKBONE|DICT|INTERRES
   235  119  120 1    
   236  119  240 1    
   237  120  121 1    
   238  120  124 1    
   239  120  241 1    
   240  121  122 am   BACKBONE|DICT|INTERRES
   241  121  123 2    
   242  122  242 1    
   243  122  243 1    
   244  124  125 1    
   245  124  244 1    
   246  124  245 1    
   247  125  126 1    
   248  126  246 1    
   249  126  247 1    
@<TRIPOS>SUBSTRUCTURE
     1 UNK         1 GROUP             0       ****    0 ROOT    
