@<TRIPOS>MOLECULE
3R540
247   249    1
SMALL
USER_CHARGES


@<TRIPOS>ATOM
      1 CA          3.9237  -16.8617  -46.3801 C.3       0 UNK        -0.1800 
      2 C           3.5956  -15.4054  -46.0849 C.2       0 UNK         0.5000 
      3 O           3.8274  -14.9335  -44.9732 O.2       0 UNK        -0.5000 
      4 N           3.0824  -14.6854  -47.0898 N.am      1 UNK        -0.5000 
      5 CA          2.6233  -13.2880  -47.0244 C.3       1 UNK         0.1400 
      6 C6          2.0325  -12.8205  -48.3775 C.3       23 UNK        -0.0398 
      7 S7          0.6128  -13.8395  -48.8898 S.3       23 UNK        -0.2404 
      8 C8          1.3499  -14.9231  -50.1590 C.3       23 UNK        -0.0205 
      9 C9          0.5398  -16.1988  -50.3579 C.ar      23 UNK        -0.0193 
     10 C10        -0.8352  -16.1292  -50.5964 C.ar      23 UNK        -0.1150 
     11 C11        -1.5891  -17.2895  -50.7750 C.ar      23 UNK        -0.0193 
     12 C12        -0.9570  -18.5352  -50.7233 C.ar      23 UNK        -0.1150 
     13 C13         0.4245  -18.6249  -50.5135 C.ar      23 UNK        -0.0193 
     14 C14         1.1651  -17.4504  -50.3287 C.ar      23 UNK        -0.1150 
     15 C15         1.1067  -19.9916  -50.5510 C.3       23 UNK        -0.0205 
     16 S16         2.3354  -20.2792  -49.2257 S.3       23 UNK        -0.2404 
     17 C17         1.3422  -20.0925  -47.7079 C.3       23 UNK        -0.0398 
     18 CA          0.7709  -21.4215  -47.1493 C.3       11 UNK         0.1400 
     19 N           0.3490  -21.2870  -45.7514 N.am      11 UNK        -0.5000 
     20 C          -0.1372  -22.2668  -44.9754 C.2       10 UNK         0.5000 
     21 O          -0.2125  -23.4432  -45.3251 O.2       10 UNK        -0.5000 
     22 CA         -0.6880  -21.8573  -43.5957 C.3       10 UNK         0.1400 
     23 CB          0.4395  -21.7475  -42.5592 C.3       10 UNK        -0.1800 
     24 N          -1.4486  -20.6067  -43.6445 N.am      10 UNK        -0.5000 
     25 C          -2.5945  -20.4484  -44.3239 C.2       9 UNK         0.5000 
     26 O          -3.1642  -21.3628  -44.9198 O.2       9 UNK        -0.5000 
     27 CA         -3.1705  -19.0214  -44.3993 C.3       9 UNK         0.1400 
     28 CB         -3.9695  -18.6762  -43.1342 C.3       9 UNK        -0.1800 
     29 N          -2.1329  -18.0133  -44.6236 N.am      9 UNK        -0.5000 
     30 C          -1.3863  -17.9379  -45.7346 C.2       8 UNK         0.5000 
     31 O          -1.5514  -18.6676  -46.7113 O.2       8 UNK        -0.5000 
     32 CA         -0.2312  -16.9176  -45.7330 C.3       8 UNK         0.1400 
     33 CB         -0.7486  -15.5198  -46.0919 C.3       8 UNK        -0.1800 
     34 N           0.4768  -16.8730  -44.4504 N.am      8 UNK        -0.5000 
     35 C           1.1622  -17.9009  -43.9297 C.2       7 UNK         0.5000 
     36 O           1.3432  -18.9601  -44.5250 O.2       7 UNK        -0.5000 
     37 CA          1.6795  -17.7587  -42.4873 C.3       7 UNK         0.1400 
     38 CB          3.0634  -17.0998  -42.4370 C.3       7 UNK        -0.1800 
     39 N           0.7458  -17.0152  -41.6458 N.am      7 UNK        -0.5000 
     40 C          -0.4304  -17.4982  -41.2234 C.2       6 UNK         0.5000 
     41 O          -0.8176  -18.6442  -41.4512 O.2       6 UNK        -0.5000 
     42 CA         -1.3415  -16.5179  -40.4613 C.3       6 UNK         0.1400 
     43 CB         -0.9799  -16.4923  -38.9689 C.3       6 UNK        -0.1800 
     44 N          -1.2665  -15.1586  -41.0017 N.am      6 UNK        -0.5000 
     45 C          -1.7116  -14.8029  -42.2158 C.2       5 UNK         0.5000 
     46 O          -2.3035  -15.5725  -42.9714 O.2       5 UNK        -0.5000 
     47 CA         -1.3944  -13.3668  -42.6813 C.3       5 UNK         0.1400 
     48 CB         -2.5162  -12.4044  -42.2652 C.3       5 UNK        -0.1800 
     49 N          -0.1128  -12.8745  -42.1648 N.am      5 UNK        -0.5000 
     50 C           1.0806  -13.3829  -42.4996 C.2       4 UNK         0.5000 
     51 O           1.2279  -14.2731  -43.3377 O.2       4 UNK        -0.5000 
     52 CA          2.2829  -12.8783  -41.6911 C.3       4 UNK         0.1400 
     53 CB          2.2539  -13.5148  -40.2833 C.3       4 UNK        -0.1800 
     54 N           3.5395  -13.2072  -42.3669 N.am      4 UNK        -0.5000 
     55 C           4.7405  -12.7383  -41.9980 C.2       3 UNK         0.5000 
     56 O           4.9029  -11.9075  -41.1028 O.2       3 UNK        -0.5000 
     57 CA          5.9709  -13.2747  -42.7442 C.3       3 UNK         0.1400 
     58 CB          6.1813  -14.7756  -42.4834 C.3       3 UNK        -0.1800 
     59 N           5.8599  -13.0302  -44.1780 N.am      3 UNK        -0.5000 
     60 C           6.3604  -11.9560  -44.8050 C.2       2 UNK         0.5000 
     61 O           6.9945  -11.0668  -44.2351 O.2       2 UNK        -0.5000 
     62 CA          6.1335  -11.8502  -46.3270 C.3       2 UNK         0.1400 
     63 CB          7.3805  -12.3241  -47.0895 C.3       2 UNK        -0.1800 
     64 N           4.9775  -12.6136  -46.7948 N.am      2 UNK        -0.5000 
     65 C           3.7006  -12.2889  -46.5519 C.2       1 UNK         0.5000 
     66 O           3.3581  -11.2590  -45.9699 O.2       1 UNK        -0.5000 
     67 C          -0.3760  -21.9549  -48.0291 C.2       11 UNK         0.5000 
     68 O          -0.1892  -22.9472  -48.7324 O.2       11 UNK        -0.5000 
     69 N          -1.5487  -21.3118  -47.9411 N.am      12 UNK        -0.5000 
     70 CA         -2.7643  -21.6973  -48.6566 C.3       12 UNK         0.1400 
     71 CB         -3.8639  -20.6601  -48.3875 C.3       12 UNK        -0.1800 
     72 C          -3.2486  -23.1147  -48.3026 C.2       12 UNK         0.5000 
     73 O          -3.6165  -23.8733  -49.2007 O.2       12 UNK        -0.5000 
     74 N          -3.2008  -23.4603  -47.0081 N.am      13 UNK        -0.5000 
     75 CA         -3.5210  -24.7906  -46.4926 C.3       13 UNK         0.1400 
     76 CB         -3.5727  -24.7542  -44.9580 C.3       13 UNK        -0.1800 
     77 C          -2.5413  -25.8701  -46.9884 C.2       13 UNK         0.5000 
     78 O          -2.9871  -26.9219  -47.4470 O.2       13 UNK        -0.5000 
     79 N          -1.2331  -25.5815  -46.9287 N.am      14 UNK        -0.5000 
     80 CA         -0.1584  -26.4581  -47.4042 C.3       14 UNK         0.1400 
     81 CB          1.2007  -25.8825  -46.9785 C.3       14 UNK        -0.1800 
     82 C          -0.1961  -26.6895  -48.9262 C.2       14 UNK         0.5000 
     83 O           0.0702  -27.8027  -49.3803 O.2       14 UNK        -0.5000 
     84 N          -0.5627  -25.6458  -49.6808 N.am      15 UNK        -0.5000 
     85 CA         -0.7783  -25.6844  -51.1279 C.3       15 UNK         0.1400 
     86 CB         -0.7337  -24.2470  -51.6672 C.3       15 UNK        -0.1800 
     87 C          -2.0940  -26.3795  -51.5415 C.2       15 UNK         0.5000 
     88 O          -2.2854  -26.6288  -52.7321 O.2       15 UNK        -0.5000 
     89 N          -2.9664  -26.6773  -50.5660 N.am      16 UNK        -0.5000 
     90 CA         -4.2904  -27.2910  -50.7016 C.3       16 UNK         0.1400 
     91 CB         -4.1845  -28.7290  -51.2516 C.3       16 UNK        -0.1800 
     92 C          -5.2832  -26.4054  -51.4831 C.2       16 UNK         0.5000 
     93 O          -6.0918  -26.9184  -52.2593 O.2       16 UNK        -0.5000 
     94 N          -5.2115  -25.0894  -51.2358 N.am      17 UNK        -0.5000 
     95 CA         -6.0300  -24.0264  -51.8173 C.3       17 UNK         0.1400 
     96 CB         -7.4721  -24.0950  -51.2655 C.3       17 UNK        -0.1800 
     97 C          -5.9329  -23.9822  -53.3581 C.2       17 UNK         0.5000 
     98 O          -4.8258  -23.8399  -53.8811 O.2       17 UNK        -0.5000 
     99 N          -7.0781  -24.0711  -54.0527 N.am      18 UNK        -0.5000 
    100 CA        -7.2397  -24.0028  -55.5089 C.3       18 UNK         0.1400 
    101 CB        -6.6333  -25.2552  -56.1818 C.3       18 UNK        -0.1800 
    102 C         -6.7112  -22.6645  -56.0647 C.2       18 UNK         0.5000 
    103 O         -7.2846  -21.6194  -55.7563 O.2       18 UNK        -0.5000 
    104 N         -5.6146  -22.7012  -56.8325 N.am      19 UNK        -0.5000 
    105 CA        -4.9164  -21.5201  -57.3478 C.3       19 UNK         0.1400 
    106 CB        -3.8748  -21.9723  -58.3826 C.3       19 UNK        -0.1800 
    107 C         -4.2486  -20.6681  -56.2471 C.2       19 UNK         0.5000 
    108 O         -4.0049  -19.4822  -56.4691 O.2       19 UNK        -0.5000 
    109 N         -3.9792  -21.2785  -55.0862 N.am      20 UNK        -0.5000 
    110 CA        -3.3761  -20.6574  -53.9100 C.3       20 UNK         0.1400 
    111 CB        -2.1412  -21.4813  -53.5079 C.3       20 UNK        -0.1800 
    112 C         -4.3978  -20.5459  -52.7604 C.2       20 UNK         0.5000 
    113 O         -4.0105  -20.6255  -51.5970 O.2       20 UNK        -0.5000 
    114 N         -5.6873  -20.3896  -53.0971 N.am      21 UNK        -0.5000 
    115 CA        -6.8021  -20.2274  -52.1593 C.3       21 UNK         0.1400 
    116 CB        -8.1349  -20.1496  -52.9194 C.3       21 UNK        -0.1800 
    117 C         -6.6603  -19.0908  -51.1184 C.2       21 UNK         0.5000 
    118 O         -6.8683  -19.3650  -49.9383 O.2       21 UNK        -0.5000 
    119 N         -6.3054  -17.8449  -51.4663 N.am      22 UNK        -0.5000 
    120 CA        -6.2224  -17.2204  -52.7995 C.3       22 UNK         0.1400 
    121 C         -7.5547  -16.5426  -53.2414 C.2       22 UNK         0.5000 
    122 N         -8.6049  -16.5329  -52.4289 N.am      22 UNK        -0.7600 
    123 O         -7.6457  -16.0332  -54.3546 O.2       22 UNK        -0.5000 
    124 C124       -5.0446  -16.2126  -52.8572 C.3       23 UNK        -0.0398 
    125 S125       -3.4060  -17.0153  -52.8248 S.3       23 UNK        -0.2404 
    126 C126       -3.0810  -17.1785  -51.0413 C.3       23 UNK        -0.0205 
    127 H127        3.5624  -17.5022  -45.5776 H         1 UNK         0.0600 
    128 H128        5.0026  -16.9928  -46.4582 H         1 UNK         0.0600 
    129 H129        3.4669  -17.1990  -47.3109 H         1 UNK         0.0600 
    130 H130        2.9169  -15.1430  -47.9729 H         1 UNK         0.3000 
    131 H131        1.8306  -13.2533  -46.2744 H         1 UNK         0.0600 
    132 H132        1.6781  -11.7906  -48.3028 H         1 UNK         0.0800 
    133 H133        2.7926  -12.8235  -49.1610 H         1 UNK         0.0800 
    134 H134        1.4038  -14.3818  -51.1044 H         1 UNK         0.0800 
    135 H135        2.3758  -15.1686  -49.8834 H         1 UNK         0.0800 
    136 H136       -1.3223  -15.1652  -50.6430 H         1 UNK         0.1150 
    137 H137       -1.5428  -19.4319  -50.8701 H         1 UNK         0.1150 
    138 H138        2.2329  -17.5132  -50.1740 H         1 UNK         0.1150 
    139 H139        0.3654  -20.7909  -50.5285 H         1 UNK         0.0800 
    140 H140        1.6151  -20.0871  -51.5110 H         1 UNK         0.0800 
    141 H141        0.5602  -19.3541  -47.8745 H         1 UNK         0.0800 
    142 H142        2.0095  -19.6478  -46.9693 H         1 UNK         0.0800 
    143 H143        1.5689  -22.1667  -47.1602 H         1 UNK         0.0600 
    144 H144        0.4492  -20.3615  -45.3422 H         1 UNK         0.3000 
    145 H145       -1.3697  -22.6435  -43.2650 H         1 UNK         0.0600 
    146 H146        0.0494  -21.4769  -41.5778 H         1 UNK         0.0600 
    147 H147        0.9606  -22.6996  -42.4520 H         1 UNK         0.0600 
    148 H148        1.1808  -21.0016  -42.8425 H         1 UNK         0.0600 
    149 H149       -1.0713  -19.8178  -43.1309 H         1 UNK         0.3000 
    150 H150       -3.8556  -18.9864  -45.2489 H         1 UNK         0.0600 
    151 H151       -4.7802  -19.3893  -42.9802 H         1 UNK         0.0600 
    152 H152       -4.4170  -17.6849  -43.2095 H         1 UNK         0.0600 
    153 H153       -3.3452  -18.6931  -42.2415 H         1 UNK         0.0600 
    154 H154       -1.9873  -17.3281  -43.8893 H         1 UNK         0.3000 
    155 H155        0.4877  -17.2175  -46.4983 H         1 UNK         0.0600 
    156 H156       -1.5421  -15.1915  -45.4229 H         1 UNK         0.0600 
    157 H157       -1.1557  -15.5106  -47.1035 H         1 UNK         0.0600 
    158 H158        0.0502  -14.7811  -46.0498 H         1 UNK         0.0600 
    159 H159        0.4541  -15.9960  -43.9404 H         1 UNK         0.3000 
    160 H160        1.7812  -18.7648  -42.0757 H         1 UNK         0.0600 
    161 H161        3.0269  -16.0656  -42.7710 H         1 UNK         0.0600 
    162 H162        3.7737  -17.6272  -43.0745 H         1 UNK         0.0600 
    163 H163        3.4669  -17.1072  -41.4246 H         1 UNK         0.0600 
    164 H164        0.9713  -16.0506  -41.4600 H         1 UNK         0.3000 
    165 H165       -2.3702  -16.8711  -40.5601 H         1 UNK         0.0600 
    166 H166       -1.6633  -15.8538  -38.4089 H         1 UNK         0.0600 
    167 H167       -1.0421  -17.4916  -38.5359 H         1 UNK         0.0600 
    168 H168        0.0341  -16.1255  -38.8043 H         1 UNK         0.0600 
    169 H169       -0.8097  -14.4634  -40.4312 H         1 UNK         0.3000 
    170 H170       -1.3390  -13.3752  -43.7717 H         1 UNK         0.0600 
    171 H171       -3.4791  -12.7361  -42.6561 H         1 UNK         0.0600 
    172 H172       -2.6082  -12.3355  -41.1806 H         1 UNK         0.0600 
    173 H173       -2.3384  -11.4009  -42.6522 H         1 UNK         0.0600 
    174 H174       -0.1592  -12.1449  -41.4678 H         1 UNK         0.3000 
    175 H175        2.2031  -11.7926  -41.6076 H         1 UNK         0.0600 
    176 H176        2.3977  -14.5949  -40.3295 H         1 UNK         0.0600 
    177 H177        3.0317  -13.1062  -39.6388 H         1 UNK         0.0600 
    178 H178        1.3051  -13.3302  -39.7786 H         1 UNK         0.0600 
    179 H179        3.4563  -13.8508  -43.1501 H         1 UNK         0.3000 
    180 H180        6.8479  -12.7572  -42.3490 H         1 UNK         0.0600 
    181 H181        5.3729  -15.3813  -42.8898 H         1 UNK         0.0600 
    182 H182        6.2393  -14.9816  -41.4140 H         1 UNK         0.0600 
    183 H183        7.1118  -15.1230  -42.9324 H         1 UNK         0.0600 
    184 H184        5.2837  -13.6863  -44.6965 H         1 UNK         0.3000 
    185 H185        5.9684  -10.7968  -46.5632 H         1 UNK         0.0600 
    186 H186        7.2606  -12.1905  -48.1648 H         1 UNK         0.0600 
    187 H187        8.2617  -11.7555  -46.7893 H         1 UNK         0.0600 
    188 H188        7.5905  -13.3779  -46.9020 H         1 UNK         0.0600 
    189 H189        5.1685  -13.4822  -47.2725 H         1 UNK         0.3000 
    190 H190       -1.6089  -20.4786  -47.3614 H         1 UNK         0.3000 
    191 H191       -2.5308  -21.6870  -49.7224 H         1 UNK         0.0600 
    192 H192       -4.1102  -20.5928  -47.3282 H         1 UNK         0.0600 
    193 H193       -4.7787  -20.9176  -48.9222 H         1 UNK         0.0600 
    194 H194       -3.5595  -19.6692  -48.7246 H         1 UNK         0.0600 
    195 H195       -2.9318  -22.7577  -46.3259 H         1 UNK         0.3000 
    196 H196       -4.5162  -25.0548  -46.8562 H         1 UNK         0.0600 
    197 H197       -3.8424  -25.7304  -44.5534 H         1 UNK         0.0600 
    198 H198       -4.3164  -24.0388  -44.6062 H         1 UNK         0.0600 
    199 H199       -2.6116  -24.4743  -44.5271 H         1 UNK         0.0600 
    200 H200       -0.9423  -24.7032  -46.5046 H         1 UNK         0.3000 
    201 H201       -0.2828  -27.4287  -46.9198 H         1 UNK         0.0600 
    202 H202        1.2714  -25.8015  -45.8937 H         1 UNK         0.0600 
    203 H203        1.3660  -24.8898  -47.3988 H         1 UNK         0.0600 
    204 H204        2.0191  -26.5221  -47.3111 H         1 UNK         0.0600 
    205 H205       -0.6868  -24.7417  -49.2317 H         1 UNK         0.3000 
    206 H206        0.0416  -26.2433  -51.5833 H         1 UNK         0.0600 
    207 H207        0.2126  -23.7622  -51.4263 H         1 UNK         0.0600 
    208 H208       -0.8366  -24.2343  -52.7526 H         1 UNK         0.0600 
    209 H209       -1.5369  -23.6393  -51.2482 H         1 UNK         0.0600 
    210 H210       -2.7113  -26.4218  -49.6203 H         1 UNK         0.3000 
    211 H211       -4.6899  -27.3614  -49.6890 H         1 UNK         0.0600 
    212 H212       -3.8586  -28.7446  -52.2918 H         1 UNK         0.0600 
    213 H213       -5.1490  -29.2357  -51.2053 H         1 UNK         0.0600 
    214 H214       -3.4793  -29.3221  -50.6691 H         1 UNK         0.0600 
    215 H215       -4.5057  -24.7677  -50.5760 H         1 UNK         0.3000 
    216 H216       -5.5848  -23.0968  -51.4624 H         1 UNK         0.0600 
    217 H217       -8.0766  -23.2591  -51.6191 H         1 UNK         0.0600 
    218 H218       -7.4707  -24.0455  -50.1765 H         1 UNK         0.0600 
    219 H219       -7.9782  -25.0179  -51.5508 H         1 UNK         0.0600 
    220 H220       -7.9359  -24.1695  -53.5291 H         1 UNK         0.3000 
    221 H221       -8.3128  -24.0109  -55.7050 H         1 UNK         0.0600 
    222 H222       -5.5614  -25.3476  -56.0043 H         1 UNK         0.0600 
    223 H223       -7.1040  -26.1623  -55.8023 H         1 UNK         0.0600 
    224 H224       -6.7940  -25.2394  -57.2605 H         1 UNK         0.0600 
    225 H225       -5.1883  -23.5972  -57.0193 H         1 UNK         0.3000 
    226 H226       -5.6488  -20.8868  -57.8528 H         1 UNK         0.0600 
    227 H227       -4.3437  -22.5121  -59.2055 H         1 UNK         0.0600 
    228 H228       -3.3538  -21.1159  -58.8129 H         1 UNK         0.0600 
    229 H229       -3.1223  -22.6242  -57.9370 H         1 UNK         0.0600 
    230 H230       -4.2530  -22.2496  -54.9655 H         1 UNK         0.3000 
    231 H231       -3.0425  -19.6448  -54.1403 H         1 UNK         0.0600 
    232 H232       -1.6214  -21.0368  -52.6590 H         1 UNK         0.0600 
    233 H233       -1.4254  -21.5461  -54.3272 H         1 UNK         0.0600 
    234 H234       -2.4257  -22.4957  -53.2296 H         1 UNK         0.0600 
    235 H235       -5.9241  -20.3789  -54.0797 H         1 UNK         0.3000 
    236 H236       -6.8364  -21.1452  -51.5727 H         1 UNK         0.0600 
    237 H237       -8.1101  -19.4085  -53.7176 H         1 UNK         0.0600 
    238 H238       -8.3812  -21.1110  -53.3694 H         1 UNK         0.0600 
    239 H239       -8.9584  -19.8904  -52.2526 H         1 UNK         0.0600 
    240 H240       -6.2004  -17.1863  -50.7102 H         1 UNK         0.3000 
    241 H241       -6.0346  -17.9696  -53.5636 H         1 UNK         0.0600 
    242 H242       -9.4611  -16.0964  -52.7336 H         1 UNK         0.3800 
    243 H243       -8.5545  -16.9445  -51.5106 H         1 UNK         0.3800 
    244 H244       -5.0774  -15.6377  -53.7845 H         1 UNK         0.0800 
    245 H245       -5.1162  -15.4789  -52.0530 H         1 UNK         0.0800 
    246 H246       -3.5984  -18.0574  -50.6551 H         1 UNK         0.0800 
    247 H247       -3.4856  -16.3191  -50.5051 H         1 UNK         0.0800 
@<TRIPOS>BOND
     1    1    2 1    
     2    1  127 1    
     3    1  128 1    
     4    1  129 1    
     5    2    3 2    
     6    2    4 am   BACKBONE|DICT|INTERRES
     7    4    5 1    
     8    4  130 1    
     9    5    6 1    
    10    5   65 1    
    11    5  131 1    
    12    6    7 1    
    13    6  132 1    
    14    6  133 1    
    15    7    8 1    
    16    8    9 1    
    17    8  134 1    
    18    8  135 1    
    19    9   10 ar   
    20    9   14 ar   
    21   10   11 ar   
    22   10  136 1    
    23   11   12 ar   
    24   11  126 1    
    25   12   13 ar   
    26   12  137 1    
    27   13   14 ar   
    28   13   15 1    
    29   14  138 1    
    30   15   16 1    
    31   15  139 1    
    32   15  140 1    
    33   16   17 1    
    34   17   18 1    
    35   17  141 1    
    36   17  142 1    
    37   18   19 1    
    38   18   67 1    
    39   18  143 1    
    40   19   20 am   BACKBONE|DICT|INTERRES
    41   19  144 1    
    42   20   21 2    
    43   20   22 1    
    44   22   23 1    
    45   22   24 1    
    46   22  145 1    
    47   23  146 1    
    48   23  147 1    
    49   23  148 1    
    50   24   25 am   BACKBONE|DICT|INTERRES
    51   24  149 1    
    52   25   26 2    
    53   25   27 1    
    54   27   28 1    
    55   27   29 1    
    56   27  150 1    
    57   28  151 1    
    58   28  152 1    
    59   28  153 1    
    60   29   30 am   BACKBONE|DICT|INTERRES
    61   29  154 1    
    62   30   31 2    
    63   30   32 1    
    64   32   33 1    
    65   32   34 1    
    66   32  155 1    
    67   33  156 1    
    68   33  157 1    
    69   33  158 1    
    70   34   35 am   BACKBONE|DICT|INTERRES
    71   34  159 1    
    72   35   36 2    
    73   35   37 1    
    74   37   38 1    
    75   37   39 1    
    76   37  160 1    
    77   38  161 1    
    78   38  162 1    
    79   38  163 1    
    80   39   40 am   BACKBONE|DICT|INTERRES
    81   39  164 1    
    82   40   41 2    
    83   40   42 1    
    84   42   43 1    
    85   42   44 1    
    86   42  165 1    
    87   43  166 1    
    88   43  167 1    
    89   43  168 1    
    90   44   45 am   BACKBONE|DICT|INTERRES
    91   44  169 1    
    92   45   46 2    
    93   45   47 1    
    94   47   48 1    
    95   47   49 1    
    96   47  170 1    
    97   48  171 1    
    98   48  172 1    
    99   48  173 1    
   100   49   50 am   BACKBONE|DICT|INTERRES
   101   49  174 1    
   102   50   51 2    
   103   50   52 1    
   104   52   53 1    
   105   52   54 1    
   106   52  175 1    
   107   53  176 1    
   108   53  177 1    
   109   53  178 1    
   110   54   55 am   BACKBONE|DICT|INTERRES
   111   54  179 1    
   112   55   56 2    
   113   55   57 1    
   114   57   58 1    
   115   57   59 1    
   116   57  180 1    
   117   58  181 1    
   118   58  182 1    
   119   58  183 1    
   120   59   60 am   BACKBONE|DICT|INTERRES
   121   59  184 1    
   122   60   61 2    
   123   60   62 1    
   124   62   63 1    
   125   62   64 1    
   126   62  185 1    
   127   63  186 1    
   128   63  187 1    
   129   63  188 1    
   130   64   65 am   BACKBONE|DICT|INTERRES
   131   64  189 1    
   132   65   66 2    
   133   67   68 2    
   134   67   69 am   BACKBONE|DICT|INTERRES
   135   69   70 1    
   136   69  190 1    
   137   70   71 1    
   138   70   72 1    
   139   70  191 1    
   140   71  192 1    
   141   71  193 1    
   142   71  194 1    
   143   72   73 2    
   144   72   74 am   BACKBONE|DICT|INTERRES
   145   74   75 1    
   146   74  195 1    
   147   75   76 1    
   148   75   77 1    
   149   75  196 1    
   150   76  197 1    
   151   76  198 1    
   152   76  199 1    
   153   77   78 2    
   154   77   79 am   BACKBONE|DICT|INTERRES
   155   79   80 1    
   156   79  200 1    
   157   80   81 1    
   158   80   82 1    
   159   80  201 1    
   160   81  202 1    
   161   81  203 1    
   162   81  204 1    
   163   82   83 2    
   164   82   84 am   BACKBONE|DICT|INTERRES
   165   84   85 1    
   166   84  205 1    
   167   85   86 1    
   168   85   87 1    
   169   85  206 1    
   170   86  207 1    
   171   86  208 1    
   172   86  209 1    
   173   87   88 2    
   174   87   89 am   BACKBONE|DICT|INTERRES
   175   89   90 1    
   176   89  210 1    
   177   90   91 1    
   178   90   92 1    
   179   90  211 1    
   180   91  212 1    
   181   91  213 1    
   182   91  214 1    
   183   92   93 2    
   184   92   94 am   BACKBONE|DICT|INTERRES
   185   94   95 1    
   186   94  215 1    
   187   95   96 1    
   188   95   97 1    
   189   95  216 1    
   190   96  217 1    
   191   96  218 1    
   192   96  219 1    
   193   97   98 2    
   194   97   99 am   BACKBONE|DICT|INTERRES
   195   99  100 1    
   196   99  220 1    
   197  100  101 1    
   198  100  102 1    
   199  100  221 1    
   200  101  222 1    
   201  101  223 1    
   202  101  224 1    
   203  102  103 2    
   204  102  104 am   BACKBONE|DICT|INTERRES
   205  104  105 1    
   206  104  225 1    
   207  105  106 1    
   208  105  107 1    
   209  105  226 1    
   210  106  227 1    
   211  106  228 1    
   212  106  229 1    
   213  107  108 2    
   214  107  109 am   BACKBONE|DICT|INTERRES
   215  109  110 1    
   216  109  230 1    
   217  110  111 1    
   218  110  112 1    
   219  110  231 1    
   220  111  232 1    
   221  111  233 1    
   222  111  234 1    
   223  112  113 2    
   224  112  114 am   BACKBONE|DICT|INTERRES
   225  114  115 1    
   226  114  235 1    
   227  115  116 1    
   228  115  117 1    
   229  115  236 1    
   230  116  237 1    
   231  116  238 1    
   232  116  239 1    
   233  117  118 2    
   234  117  119 am   BACKBONE|DICT|INTERRES
   235  119  120 1    
   236  119  240 1    
   237  120  121 1    
   238  120  124 1    
   239  120  241 1    
   240  121  122 am   BACKBONE|DICT|INTERRES
   241  121  123 2    
   242  122  242 1    
   243  122  243 1    
   244  124  125 1    
   245  124  244 1    
   246  124  245 1    
   247  125  126 1    
   248  126  246 1    
   249  126  247 1    
@<TRIPOS>SUBSTRUCTURE
     1 UNK         1 GROUP             0       ****    0 ROOT    
