@<TRIPOS>MOLECULE
3R540
247   249    1
SMALL
USER_CHARGES


@<TRIPOS>ATOM
      1 CA          6.7655  -11.3212  -47.7227 C.3       0 UNK        -0.1800 
      2 C           5.4627  -11.6200  -46.9944 C.2       0 UNK         0.5000 
      3 O           5.1477  -10.9591  -46.0049 O.2       0 UNK        -0.5000 
      4 N           4.7048  -12.6110  -47.4815 N.am      1 UNK        -0.5000 
      5 CA          3.4319  -13.0579  -46.8966 C.3       1 UNK         0.1400 
      6 C6          3.0183  -14.4711  -47.3854 C.3       23 UNK        -0.0398 
      7 S7          4.3212  -15.7368  -47.2003 S.3       23 UNK        -0.2404 
      8 C8          4.7947  -16.0458  -48.9345 C.3       23 UNK        -0.0205 
      9 C9          3.8742  -17.0447  -49.6256 C.ar      23 UNK        -0.0193 
     10 C10         2.6849  -16.6202  -50.2274 C.ar      23 UNK        -0.1150 
     11 C11         1.8519  -17.5315  -50.8790 C.ar      23 UNK        -0.0193 
     12 C12         2.2286  -18.8744  -50.9565 C.ar      23 UNK        -0.1150 
     13 C13         3.4220  -19.3123  -50.3758 C.ar      23 UNK        -0.0193 
     14 C14         4.2339  -18.3948  -49.7010 C.ar      23 UNK        -0.1150 
     15 C15         3.8512  -20.7673  -50.5099 C.3       23 UNK        -0.0205 
     16 S16         3.5010  -21.7376  -49.0110 S.3       23 UNK        -0.2404 
     17 C17         1.6773  -21.7427  -49.0037 C.3       23 UNK        -0.0398 
     18 CA          1.0710  -22.9957  -48.3369 C.3       11 UNK         0.1400 
     19 N           1.5561  -23.1932  -46.9691 N.am      11 UNK        -0.5000 
     20 C           1.3885  -24.3215  -46.2665 C.2       10 UNK         0.5000 
     21 O           0.8383  -25.3268  -46.7148 O.2       10 UNK        -0.5000 
     22 CA          1.8655  -24.3104  -44.8018 C.3       10 UNK         0.1400 
     23 CB          3.3253  -24.7768  -44.7082 C.3       10 UNK        -0.1800 
     24 N           1.7356  -23.0021  -44.1574 N.am      10 UNK        -0.5000 
     25 C           0.5903  -22.3220  -44.0104 C.2       9 UNK         0.5000 
     26 O          -0.5033  -22.7479  -44.3814 O.2       9 UNK        -0.5000 
     27 CA          0.6780  -20.9256  -43.3683 C.3       9 UNK         0.1400 
     28 CB          1.8551  -20.7780  -42.3810 C.3       9 UNK        -0.1800 
     29 N           0.7141  -19.8372  -44.3484 N.am      9 UNK        -0.5000 
     30 C           1.5713  -19.6550  -45.3660 C.2       8 UNK         0.5000 
     31 O           2.3634  -20.5099  -45.7631 O.2       8 UNK        -0.5000 
     32 CA          1.5790  -18.2561  -46.0187 C.3       8 UNK         0.1400 
     33 CB          0.6133  -18.1783  -47.2079 C.3       8 UNK        -0.1800 
     34 N           1.2432  -17.1881  -45.0747 N.am      8 UNK        -0.5000 
     35 C           2.0004  -16.8141  -44.0326 C.2       7 UNK         0.5000 
     36 O           3.0939  -17.3107  -43.7619 O.2       7 UNK        -0.5000 
     37 CA          1.4274  -15.7118  -43.1263 C.3       7 UNK         0.1400 
     38 CB          1.7048  -14.3203  -43.7111 C.3       7 UNK        -0.1800 
     39 N          -0.0119  -15.8755  -42.9299 N.am      7 UNK        -0.5000 
     40 C          -0.5595  -16.6622  -41.9934 C.2       6 UNK         0.5000 
     41 O           0.0929  -17.2947  -41.1625 O.2       6 UNK        -0.5000 
     42 CA         -2.0972  -16.7686  -41.9850 C.3       6 UNK         0.1400 
     43 CB         -2.7056  -15.6946  -41.0705 C.3       6 UNK        -0.1800 
     44 N          -2.6928  -16.6552  -43.3177 N.am      6 UNK        -0.5000 
     45 C          -2.5346  -17.5557  -44.2970 C.2       5 UNK         0.5000 
     46 O          -1.8808  -18.5901  -44.1738 O.2       5 UNK        -0.5000 
     47 CA         -3.1687  -17.2182  -45.6590 C.3       5 UNK         0.1400 
     48 CB         -4.6104  -17.7420  -45.7374 C.3       5 UNK        -0.1800 
     49 N          -3.1556  -15.7886  -45.9806 N.am      5 UNK        -0.5000 
     50 C          -2.0496  -15.0451  -46.1077 C.2       4 UNK         0.5000 
     51 O          -0.9098  -15.4714  -45.9083 O.2       4 UNK        -0.5000 
     52 CA         -2.2495  -13.5711  -46.4852 C.3       4 UNK         0.1400 
     53 CB         -1.8770  -12.6559  -45.3087 C.3       4 UNK        -0.1800 
     54 N          -1.4268  -13.2393  -47.6447 N.am      4 UNK        -0.5000 
     55 C          -1.7570  -13.5409  -48.9098 C.2       3 UNK         0.5000 
     56 O          -2.8172  -14.0914  -49.2105 O.2       3 UNK        -0.5000 
     57 CA         -0.7437  -13.1961  -50.0269 C.3       3 UNK         0.1400 
     58 CB         -1.4291  -12.7618  -51.3386 C.3       3 UNK        -0.1800 
     59 N           0.2943  -12.2373  -49.6341 N.am      3 UNK        -0.5000 
     60 C           0.1438  -10.9655  -49.2310 C.2       2 UNK         0.5000 
     61 O          -0.9330  -10.3675  -49.2275 O.2       2 UNK        -0.5000 
     62 CA          1.4246  -10.2665  -48.7153 C.3       2 UNK         0.1400 
     63 CB          1.1213   -9.1634  -47.6801 C.3       2 UNK        -0.1800 
     64 N           2.4285  -11.2066  -48.1888 N.am      2 UNK        -0.5000 
     65 C           2.2728  -12.0746  -47.1737 C.2       1 UNK         0.5000 
     66 O           1.2368  -12.1706  -46.5177 O.2       1 UNK        -0.5000 
     67 C          -0.4701  -22.9355  -48.3767 C.2       11 UNK         0.5000 
     68 O          -1.0785  -23.5248  -49.2683 O.2       11 UNK        -0.5000 
     69 N          -1.0805  -22.2747  -47.3811 N.am      12 UNK        -0.5000 
     70 CA         -2.5321  -22.2017  -47.2205 C.3       12 UNK         0.1400 
     71 CB         -2.8937  -21.0967  -46.2206 C.3       12 UNK        -0.1800 
     72 C          -3.1368  -23.5487  -46.7949 C.2       12 UNK         0.5000 
     73 O          -4.2159  -23.9011  -47.2697 O.2       12 UNK        -0.5000 
     74 N          -2.4166  -24.2978  -45.9487 N.am      13 UNK        -0.5000 
     75 CA         -2.7597  -25.6659  -45.5600 C.3       13 UNK         0.1400 
     76 CB         -1.8243  -26.1414  -44.4389 C.3       13 UNK        -0.1800 
     77 C          -2.7306  -26.6318  -46.7593 C.2       13 UNK         0.5000 
     78 O          -3.6709  -27.4073  -46.9323 O.2       13 UNK        -0.5000 
     79 N          -1.6929  -26.5222  -47.6030 N.am      14 UNK        -0.5000 
     80 CA         -1.5594  -27.2588  -48.8640 C.3       14 UNK         0.1400 
     81 CB         -0.1617  -27.0187  -49.4541 C.3       14 UNK        -0.1800 
     82 C          -2.6543  -26.9052  -49.8908 C.2       14 UNK         0.5000 
     83 O          -3.1028  -27.7841  -50.6273 O.2       14 UNK        -0.5000 
     84 N          -3.0974  -25.6404  -49.8884 N.am      15 UNK        -0.5000 
     85 CA         -4.2216  -25.1345  -50.6798 C.3       15 UNK         0.1400 
     86 CB         -4.1021  -23.6057  -50.7972 C.3       15 UNK        -0.1800 
     87 C          -5.6056  -25.5208  -50.1143 C.2       15 UNK         0.5000 
     88 O          -6.6120  -25.1656  -50.7265 O.2       15 UNK        -0.5000 
     89 N          -5.6455  -26.2064  -48.9611 N.am      16 UNK        -0.5000 
     90 CA         -6.8369  -26.6332  -48.2201 C.3       16 UNK         0.1400 
     91 CB         -7.6495  -27.6686  -49.0259 C.3       16 UNK        -0.1800 
     92 C          -7.6836  -25.4444  -47.7185 C.2       16 UNK         0.5000 
     93 O          -8.9131  -25.4812  -47.7935 O.2       16 UNK        -0.5000 
     94 N          -6.9936  -24.4114  -47.2127 N.am      17 UNK        -0.5000 
     95 CA         -7.5270  -23.1624  -46.6593 C.3       17 UNK         0.1400 
     96 CB         -8.4048  -23.4270  -45.4176 C.3       17 UNK        -0.1800 
     97 C          -8.2096  -22.2605  -47.7093 C.2       17 UNK         0.5000 
     98 O          -9.0990  -21.4795  -47.3640 O.2       17 UNK        -0.5000 
     99 N          -7.7616  -22.3622  -48.9683 N.am      18 UNK        -0.5000 
    100 CA        -8.1259  -21.4639  -50.0642 C.3       18 UNK         0.1400 
    101 CB        -8.0416  -22.2359  -51.3943 C.3       18 UNK        -0.1800 
    102 C         -7.2535  -20.1872  -50.0454 C.2       18 UNK         0.5000 
    103 O         -6.7450  -19.7978  -48.9907 O.2       18 UNK        -0.5000 
    104 N         -7.0849  -19.5471  -51.2105 N.am      19 UNK        -0.5000 
    105 CA        -6.3735  -18.2799  -51.4197 C.3       19 UNK         0.1400 
    106 CB        -6.8094  -17.6955  -52.7758 C.3       19 UNK        -0.1800 
    107 C         -4.8348  -18.3820  -51.2903 C.2       19 UNK         0.5000 
    108 O         -4.1057  -17.9297  -52.1734 O.2       19 UNK        -0.5000 
    109 N         -4.3615  -18.9870  -50.1931 N.am      20 UNK        -0.5000 
    110 CA        -2.9711  -19.0772  -49.7255 C.3       20 UNK         0.1400 
    111 CB        -2.4301  -17.6609  -49.4369 C.3       20 UNK        -0.1800 
    112 C         -1.9958  -19.8704  -50.6252 C.2       20 UNK         0.5000 
    113 O         -0.8245  -19.9720  -50.2675 O.2       20 UNK        -0.5000 
    114 N         -2.4804  -20.3989  -51.7581 N.am      21 UNK        -0.5000 
    115 CA        -1.7267  -20.9122  -52.9116 C.3       21 UNK         0.1400 
    116 CB        -0.6807  -21.9814  -52.5242 C.3       21 UNK        -0.1800 
    117 C         -1.1232  -19.7845  -53.7815 C.2       21 UNK         0.5000 
    118 O         -0.1380  -20.0212  -54.4830 O.2       21 UNK        -0.5000 
    119 N         -1.7322  -18.5924  -53.7458 N.am      22 UNK        -0.5000 
    120 CA        -1.3996  -17.4293  -54.5824 C.3       22 UNK         0.1400 
    121 C         -2.5860  -17.0547  -55.5160 C.2       22 UNK         0.5000 
    122 N         -2.3611  -16.1766  -56.4848 N.am      22 UNK        -0.7600 
    123 O         -3.7052  -17.5473  -55.3904 O.2       22 UNK        -0.5000 
    124 C124       -0.9495  -16.2223  -53.7130 C.3       23 UNK        -0.0398 
    125 S125        0.7807  -16.3892  -53.1570 S.3       23 UNK        -0.2404 
    126 C126        0.5423  -17.0661  -51.4919 C.3       23 UNK        -0.0205 
    127 H127        6.7645  -10.2942  -48.0877 H         1 UNK         0.0600 
    128 H128        6.9158  -11.9850  -48.5745 H         1 UNK         0.0600 
    129 H129        7.6102  -11.4425  -47.0446 H         1 UNK         0.0600 
    130 H130        5.0315  -13.1351  -48.2799 H         1 UNK         0.3000 
    131 H131        3.5622  -13.1021  -45.8141 H         1 UNK         0.0600 
    132 H132        2.1442  -14.8236  -46.8346 H         1 UNK         0.0800 
    133 H133        2.7077  -14.4231  -48.4262 H         1 UNK         0.0800 
    134 H134        5.8184  -16.4230  -48.9469 H         1 UNK         0.0800 
    135 H135        4.8180  -15.1089  -49.4923 H         1 UNK         0.0800 
    136 H136        2.4021  -15.5796  -50.2073 H         1 UNK         0.1150 
    137 H137        1.5908  -19.5770  -51.4741 H         1 UNK         0.1150 
    138 H138        5.1565  -18.7315  -49.2493 H         1 UNK         0.1150 
    139 H139        3.3657  -21.2344  -51.3683 H         1 UNK         0.0800 
    140 H140        4.9227  -20.8091  -50.7107 H         1 UNK         0.0800 
    141 H141        1.3227  -21.6641  -50.0315 H         1 UNK         0.0800 
    142 H142        1.3409  -20.8431  -48.4944 H         1 UNK         0.0800 
    143 H143        1.3762  -23.8641  -48.9249 H         1 UNK         0.0600 
    144 H144        2.0096  -22.3978  -46.5298 H         1 UNK         0.3000 
    145 H145        1.2445  -25.0148  -44.2457 H         1 UNK         0.0600 
    146 H146        3.6500  -24.8537  -43.6704 H         1 UNK         0.0600 
    147 H147        3.4500  -25.7616  -45.1606 H         1 UNK         0.0600 
    148 H148        4.0000  -24.0911  -45.2226 H         1 UNK         0.0600 
    149 H149        2.5929  -22.5555  -43.8663 H         1 UNK         0.3000 
    150 H150       -0.2443  -20.7933  -42.8006 H         1 UNK         0.0600 
    151 H151        1.8522  -21.5786  -41.6401 H         1 UNK         0.0600 
    152 H152        1.7842  -19.8358  -41.8367 H         1 UNK         0.0600 
    153 H153        2.8225  -20.7903  -42.8843 H         1 UNK         0.0600 
    154 H154        0.0141  -19.1176  -44.1957 H         1 UNK         0.3000 
    155 H155        2.5884  -18.0675  -46.3889 H         1 UNK         0.0600 
    156 H156       -0.3804  -18.5408  -46.9454 H         1 UNK         0.0600 
    157 H157        0.5167  -17.1549  -47.5712 H         1 UNK         0.0600 
    158 H158        0.9751  -18.7664  -48.0479 H         1 UNK         0.0600 
    159 H159        0.3847  -16.6767  -45.2603 H         1 UNK         0.3000 
    160 H160        1.9339  -15.7734  -42.1606 H         1 UNK         0.0600 
    161 H161        1.2269  -14.1891  -44.6815 H         1 UNK         0.0600 
    162 H162        2.7756  -14.1636  -43.8424 H         1 UNK         0.0600 
    163 H163        1.3394  -13.5338  -43.0508 H         1 UNK         0.0600 
    164 H164       -0.6145  -15.4330  -43.6095 H         1 UNK         0.3000 
    165 H165       -2.3576  -17.7493  -41.5811 H         1 UNK         0.0600 
    166 H166       -3.7870  -15.8086  -40.9929 H         1 UNK         0.0600 
    167 H167       -2.2994  -15.7660  -40.0607 H         1 UNK         0.0600 
    168 H168       -2.4984  -14.6884  -41.4373 H         1 UNK         0.0600 
    169 H169       -3.2435  -15.8304  -43.5048 H         1 UNK         0.3000 
    170 H170       -2.5800  -17.7306  -46.4206 H         1 UNK         0.0600 
    171 H171       -4.6646  -18.7939  -45.4571 H         1 UNK         0.0600 
    172 H172       -5.2744  -17.1939  -45.0681 H         1 UNK         0.0600 
    173 H173       -5.0063  -17.6565  -46.7498 H         1 UNK         0.0600 
    174 H174       -4.0533  -15.3620  -46.1596 H         1 UNK         0.3000 
    175 H175       -3.2989  -13.3951  -46.7312 H         1 UNK         0.0600 
    176 H176       -0.8494  -12.8132  -44.9802 H         1 UNK         0.0600 
    177 H177       -1.9827  -11.6049  -45.5783 H         1 UNK         0.0600 
    178 H178       -2.5252  -12.8400  -44.4513 H         1 UNK         0.0600 
    179 H179       -0.5240  -12.8232  -47.4455 H         1 UNK         0.3000 
    180 H180       -0.2143  -14.1255  -50.2335 H         1 UNK         0.0600 
    181 H181       -2.0346  -11.8657  -51.2014 H         1 UNK         0.0600 
    182 H182       -2.0867  -13.5457  -51.7164 H         1 UNK         0.0600 
    183 H183       -0.6948  -12.5564  -52.1176 H         1 UNK         0.0600 
    184 H184        1.2322  -12.6080  -49.6076 H         1 UNK         0.3000 
    185 H185        1.8778   -9.7879  -49.5845 H         1 UNK         0.0600 
    186 H186        0.4975   -8.3803  -48.1125 H         1 UNK         0.0600 
    187 H187        0.5942   -9.5576  -46.8106 H         1 UNK         0.0600 
    188 H188        2.0380   -8.6893  -47.3296 H         1 UNK         0.0600 
    189 H189        3.3174  -11.2099  -48.6692 H         1 UNK         0.3000 
    190 H190       -0.5220  -21.8911  -46.6324 H         1 UNK         0.3000 
    191 H191       -2.9647  -21.9375  -48.1869 H         1 UNK         0.0600 
    192 H192       -2.5451  -21.3234  -45.2130 H         1 UNK         0.0600 
    193 H193       -3.9748  -20.9653  -46.1695 H         1 UNK         0.0600 
    194 H194       -2.4579  -20.1426  -46.5124 H         1 UNK         0.0600 
    195 H195       -1.5768  -23.8960  -45.5430 H         1 UNK         0.3000 
    196 H196       -3.7784  -25.6520  -45.1666 H         1 UNK         0.0600 
    197 H197       -2.1251  -27.1242  -44.0744 H         1 UNK         0.0600 
    198 H198       -1.8450  -25.4577  -43.5900 H         1 UNK         0.0600 
    199 H199       -0.7927  -26.2225  -44.7789 H         1 UNK         0.0600 
    200 H200       -0.9296  -25.8966  -47.3620 H         1 UNK         0.3000 
    201 H201       -1.6530  -28.3227  -48.6370 H         1 UNK         0.0600 
    202 H202        0.6182  -27.3348  -48.7611 H         1 UNK         0.0600 
    203 H203        0.0035  -25.9665  -49.6854 H         1 UNK         0.0600 
    204 H204       -0.0251  -27.5832  -50.3772 H         1 UNK         0.0600 
    205 H205       -2.6180  -24.9644  -49.3047 H         1 UNK         0.3000 
    206 H206       -4.1508  -25.5569  -51.6841 H         1 UNK         0.0600 
    207 H207       -3.1132  -23.3127  -51.1407 H         1 UNK         0.0600 
    208 H208       -4.8170  -23.2121  -51.5188 H         1 UNK         0.0600 
    209 H209       -4.2870  -23.1084  -49.8457 H         1 UNK         0.0600 
    210 H210       -4.7644  -26.4335  -48.5163 H         1 UNK         0.3000 
    211 H211       -6.4693  -27.1363  -47.3248 H         1 UNK         0.0600 
    212 H212       -8.1082  -27.2276  -49.9113 H         1 UNK         0.0600 
    213 H213       -8.4518  -28.0911  -48.4200 H         1 UNK         0.0600 
    214 H214       -7.0193  -28.4964  -49.3511 H         1 UNK         0.0600 
    215 H215       -5.9761  -24.4536  -47.2436 H         1 UNK         0.3000 
    216 H216       -6.6554  -22.6008  -46.3200 H         1 UNK         0.0600 
    217 H217       -8.6531  -22.4947  -44.9092 H         1 UNK         0.0600 
    218 H218       -7.8872  -24.0593  -44.6963 H         1 UNK         0.0600 
    219 H219       -9.3443  -23.9140  -45.6794 H         1 UNK         0.0600 
    220 H220       -7.0439  -23.0445  -49.1646 H         1 UNK         0.3000 
    221 H221       -9.1618  -21.1452  -49.9323 H         1 UNK         0.0600 
    222 H222       -7.0126  -22.4769  -51.6586 H         1 UNK         0.0600 
    223 H223       -8.5959  -23.1732  -51.3380 H         1 UNK         0.0600 
    224 H224       -8.4728  -21.6652  -52.2172 H         1 UNK         0.0600 
    225 H225       -7.5057  -19.9503  -52.0349 H         1 UNK         0.3000 
    226 H226       -6.6995  -17.5830  -50.6450 H         1 UNK         0.0600 
    227 H227       -7.8907  -17.5658  -52.8223 H         1 UNK         0.0600 
    228 H228       -6.3610  -16.7153  -52.9442 H         1 UNK         0.0600 
    229 H229       -6.5106  -18.3384  -53.6049 H         1 UNK         0.0600 
    230 H230       -5.0660  -19.3484  -49.5525 H         1 UNK         0.3000 
    231 H231       -3.0094  -19.6122  -48.7782 H         1 UNK         0.0600 
    232 H232       -1.4407  -17.6974  -48.9852 H         1 UNK         0.0600 
    233 H233       -3.0807  -17.1192  -48.7509 H         1 UNK         0.0600 
    234 H234       -2.3442  -17.0654  -50.3459 H         1 UNK         0.0600 
    235 H235       -3.4637  -20.2462  -51.9295 H         1 UNK         0.3000 
    236 H236       -2.4683  -21.4065  -53.5405 H         1 UNK         0.0600 
    237 H237       -0.3472  -22.5310  -53.4048 H         1 UNK         0.0600 
    238 H238        0.2048  -21.5343  -52.0751 H         1 UNK         0.0600 
    239 H239       -1.0791  -22.7102  -51.8224 H         1 UNK         0.0600 
    240 H240       -2.5753  -18.4787  -53.1883 H         1 UNK         0.3000 
    241 H241       -0.5824  -17.6895  -55.2576 H         1 UNK         0.0600 
    242 H242       -1.4515  -15.7667  -56.6319 H         1 UNK         0.3800 
    243 H243       -3.1196  -15.9267  -57.1005 H         1 UNK         0.3800 
    244 H244       -0.9978  -15.2886  -54.2754 H         1 UNK         0.0800 
    245 H245       -1.6145  -16.0868  -52.8581 H         1 UNK         0.0800 
    246 H246       -0.1513  -17.8994  -51.5556 H         1 UNK         0.0800 
    247 H247        0.0706  -16.3233  -50.8502 H         1 UNK         0.0800 
@<TRIPOS>BOND
     1    1    2 1    
     2    1  127 1    
     3    1  128 1    
     4    1  129 1    
     5    2    3 2    
     6    2    4 am   BACKBONE|DICT|INTERRES
     7    4    5 1    
     8    4  130 1    
     9    5    6 1    
    10    5   65 1    
    11    5  131 1    
    12    6    7 1    
    13    6  132 1    
    14    6  133 1    
    15    7    8 1    
    16    8    9 1    
    17    8  134 1    
    18    8  135 1    
    19    9   10 ar   
    20    9   14 ar   
    21   10   11 ar   
    22   10  136 1    
    23   11   12 ar   
    24   11  126 1    
    25   12   13 ar   
    26   12  137 1    
    27   13   14 ar   
    28   13   15 1    
    29   14  138 1    
    30   15   16 1    
    31   15  139 1    
    32   15  140 1    
    33   16   17 1    
    34   17   18 1    
    35   17  141 1    
    36   17  142 1    
    37   18   19 1    
    38   18   67 1    
    39   18  143 1    
    40   19   20 am   BACKBONE|DICT|INTERRES
    41   19  144 1    
    42   20   21 2    
    43   20   22 1    
    44   22   23 1    
    45   22   24 1    
    46   22  145 1    
    47   23  146 1    
    48   23  147 1    
    49   23  148 1    
    50   24   25 am   BACKBONE|DICT|INTERRES
    51   24  149 1    
    52   25   26 2    
    53   25   27 1    
    54   27   28 1    
    55   27   29 1    
    56   27  150 1    
    57   28  151 1    
    58   28  152 1    
    59   28  153 1    
    60   29   30 am   BACKBONE|DICT|INTERRES
    61   29  154 1    
    62   30   31 2    
    63   30   32 1    
    64   32   33 1    
    65   32   34 1    
    66   32  155 1    
    67   33  156 1    
    68   33  157 1    
    69   33  158 1    
    70   34   35 am   BACKBONE|DICT|INTERRES
    71   34  159 1    
    72   35   36 2    
    73   35   37 1    
    74   37   38 1    
    75   37   39 1    
    76   37  160 1    
    77   38  161 1    
    78   38  162 1    
    79   38  163 1    
    80   39   40 am   BACKBONE|DICT|INTERRES
    81   39  164 1    
    82   40   41 2    
    83   40   42 1    
    84   42   43 1    
    85   42   44 1    
    86   42  165 1    
    87   43  166 1    
    88   43  167 1    
    89   43  168 1    
    90   44   45 am   BACKBONE|DICT|INTERRES
    91   44  169 1    
    92   45   46 2    
    93   45   47 1    
    94   47   48 1    
    95   47   49 1    
    96   47  170 1    
    97   48  171 1    
    98   48  172 1    
    99   48  173 1    
   100   49   50 am   BACKBONE|DICT|INTERRES
   101   49  174 1    
   102   50   51 2    
   103   50   52 1    
   104   52   53 1    
   105   52   54 1    
   106   52  175 1    
   107   53  176 1    
   108   53  177 1    
   109   53  178 1    
   110   54   55 am   BACKBONE|DICT|INTERRES
   111   54  179 1    
   112   55   56 2    
   113   55   57 1    
   114   57   58 1    
   115   57   59 1    
   116   57  180 1    
   117   58  181 1    
   118   58  182 1    
   119   58  183 1    
   120   59   60 am   BACKBONE|DICT|INTERRES
   121   59  184 1    
   122   60   61 2    
   123   60   62 1    
   124   62   63 1    
   125   62   64 1    
   126   62  185 1    
   127   63  186 1    
   128   63  187 1    
   129   63  188 1    
   130   64   65 am   BACKBONE|DICT|INTERRES
   131   64  189 1    
   132   65   66 2    
   133   67   68 2    
   134   67   69 am   BACKBONE|DICT|INTERRES
   135   69   70 1    
   136   69  190 1    
   137   70   71 1    
   138   70   72 1    
   139   70  191 1    
   140   71  192 1    
   141   71  193 1    
   142   71  194 1    
   143   72   73 2    
   144   72   74 am   BACKBONE|DICT|INTERRES
   145   74   75 1    
   146   74  195 1    
   147   75   76 1    
   148   75   77 1    
   149   75  196 1    
   150   76  197 1    
   151   76  198 1    
   152   76  199 1    
   153   77   78 2    
   154   77   79 am   BACKBONE|DICT|INTERRES
   155   79   80 1    
   156   79  200 1    
   157   80   81 1    
   158   80   82 1    
   159   80  201 1    
   160   81  202 1    
   161   81  203 1    
   162   81  204 1    
   163   82   83 2    
   164   82   84 am   BACKBONE|DICT|INTERRES
   165   84   85 1    
   166   84  205 1    
   167   85   86 1    
   168   85   87 1    
   169   85  206 1    
   170   86  207 1    
   171   86  208 1    
   172   86  209 1    
   173   87   88 2    
   174   87   89 am   BACKBONE|DICT|INTERRES
   175   89   90 1    
   176   89  210 1    
   177   90   91 1    
   178   90   92 1    
   179   90  211 1    
   180   91  212 1    
   181   91  213 1    
   182   91  214 1    
   183   92   93 2    
   184   92   94 am   BACKBONE|DICT|INTERRES
   185   94   95 1    
   186   94  215 1    
   187   95   96 1    
   188   95   97 1    
   189   95  216 1    
   190   96  217 1    
   191   96  218 1    
   192   96  219 1    
   193   97   98 2    
   194   97   99 am   BACKBONE|DICT|INTERRES
   195   99  100 1    
   196   99  220 1    
   197  100  101 1    
   198  100  102 1    
   199  100  221 1    
   200  101  222 1    
   201  101  223 1    
   202  101  224 1    
   203  102  103 2    
   204  102  104 am   BACKBONE|DICT|INTERRES
   205  104  105 1    
   206  104  225 1    
   207  105  106 1    
   208  105  107 1    
   209  105  226 1    
   210  106  227 1    
   211  106  228 1    
   212  106  229 1    
   213  107  108 2    
   214  107  109 am   BACKBONE|DICT|INTERRES
   215  109  110 1    
   216  109  230 1    
   217  110  111 1    
   218  110  112 1    
   219  110  231 1    
   220  111  232 1    
   221  111  233 1    
   222  111  234 1    
   223  112  113 2    
   224  112  114 am   BACKBONE|DICT|INTERRES
   225  114  115 1    
   226  114  235 1    
   227  115  116 1    
   228  115  117 1    
   229  115  236 1    
   230  116  237 1    
   231  116  238 1    
   232  116  239 1    
   233  117  118 2    
   234  117  119 am   BACKBONE|DICT|INTERRES
   235  119  120 1    
   236  119  240 1    
   237  120  121 1    
   238  120  124 1    
   239  120  241 1    
   240  121  122 am   BACKBONE|DICT|INTERRES
   241  121  123 2    
   242  122  242 1    
   243  122  243 1    
   244  124  125 1    
   245  124  244 1    
   246  124  245 1    
   247  125  126 1    
   248  126  246 1    
   249  126  247 1    
@<TRIPOS>SUBSTRUCTURE
     1 UNK         1 GROUP             0       ****    0 ROOT    
