@<TRIPOS>MOLECULE
3R540
247   249    1
SMALL
USER_CHARGES


@<TRIPOS>ATOM
      1 CA         -2.1556  -11.3482  -45.8077 C.3       0 UNK        -0.1800 
      2 C          -1.6909  -12.7947  -45.8801 C.2       0 UNK         0.5000 
      3 O          -1.0453  -13.2768  -44.9450 O.2       0 UNK        -0.5000 
      4 N          -2.0355  -13.4954  -46.9705 N.am      1 UNK        -0.5000 
      5 CA         -1.6980  -14.8955  -47.2733 C.3       1 UNK         0.1400 
      6 C6         -1.8652  -15.1894  -48.7871 C.3       23 UNK        -0.0398 
      7 S7         -0.9698  -16.6886  -49.3150 S.3       23 UNK        -0.2404 
      8 C8          0.4676  -16.0058  -50.1937 C.3       23 UNK        -0.0205 
      9 C9          1.3533  -17.1423  -50.6743 C.ar      23 UNK        -0.0193 
     10 C10         1.1915  -17.6753  -51.9565 C.ar      23 UNK        -0.1150 
     11 C11         1.9317  -18.7917  -52.3580 C.ar      23 UNK        -0.0193 
     12 C12         2.8512  -19.3634  -51.4739 C.ar      23 UNK        -0.1150 
     13 C13         3.0098  -18.8457  -50.1860 C.ar      23 UNK        -0.0193 
     14 C14         2.2801  -17.7172  -49.8018 C.ar      23 UNK        -0.1150 
     15 C15         3.8778  -19.5724  -49.1688 C.3       23 UNK        -0.0205 
     16 S16         3.0662  -21.0950  -48.5667 S.3       23 UNK        -0.2404 
     17 C17         1.3812  -20.4793  -48.2184 C.3       23 UNK        -0.0398 
     18 CA          0.5360  -21.4164  -47.3259 C.3       11 UNK         0.1400 
     19 N           1.0962  -21.5173  -45.9758 N.am      11 UNK        -0.5000 
     20 C           0.9731  -22.5633  -45.1514 C.2       10 UNK         0.5000 
     21 O           0.3360  -23.5801  -45.4261 O.2       10 UNK        -0.5000 
     22 CA          1.6414  -22.4269  -43.7695 C.3       10 UNK         0.1400 
     23 CB          3.1426  -22.7433  -43.8511 C.3       10 UNK        -0.1800 
     24 N           1.4493  -21.0955  -43.1892 N.am      10 UNK        -0.5000 
     25 C           0.2666  -20.6225  -42.7723 C.2       9 UNK         0.5000 
     26 O          -0.7640  -21.2948  -42.7639 O.2       9 UNK        -0.5000 
     27 CA          0.2094  -19.1507  -42.3217 C.3       9 UNK         0.1400 
     28 CB          0.6076  -19.0042  -40.8463 C.3       9 UNK        -0.1800 
     29 N           1.0406  -18.2694  -43.1406 N.am      9 UNK        -0.5000 
     30 C           0.8109  -17.9886  -44.4307 C.2       8 UNK         0.5000 
     31 O          -0.1674  -18.3886  -45.0563 O.2       8 UNK        -0.5000 
     32 CA          1.8783  -17.1504  -45.1557 C.3       8 UNK         0.1400 
     33 CB          1.6496  -15.6509  -44.9188 C.3       8 UNK        -0.1800 
     34 N           3.2384  -17.5120  -44.7518 N.am      8 UNK        -0.5000 
     35 C           3.8011  -18.7050  -44.9914 C.2       7 UNK         0.5000 
     36 O           3.2346  -19.6121  -45.5946 O.2       7 UNK        -0.5000 
     37 CA          5.2066  -18.9427  -44.4133 C.3       7 UNK         0.1400 
     38 CB          6.2761  -18.2881  -45.3003 C.3       7 UNK        -0.1800 
     39 N           5.3313  -18.4433  -43.0440 N.am      7 UNK        -0.5000 
     40 C           4.6647  -18.9395  -41.9909 C.2       6 UNK         0.5000 
     41 O           3.9255  -19.9213  -42.0511 O.2       6 UNK        -0.5000 
     42 CA          4.8011  -18.1679  -40.6630 C.3       6 UNK         0.1400 
     43 CB          6.0183  -18.6653  -39.8697 C.3       6 UNK        -0.1800 
     44 N           4.9039  -16.7176  -40.8591 N.am      6 UNK        -0.5000 
     45 C           3.9472  -15.9659  -41.4184 C.2       5 UNK         0.5000 
     46 O           2.8497  -16.4101  -41.7692 O.2       5 UNK        -0.5000 
     47 CA          4.2991  -14.4979  -41.6950 C.3       5 UNK         0.1400 
     48 CB          5.3630  -14.3950  -42.8072 C.3       5 UNK        -0.1800 
     49 N           3.0819  -13.8091  -42.1052 N.am      5 UNK        -0.5000 
     50 C           2.8972  -12.4884  -42.1827 C.2       4 UNK         0.5000 
     51 O           3.7634  -11.6596  -41.8991 O.2       4 UNK        -0.5000 
     52 CA          1.5132  -12.0027  -42.6627 C.3       4 UNK         0.1400 
     53 CB          1.5800  -11.6044  -44.1451 C.3       4 UNK        -0.1800 
     54 N           0.4180  -12.9647  -42.4700 N.am      4 UNK        -0.5000 
     55 C          -0.0348  -13.3530  -41.2671 C.2       3 UNK         0.5000 
     56 O           0.4717  -12.9729  -40.2104 O.2       3 UNK        -0.5000 
     57 CA         -1.2445  -14.3038  -41.1921 C.3       3 UNK         0.1400 
     58 CB         -2.4433  -13.6080  -40.5192 C.3       3 UNK        -0.1800 
     59 N          -1.6754  -14.8620  -42.4795 N.am      3 UNK        -0.5000 
     60 C          -2.2548  -16.0716  -42.5903 C.2       2 UNK         0.5000 
     61 O          -2.3653  -16.8533  -41.6454 O.2       2 UNK        -0.5000 
     62 CA         -2.8440  -16.4913  -43.9499 C.3       2 UNK         0.1400 
     63 CB         -4.3814  -16.3707  -43.9179 C.3       2 UNK        -0.1800 
     64 N          -2.2823  -15.7090  -45.0441 N.am      2 UNK        -0.5000 
     65 C          -2.4461  -15.8990  -46.3547 C.2       1 UNK         0.5000 
     66 O          -3.1574  -16.7830  -46.8308 O.2       1 UNK        -0.5000 
     67 C          -0.9479  -20.9750  -47.3443 C.2       11 UNK         0.5000 
     68 O          -1.4668  -20.6956  -48.4256 O.2       11 UNK        -0.5000 
     69 N          -1.6278  -20.9278  -46.1858 N.am      12 UNK        -0.5000 
     70 CA         -3.0045  -20.4341  -46.0184 C.3       12 UNK         0.1400 
     71 CB         -3.3938  -20.4989  -44.5353 C.3       12 UNK        -0.1800 
     72 C          -4.0706  -21.1405  -46.8829 C.2       12 UNK         0.5000 
     73 O          -5.1352  -20.5691  -47.1240 O.2       12 UNK        -0.5000 
     74 N          -3.7475  -22.3415  -47.3846 N.am      13 UNK        -0.5000 
     75 CA         -4.4976  -23.0739  -48.4047 C.3       13 UNK         0.1400 
     76 CB         -3.7632  -24.3844  -48.7220 C.3       13 UNK        -0.1800 
     77 C          -4.7308  -22.2692  -49.7004 C.2       13 UNK         0.5000 
     78 O          -5.7688  -22.4563  -50.3373 O.2       13 UNK        -0.5000 
     79 N          -3.7949  -21.3665  -50.0400 N.am      14 UNK        -0.5000 
     80 CA         -3.8809  -20.4420  -51.1715 C.3       14 UNK         0.1400 
     81 CB         -2.5926  -19.6081  -51.2581 C.3       14 UNK        -0.1800 
     82 C          -5.0934  -19.5012  -51.0772 C.2       14 UNK         0.5000 
     83 O          -5.8001  -19.3130  -52.0667 O.2       14 UNK        -0.5000 
     84 N          -5.3154  -18.9442  -49.8793 N.am      15 UNK        -0.5000 
     85 CA         -6.4485  -18.0745  -49.5748 C.3       15 UNK         0.1400 
     86 CB         -6.1282  -17.2405  -48.3261 C.3       15 UNK        -0.1800 
     87 C          -7.7536  -18.8645  -49.3832 C.2       15 UNK         0.5000 
     88 O          -8.8252  -18.3305  -49.6720 O.2       15 UNK        -0.5000 
     89 N          -7.6450  -20.1118  -48.9017 N.am      16 UNK        -0.5000 
     90 CA         -8.7739  -21.0129  -48.6792 C.3       16 UNK         0.1400 
     91 CB         -8.3192  -22.2424  -47.8782 C.3       16 UNK        -0.1800 
     92 C          -9.4647  -21.4317  -49.9892 C.2       16 UNK         0.5000 
     93 O         -10.6864  -21.3037  -50.0822 O.2       16 UNK        -0.5000 
     94 N          -8.6819  -21.8988  -50.9745 N.am      17 UNK        -0.5000 
     95 CA         -9.1798  -22.3185  -52.2900 C.3       17 UNK         0.1400 
     96 CB        -10.0952  -23.5574  -52.1724 C.3       17 UNK        -0.1800 
     97 C          -8.0578  -22.6320  -53.2908 C.2       17 UNK         0.5000 
     98 O          -8.2242  -22.3730  -54.4834 O.2       17 UNK        -0.5000 
     99 N          -6.9510  -23.2172  -52.8177 N.am      18 UNK        -0.5000 
    100 CA        -5.8929  -23.8150  -53.6349 C.3       18 UNK         0.1400 
    101 CB        -5.2119  -24.9259  -52.8137 C.3       18 UNK        -0.1800 
    102 C         -4.8800  -22.7834  -54.1691 C.2       18 UNK         0.5000 
    103 O         -3.6746  -23.0227  -54.1063 O.2       18 UNK        -0.5000 
    104 N         -5.3704  -21.6546  -54.6946 N.am      19 UNK        -0.5000 
    105 CA        -4.5851  -20.5023  -55.1553 C.3       19 UNK         0.1400 
    106 CB        -5.5518  -19.4032  -55.6215 C.3       19 UNK        -0.1800 
    107 C         -3.5536  -20.8102  -56.2608 C.2       19 UNK         0.5000 
    108 O         -2.5643  -20.0881  -56.3825 O.2       19 UNK        -0.5000 
    109 N         -3.7985  -21.8691  -57.0428 N.am      20 UNK        -0.5000 
    110 CA        -2.9096  -22.3411  -58.1039 C.3       20 UNK         0.1400 
    111 CB        -3.7421  -23.1442  -59.1160 C.3       20 UNK        -0.1800 
    112 C         -1.7301  -23.1923  -57.5897 C.2       20 UNK         0.5000 
    113 O         -0.7498  -23.3449  -58.3202 O.2       20 UNK        -0.5000 
    114 N         -1.8470  -23.7540  -56.3781 N.am      21 UNK        -0.5000 
    115 CA        -0.8764  -24.6860  -55.7958 C.3       21 UNK         0.1400 
    116 CB        -1.5917  -26.0098  -55.4806 C.3       21 UNK        -0.1800 
    117 C         -0.2148  -24.1272  -54.5259 C.2       21 UNK         0.5000 
    118 O          0.9652  -24.3922  -54.2943 O.2       21 UNK        -0.5000 
    119 N         -0.9853  -23.3795  -53.7276 N.am      22 UNK        -0.5000 
    120 CA        -0.6066  -22.7715  -52.4425 C.3       22 UNK         0.1400 
    121 C         -0.3806  -23.7851  -51.2797 C.2       22 UNK         0.5000 
    122 N         -0.8286  -25.0299  -51.3918 N.am      22 UNK        -0.7600 
    123 O          0.1756  -23.4362  -50.2435 O.2       22 UNK        -0.5000 
    124 C124        0.5337  -21.7209  -52.5617 C.3       23 UNK        -0.0398 
    125 S125        0.1576  -20.3957  -53.7629 S.3       23 UNK        -0.2404 
    126 C126        1.6947  -19.4171  -53.7242 C.3       23 UNK        -0.0205 
    127 H127       -2.6439  -11.1591  -44.8518 H         1 UNK         0.0600 
    128 H128       -2.8620  -11.1096  -46.6030 H         1 UNK         0.0600 
    129 H129       -1.3027  -10.6758  -45.8954 H         1 UNK         0.0600 
    130 H130       -2.5998  -13.0352  -47.6705 H         1 UNK         0.3000 
    131 H131       -0.6360  -15.0078  -47.0536 H         1 UNK         0.0600 
    132 H132       -1.4957  -14.3486  -49.3757 H         1 UNK         0.0800 
    133 H133       -2.9187  -15.2956  -49.0513 H         1 UNK         0.0800 
    134 H134        1.0275  -15.3450  -49.5302 H         1 UNK         0.0800 
    135 H135        0.1321  -15.4002  -51.0371 H         1 UNK         0.0800 
    136 H136        0.4560  -17.2523  -52.6264 H         1 UNK         0.1150 
    137 H137        3.3985  -20.2496  -51.7633 H         1 UNK         0.1150 
    138 H138        2.3785  -17.3291  -48.7978 H         1 UNK         0.1150 
    139 H139        4.8389  -19.8281  -49.6167 H         1 UNK         0.0800 
    140 H140        4.0949  -18.9262  -48.3168 H         1 UNK         0.0800 
    141 H141        0.9026  -20.3353  -49.1890 H         1 UNK         0.0800 
    142 H142        1.4455  -19.4927  -47.7570 H         1 UNK         0.0800 
    143 H143        0.5581  -22.4094  -47.7785 H         1 UNK         0.0600 
    144 H144        1.6942  -20.7456  -45.6916 H         1 UNK         0.3000 
    145 H145        1.1796  -23.1573  -43.1018 H         1 UNK         0.0600 
    146 H146        3.6079  -22.7023  -42.8661 H         1 UNK         0.0600 
    147 H147        3.6698  -22.0425  -44.4985 H         1 UNK         0.0600 
    148 H148        3.3085  -23.7452  -44.2488 H         1 UNK         0.0600 
    149 H149        2.2724  -20.5088  -43.1034 H         1 UNK         0.3000 
    150 H150       -0.8261  -18.8253  -42.4265 H         1 UNK         0.0600 
    151 H151       -0.0318  -19.6153  -40.2082 H         1 UNK         0.0600 
    152 H152        0.5072  -17.9706  -40.5139 H         1 UNK         0.0600 
    153 H153        1.6379  -19.3142  -40.6733 H         1 UNK         0.0600 
    154 H154        1.8412  -17.8418  -42.6859 H         1 UNK         0.3000 
    155 H155        1.7827  -17.3438  -46.2264 H         1 UNK         0.0600 
    156 H156        0.6673  -15.3497  -45.2735 H         1 UNK         0.0600 
    157 H157        2.3875  -15.0444  -45.4441 H         1 UNK         0.0600 
    158 H158        1.6911  -15.3977  -43.8622 H         1 UNK         0.0600 
    159 H159        3.7468  -16.8353  -44.2048 H         1 UNK         0.3000 
    160 H160        5.3851  -20.0201  -44.4006 H         1 UNK         0.0600 
    161 H161        6.1695  -17.2030  -45.3307 H         1 UNK         0.0600 
    162 H162        6.2081  -18.6539  -46.3258 H         1 UNK         0.0600 
    163 H163        7.2795  -18.5169  -44.9409 H         1 UNK         0.0600 
    164 H164        5.9257  -17.6407  -42.9021 H         1 UNK         0.3000 
    165 H165        3.9041  -18.3644  -40.0722 H         1 UNK         0.0600 
    166 H166        6.0783  -18.1810  -38.8949 H         1 UNK         0.0600 
    167 H167        5.9560  -19.7401  -39.6938 H         1 UNK         0.0600 
    168 H168        6.9521  -18.4727  -40.3994 H         1 UNK         0.0600 
    169 H169        5.7774  -16.2867  -40.5921 H         1 UNK         0.3000 
    170 H170        4.6733  -14.0503  -40.7723 H         1 UNK         0.0600 
    171 H171        5.0064  -14.8230  -43.7449 H         1 UNK         0.0600 
    172 H172        5.6382  -13.3584  -43.0010 H         1 UNK         0.0600 
    173 H173        6.2795  -14.9181  -42.5327 H         1 UNK         0.0600 
    174 H174        2.3044  -14.4297  -42.2902 H         1 UNK         0.3000 
    175 H175        1.2736  -11.1069  -42.0861 H         1 UNK         0.0600 
    176 H176        1.7339  -12.4717  -44.7883 H         1 UNK         0.0600 
    177 H177        0.6615  -11.1100  -44.4588 H         1 UNK         0.0600 
    178 H178        2.3983  -10.9074  -44.3307 H         1 UNK         0.0600 
    179 H179       -0.0546  -13.2630  -43.3162 H         1 UNK         0.3000 
    180 H180       -0.9168  -15.1186  -40.5426 H         1 UNK         0.0600 
    181 H181       -3.2594  -14.3082  -40.3407 H         1 UNK         0.0600 
    182 H182       -2.8285  -12.7944  -41.1349 H         1 UNK         0.0600 
    183 H183       -2.1665  -13.1866  -39.5519 H         1 UNK         0.0600 
    184 H184       -1.6375  -14.2364  -43.2737 H         1 UNK         0.3000 
    185 H185       -2.5750  -17.5356  -44.1120 H         1 UNK         0.0600 
    186 H186       -4.6983  -15.3297  -43.8475 H         1 UNK         0.0600 
    187 H187       -4.8396  -16.8022  -44.8075 H         1 UNK         0.0600 
    188 H188       -4.7988  -16.9005  -43.0606 H         1 UNK         0.0600 
    189 H189       -1.6928  -14.9242  -44.7862 H         1 UNK         0.3000 
    190 H190       -1.1300  -21.1557  -45.3369 H         1 UNK         0.3000 
    191 H191       -3.0015  -19.3857  -46.3202 H         1 UNK         0.0600 
    192 H192       -3.3562  -21.5202  -44.1545 H         1 UNK         0.0600 
    193 H193       -4.4055  -20.1228  -44.3773 H         1 UNK         0.0600 
    194 H194       -2.7271  -19.8888  -43.9275 H         1 UNK         0.0600 
    195 H195       -2.8471  -22.7208  -47.1314 H         1 UNK         0.3000 
    196 H196       -5.4709  -23.3203  -47.9801 H         1 UNK         0.0600 
    197 H197       -3.6559  -25.0036  -47.8313 H         1 UNK         0.0600 
    198 H198       -2.7664  -24.1987  -49.1245 H         1 UNK         0.0600 
    199 H199       -4.3113  -24.9716  -49.4600 H         1 UNK         0.0600 
    200 H200       -2.9837  -21.2526  -49.4359 H         1 UNK         0.3000 
    201 H201       -3.9718  -21.0402  -52.0770 H         1 UNK         0.0600 
    202 H202       -1.6978  -20.2256  -51.2375 H         1 UNK         0.0600 
    203 H203       -2.5135  -18.9130  -50.4226 H         1 UNK         0.0600 
    204 H204       -2.5654  -19.0215  -52.1771 H         1 UNK         0.0600 
    205 H205       -4.7054  -19.1803  -49.1087 H         1 UNK         0.3000 
    206 H206       -6.5972  -17.3871  -50.4104 H         1 UNK         0.0600 
    207 H207       -6.9667  -16.5972  -48.0570 H         1 UNK         0.0600 
    208 H208       -5.9057  -17.8704  -47.4637 H         1 UNK         0.0600 
    209 H209       -5.2681  -16.5942  -48.4998 H         1 UNK         0.0600 
    210 H210       -6.7274  -20.4476  -48.6370 H         1 UNK         0.3000 
    211 H211       -9.5048  -20.4747  -48.0718 H         1 UNK         0.0600 
    212 H212       -7.6756  -22.8937  -48.4675 H         1 UNK         0.0600 
    213 H213       -9.1785  -22.8371  -47.5665 H         1 UNK         0.0600 
    214 H214       -7.7776  -21.9542  -46.9770 H         1 UNK         0.0600 
    215 H215       -7.6777  -21.9305  -50.8275 H         1 UNK         0.3000 
    216 H216       -9.7592  -21.4931  -52.7089 H         1 UNK         0.0600 
    217 H217      -10.3824  -23.9295  -53.1571 H         1 UNK         0.0600 
    218 H218      -11.0208  -23.3356  -51.6429 H         1 UNK         0.0600 
    219 H219       -9.5967  -24.3731  -51.6476 H         1 UNK         0.0600 
    220 H220       -6.8181  -23.2958  -51.8162 H         1 UNK         0.3000 
    221 H221       -6.3507  -24.2866  -54.5068 H         1 UNK         0.0600 
    222 H222       -4.6778  -24.5199  -51.9541 H         1 UNK         0.0600 
    223 H223       -5.9396  -25.6493  -52.4458 H         1 UNK         0.0600 
    224 H224       -4.4901  -25.4758  -53.4184 H         1 UNK         0.0600 
    225 H225       -6.3799  -21.5612  -54.7270 H         1 UNK         0.3000 
    226 H226       -4.0268  -20.1223  -54.2983 H         1 UNK         0.0600 
    227 H227       -6.2249  -19.1028  -54.8183 H         1 UNK         0.0600 
    228 H228       -5.0090  -18.5117  -55.9384 H         1 UNK         0.0600 
    229 H229       -6.1608  -19.7353  -56.4631 H         1 UNK         0.0600 
    230 H230       -4.6427  -22.3986  -56.8828 H         1 UNK         0.3000 
    231 H231       -2.4890  -21.4771  -58.6230 H         1 UNK         0.0600 
    232 H232       -3.1238  -23.4883  -59.9462 H         1 UNK         0.0600 
    233 H233       -4.5421  -22.5366  -59.5396 H         1 UNK         0.0600 
    234 H234       -4.1945  -24.0243  -58.6571 H         1 UNK         0.0600 
    235 H235       -2.6545  -23.5254  -55.8108 H         1 UNK         0.3000 
    236 H236       -0.0748  -24.9021  -56.5050 H         1 UNK         0.0600 
    237 H237       -0.9037  -26.7321  -55.0393 H         1 UNK         0.0600 
    238 H238       -2.4148  -25.8667  -54.7797 H         1 UNK         0.0600 
    239 H239       -1.9987  -26.4605  -56.3858 H         1 UNK         0.0600 
    240 H240       -1.9622  -23.2398  -53.9788 H         1 UNK         0.3000 
    241 H241       -1.5047  -22.2383  -52.1373 H         1 UNK         0.0600 
    242 H242       -1.2969  -25.3327  -52.2295 H         1 UNK         0.3800 
    243 H243       -0.6824  -25.6771  -50.6338 H         1 UNK         0.3800 
    244 H244        0.7037  -21.2486  -51.5931 H         1 UNK         0.0800 
    245 H245        1.4737  -22.1994  -52.8386 H         1 UNK         0.0800 
    246 H246        1.6324  -18.6303  -54.4771 H         1 UNK         0.0800 
    247 H247        2.5350  -20.0509  -54.0119 H         1 UNK         0.0800 
@<TRIPOS>BOND
     1    1    2 1    
     2    1  127 1    
     3    1  128 1    
     4    1  129 1    
     5    2    3 2    
     6    2    4 am   BACKBONE|DICT|INTERRES
     7    4    5 1    
     8    4  130 1    
     9    5    6 1    
    10    5   65 1    
    11    5  131 1    
    12    6    7 1    
    13    6  132 1    
    14    6  133 1    
    15    7    8 1    
    16    8    9 1    
    17    8  134 1    
    18    8  135 1    
    19    9   10 ar   
    20    9   14 ar   
    21   10   11 ar   
    22   10  136 1    
    23   11   12 ar   
    24   11  126 1    
    25   12   13 ar   
    26   12  137 1    
    27   13   14 ar   
    28   13   15 1    
    29   14  138 1    
    30   15   16 1    
    31   15  139 1    
    32   15  140 1    
    33   16   17 1    
    34   17   18 1    
    35   17  141 1    
    36   17  142 1    
    37   18   19 1    
    38   18   67 1    
    39   18  143 1    
    40   19   20 am   BACKBONE|DICT|INTERRES
    41   19  144 1    
    42   20   21 2    
    43   20   22 1    
    44   22   23 1    
    45   22   24 1    
    46   22  145 1    
    47   23  146 1    
    48   23  147 1    
    49   23  148 1    
    50   24   25 am   BACKBONE|DICT|INTERRES
    51   24  149 1    
    52   25   26 2    
    53   25   27 1    
    54   27   28 1    
    55   27   29 1    
    56   27  150 1    
    57   28  151 1    
    58   28  152 1    
    59   28  153 1    
    60   29   30 am   BACKBONE|DICT|INTERRES
    61   29  154 1    
    62   30   31 2    
    63   30   32 1    
    64   32   33 1    
    65   32   34 1    
    66   32  155 1    
    67   33  156 1    
    68   33  157 1    
    69   33  158 1    
    70   34   35 am   BACKBONE|DICT|INTERRES
    71   34  159 1    
    72   35   36 2    
    73   35   37 1    
    74   37   38 1    
    75   37   39 1    
    76   37  160 1    
    77   38  161 1    
    78   38  162 1    
    79   38  163 1    
    80   39   40 am   BACKBONE|DICT|INTERRES
    81   39  164 1    
    82   40   41 2    
    83   40   42 1    
    84   42   43 1    
    85   42   44 1    
    86   42  165 1    
    87   43  166 1    
    88   43  167 1    
    89   43  168 1    
    90   44   45 am   BACKBONE|DICT|INTERRES
    91   44  169 1    
    92   45   46 2    
    93   45   47 1    
    94   47   48 1    
    95   47   49 1    
    96   47  170 1    
    97   48  171 1    
    98   48  172 1    
    99   48  173 1    
   100   49   50 am   BACKBONE|DICT|INTERRES
   101   49  174 1    
   102   50   51 2    
   103   50   52 1    
   104   52   53 1    
   105   52   54 1    
   106   52  175 1    
   107   53  176 1    
   108   53  177 1    
   109   53  178 1    
   110   54   55 am   BACKBONE|DICT|INTERRES
   111   54  179 1    
   112   55   56 2    
   113   55   57 1    
   114   57   58 1    
   115   57   59 1    
   116   57  180 1    
   117   58  181 1    
   118   58  182 1    
   119   58  183 1    
   120   59   60 am   BACKBONE|DICT|INTERRES
   121   59  184 1    
   122   60   61 2    
   123   60   62 1    
   124   62   63 1    
   125   62   64 1    
   126   62  185 1    
   127   63  186 1    
   128   63  187 1    
   129   63  188 1    
   130   64   65 am   BACKBONE|DICT|INTERRES
   131   64  189 1    
   132   65   66 2    
   133   67   68 2    
   134   67   69 am   BACKBONE|DICT|INTERRES
   135   69   70 1    
   136   69  190 1    
   137   70   71 1    
   138   70   72 1    
   139   70  191 1    
   140   71  192 1    
   141   71  193 1    
   142   71  194 1    
   143   72   73 2    
   144   72   74 am   BACKBONE|DICT|INTERRES
   145   74   75 1    
   146   74  195 1    
   147   75   76 1    
   148   75   77 1    
   149   75  196 1    
   150   76  197 1    
   151   76  198 1    
   152   76  199 1    
   153   77   78 2    
   154   77   79 am   BACKBONE|DICT|INTERRES
   155   79   80 1    
   156   79  200 1    
   157   80   81 1    
   158   80   82 1    
   159   80  201 1    
   160   81  202 1    
   161   81  203 1    
   162   81  204 1    
   163   82   83 2    
   164   82   84 am   BACKBONE|DICT|INTERRES
   165   84   85 1    
   166   84  205 1    
   167   85   86 1    
   168   85   87 1    
   169   85  206 1    
   170   86  207 1    
   171   86  208 1    
   172   86  209 1    
   173   87   88 2    
   174   87   89 am   BACKBONE|DICT|INTERRES
   175   89   90 1    
   176   89  210 1    
   177   90   91 1    
   178   90   92 1    
   179   90  211 1    
   180   91  212 1    
   181   91  213 1    
   182   91  214 1    
   183   92   93 2    
   184   92   94 am   BACKBONE|DICT|INTERRES
   185   94   95 1    
   186   94  215 1    
   187   95   96 1    
   188   95   97 1    
   189   95  216 1    
   190   96  217 1    
   191   96  218 1    
   192   96  219 1    
   193   97   98 2    
   194   97   99 am   BACKBONE|DICT|INTERRES
   195   99  100 1    
   196   99  220 1    
   197  100  101 1    
   198  100  102 1    
   199  100  221 1    
   200  101  222 1    
   201  101  223 1    
   202  101  224 1    
   203  102  103 2    
   204  102  104 am   BACKBONE|DICT|INTERRES
   205  104  105 1    
   206  104  225 1    
   207  105  106 1    
   208  105  107 1    
   209  105  226 1    
   210  106  227 1    
   211  106  228 1    
   212  106  229 1    
   213  107  108 2    
   214  107  109 am   BACKBONE|DICT|INTERRES
   215  109  110 1    
   216  109  230 1    
   217  110  111 1    
   218  110  112 1    
   219  110  231 1    
   220  111  232 1    
   221  111  233 1    
   222  111  234 1    
   223  112  113 2    
   224  112  114 am   BACKBONE|DICT|INTERRES
   225  114  115 1    
   226  114  235 1    
   227  115  116 1    
   228  115  117 1    
   229  115  236 1    
   230  116  237 1    
   231  116  238 1    
   232  116  239 1    
   233  117  118 2    
   234  117  119 am   BACKBONE|DICT|INTERRES
   235  119  120 1    
   236  119  240 1    
   237  120  121 1    
   238  120  124 1    
   239  120  241 1    
   240  121  122 am   BACKBONE|DICT|INTERRES
   241  121  123 2    
   242  122  242 1    
   243  122  243 1    
   244  124  125 1    
   245  124  244 1    
   246  124  245 1    
   247  125  126 1    
   248  126  246 1    
   249  126  247 1    
@<TRIPOS>SUBSTRUCTURE
     1 UNK         1 GROUP             0       ****    0 ROOT    
