@<TRIPOS>MOLECULE
3R540
247   249    1
SMALL
USER_CHARGES


@<TRIPOS>ATOM
      1 CA          1.1532  -12.8977  -41.8668 C.3       0 UNK        -0.1800 
      2 C          -0.2358  -12.3649  -42.1811 C.2       0 UNK         0.5000 
      3 O          -0.5403  -11.2157  -41.8632 O.2       0 UNK        -0.5000 
      4 N          -1.0817  -13.2016  -42.7942 N.am      1 UNK        -0.5000 
      5 CA         -2.4659  -12.8757  -43.1578 C.3       1 UNK         0.1400 
      6 C6         -3.3423  -14.1480  -43.2564 C.3       23 UNK        -0.0398 
      7 S7         -2.7972  -15.3564  -44.5170 S.3       23 UNK        -0.2404 
      8 C8         -4.0729  -15.1075  -45.7923 C.3       23 UNK        -0.0205 
      9 C9         -4.0674  -16.2422  -46.8012 C.ar      23 UNK        -0.0193 
     10 C10        -3.4881  -16.0796  -48.0625 C.ar      23 UNK        -0.1150 
     11 C11        -3.4788  -17.1369  -48.9775 C.ar      23 UNK        -0.0193 
     12 C12        -4.0479  -18.3628  -48.6202 C.ar      23 UNK        -0.1150 
     13 C13        -4.6383  -18.5348  -47.3645 C.ar      23 UNK        -0.0193 
     14 C14        -4.6574  -17.4629  -46.4671 C.ar      23 UNK        -0.1150 
     15 C15        -5.2606  -19.8779  -46.9989 C.3       23 UNK        -0.0205 
     16 S16        -4.9013  -20.4391  -45.2961 S.3       23 UNK        -0.2404 
     17 C17        -3.0759  -20.4115  -45.2488 C.3       23 UNK        -0.0398 
     18 CA         -2.4345  -21.6470  -45.9198 C.3       11 UNK         0.1400 
     19 N          -1.0771  -21.3644  -46.4011 N.am      11 UNK        -0.5000 
     20 C          -0.3132  -22.2176  -47.0976 C.2       10 UNK         0.5000 
     21 O          -0.6673  -23.3567  -47.3900 O.2       10 UNK        -0.5000 
     22 CA          1.0998  -21.7503  -47.4814 C.3       10 UNK         0.1400 
     23 CB          1.0600  -20.8235  -48.7064 C.3       10 UNK        -0.1800 
     24 N           1.7751  -21.0910  -46.3644 N.am      10 UNK        -0.5000 
     25 C           2.1322  -21.7102  -45.2290 C.2       9 UNK         0.5000 
     26 O           2.0223  -22.9230  -45.0510 O.2       9 UNK        -0.5000 
     27 CA          2.6551  -20.8258  -44.0816 C.3       9 UNK         0.1400 
     28 CB          4.1517  -20.5310  -44.2560 C.3       9 UNK        -0.1800 
     29 N           1.9156  -19.5690  -43.9573 N.am      9 UNK        -0.5000 
     30 C           0.6131  -19.4775  -43.6502 C.2       8 UNK         0.5000 
     31 O          -0.0975  -20.4463  -43.3786 O.2       8 UNK        -0.5000 
     32 CA         -0.0102  -18.0709  -43.7110 C.3       8 UNK         0.1400 
     33 CB          0.2318  -17.2962  -42.4068 C.3       8 UNK        -0.1800 
     34 N           0.4954  -17.2954  -44.8440 N.am      8 UNK        -0.5000 
     35 C           0.2247  -17.5760  -46.1264 C.2       7 UNK         0.5000 
     36 O          -0.4931  -18.5091  -46.4823 O.2       7 UNK        -0.5000 
     37 CA          0.9265  -16.7047  -47.1823 C.3       7 UNK         0.1400 
     38 CB          0.2268  -15.3471  -47.3225 C.3       7 UNK        -0.1800 
     39 N           2.3389  -16.4888  -46.8692 N.am      7 UNK        -0.5000 
     40 C           3.2704  -17.4542  -46.8944 C.2       6 UNK         0.5000 
     41 O           3.0381  -18.6154  -47.2247 O.2       6 UNK        -0.5000 
     42 CA          4.6917  -17.0778  -46.4314 C.3       6 UNK         0.1400 
     43 CB          5.5380  -16.6112  -47.6250 C.3       6 UNK        -0.1800 
     44 N           4.7128  -16.0428  -45.3985 N.am      6 UNK        -0.5000 
     45 C           4.1008  -16.1141  -44.2078 C.2       5 UNK         0.5000 
     46 O           3.5021  -17.1125  -43.8074 O.2       5 UNK        -0.5000 
     47 CA          4.1104  -14.8392  -43.3427 C.3       5 UNK         0.1400 
     48 CB          5.1353  -14.9657  -42.2067 C.3       5 UNK        -0.1800 
     49 N           4.3777  -13.6095  -44.0984 N.am      5 UNK        -0.5000 
     50 C           3.5945  -13.1014  -45.0601 C.2       4 UNK         0.5000 
     51 O           2.5203  -13.5992  -45.4108 O.2       4 UNK        -0.5000 
     52 CA          4.1479  -11.8709  -45.7888 C.3       4 UNK         0.1400 
     53 CB          5.2646  -12.2782  -46.7691 C.3       4 UNK        -0.1800 
     54 N           3.0741  -11.2066  -46.5183 N.am      4 UNK        -0.5000 
     55 C           3.0717   -9.9172  -46.8762 C.2       3 UNK         0.5000 
     56 O           3.9942   -9.1407  -46.6230 O.2       3 UNK        -0.5000 
     57 CA          1.8487   -9.3944  -47.6569 C.3       3 UNK         0.1400 
     58 CB          2.1761   -9.2943  -49.1552 C.3       3 UNK        -0.1800 
     59 N           0.6325  -10.1958  -47.4954 N.am      3 UNK        -0.5000 
     60 C          -0.0800  -10.2961  -46.3659 C.2       2 UNK         0.5000 
     61 O           0.2480   -9.7546  -45.3084 O.2       2 UNK        -0.5000 
     62 CA         -1.3802  -11.1187  -46.4237 C.3       2 UNK         0.1400 
     63 CB         -1.4943  -12.0440  -47.6525 C.3       2 UNK        -0.1800 
     64 N          -1.4900  -11.9151  -45.2064 N.am      2 UNK        -0.5000 
     65 C          -2.5755  -12.0025  -44.4287 C.2       1 UNK         0.5000 
     66 O          -3.6417  -11.4371  -44.6775 O.2       1 UNK        -0.5000 
     67 C          -2.5262  -22.9043  -45.0239 C.2       11 UNK         0.5000 
     68 O          -3.5127  -23.6372  -45.1040 O.2       11 UNK        -0.5000 
     69 N          -1.4740  -23.1762  -44.2399 N.am      12 UNK        -0.5000 
     70 CA         -1.3380  -24.3914  -43.4336 C.3       12 UNK         0.1400 
     71 CB         -0.1187  -24.2498  -42.5108 C.3       12 UNK        -0.1800 
     72 C          -1.2470  -25.6907  -44.2658 C.2       12 UNK         0.5000 
     73 O          -1.6010  -26.7544  -43.7557 O.2       12 UNK        -0.5000 
     74 N          -0.8053  -25.5938  -45.5274 N.am      13 UNK        -0.5000 
     75 CA         -0.7273  -26.6962  -46.4817 C.3       13 UNK         0.1400 
     76 CB          0.5357  -26.5275  -47.3458 C.3       13 UNK        -0.1800 
     77 C          -2.0180  -26.7507  -47.3196 C.2       13 UNK         0.5000 
     78 O          -2.0153  -26.3810  -48.4957 O.2       13 UNK        -0.5000 
     79 N          -3.1093  -27.1982  -46.6814 N.am      14 UNK        -0.5000 
     80 CA         -4.4323  -27.4540  -47.2677 C.3       14 UNK         0.1400 
     81 CB         -4.3716  -28.6867  -48.1943 C.3       14 UNK        -0.1800 
     82 C          -5.0432  -26.2191  -47.9629 C.2       14 UNK         0.5000 
     83 O          -5.4926  -26.3080  -49.1086 O.2       14 UNK        -0.5000 
     84 N          -5.0106  -25.0754  -47.2629 N.am      15 UNK        -0.5000 
     85 CA         -5.4723  -23.7618  -47.7220 C.3       15 UNK         0.1400 
     86 CB         -7.0042  -23.7491  -47.9114 C.3       15 UNK        -0.1800 
     87 C          -4.7052  -23.2780  -48.9682 C.2       15 UNK         0.5000 
     88 O          -5.3211  -22.7521  -49.8936 O.2       15 UNK        -0.5000 
     89 N          -3.3803  -23.4916  -48.9729 N.am      16 UNK        -0.5000 
     90 CA         -2.4490  -23.2283  -50.0754 C.3       16 UNK         0.1400 
     91 CB         -2.3510  -21.7163  -50.3731 C.3       16 UNK        -0.1800 
     92 C          -2.7664  -24.0901  -51.3109 C.2       16 UNK         0.5000 
     93 O          -2.7594  -23.5892  -52.4330 O.2       16 UNK        -0.5000 
     94 N          -3.0503  -25.3780  -51.0627 N.am      17 UNK        -0.5000 
     95 CA         -3.4999  -26.3886  -52.0244 C.3       17 UNK         0.1400 
     96 CB         -2.3522  -26.7730  -52.9812 C.3       17 UNK        -0.1800 
     97 C          -4.7884  -25.9577  -52.7582 C.2       17 UNK         0.5000 
     98 O          -4.8404  -25.9870  -53.9890 O.2       17 UNK        -0.5000 
     99 N          -5.7947  -25.5525  -51.9687 N.am      18 UNK        -0.5000 
    100 CA        -7.0811  -24.9873  -52.3880 C.3       18 UNK         0.1400 
    101 CB        -7.9257  -26.0302  -53.1499 C.3       18 UNK        -0.1800 
    102 C         -6.9086  -23.6608  -53.1592 C.2       18 UNK         0.5000 
    103 O         -7.2270  -23.5742  -54.3476 O.2       18 UNK        -0.5000 
    104 N         -6.4010  -22.6502  -52.4437 N.am      19 UNK        -0.5000 
    105 CA        -6.1017  -21.2794  -52.8571 C.3       19 UNK         0.1400 
    106 CB        -7.3372  -20.5474  -53.4194 C.3       19 UNK        -0.1800 
    107 C         -4.8853  -21.1913  -53.7901 C.2       19 UNK         0.5000 
    108 O         -3.8617  -20.6532  -53.3731 O.2       19 UNK        -0.5000 
    109 N         -5.0301  -21.6871  -55.0288 N.am      20 UNK        -0.5000 
    110 CA        -4.0115  -21.8127  -56.0850 C.3       20 UNK         0.1400 
    111 CB        -3.1654  -23.0750  -55.8327 C.3       20 UNK        -0.1800 
    112 C         -3.1327  -20.5572  -56.3066 C.2       20 UNK         0.5000 
    113 O         -1.9253  -20.6786  -56.5281 O.2       20 UNK        -0.5000 
    114 N         -3.7447  -19.3676  -56.1882 N.am      21 UNK        -0.5000 
    115 CA        -3.1136  -18.0386  -56.2276 C.3       21 UNK         0.1400 
    116 CB        -2.6283  -17.7165  -57.6563 C.3       21 UNK        -0.1800 
    117 C         -2.0055  -17.8358  -55.1635 C.2       21 UNK         0.5000 
    118 O         -1.0918  -17.0353  -55.3696 O.2       21 UNK        -0.5000 
    119 N         -2.1044  -18.5712  -54.0482 N.am      22 UNK        -0.5000 
    120 CA        -1.1145  -18.6842  -52.9674 C.3       22 UNK         0.1400 
    121 C          0.1858  -19.4555  -53.3537 C.2       22 UNK         0.5000 
    122 N          0.2296  -20.1708  -54.4730 N.am      22 UNK        -0.7600 
    123 O          1.1676  -19.4325  -52.6171 O.2       22 UNK        -0.5000 
    124 C124       -0.8561  -17.3348  -52.2281 C.3       23 UNK        -0.0398 
    125 S125       -1.1423  -17.4706  -50.4306 S.3       23 UNK        -0.2404 
    126 C126       -2.8834  -16.9509  -50.3633 C.3       23 UNK        -0.0205 
    127 H127        1.8800  -12.4870  -42.5670 H         1 UNK         0.0600 
    128 H128        1.1817  -13.9852  -41.9284 H         1 UNK         0.0600 
    129 H129        1.4495  -12.6111  -40.8578 H         1 UNK         0.0600 
    130 H130       -0.7809  -14.1339  -43.0392 H         1 UNK         0.3000 
    131 H131       -2.8838  -12.2740  -42.3477 H         1 UNK         0.0600 
    132 H132       -3.3370  -14.6594  -42.2930 H         1 UNK         0.0800 
    133 H133       -4.3853  -13.8750  -43.4248 H         1 UNK         0.0800 
    134 H134       -3.9117  -14.1486  -46.2865 H         1 UNK         0.0800 
    135 H135       -5.0584  -15.0551  -45.3273 H         1 UNK         0.0800 
    136 H136       -3.0467  -15.1311  -48.3336 H         1 UNK         0.1150 
    137 H137       -4.0352  -19.1810  -49.3269 H         1 UNK         0.1150 
    138 H138       -5.1137  -17.5824  -45.4946 H         1 UNK         0.1150 
    139 H139       -6.3418  -19.8037  -47.1208 H         1 UNK         0.0800 
    140 H140       -4.9266  -20.6450  -47.6967 H         1 UNK         0.0800 
    141 H141       -2.7513  -20.3167  -44.2113 H         1 UNK         0.0800 
    142 H142       -2.7413  -19.4974  -45.7367 H         1 UNK         0.0800 
    143 H143       -3.0070  -21.8639  -46.8205 H         1 UNK         0.0600 
    144 H144       -0.7301  -20.4215  -46.2456 H         1 UNK         0.3000 
    145 H145        1.6810  -22.6352  -47.7494 H         1 UNK         0.0600 
    146 H146        2.0646  -20.5356  -49.0160 H         1 UNK         0.0600 
    147 H147        0.5906  -21.3203  -49.5562 H         1 UNK         0.0600 
    148 H148        0.4975  -19.9105  -48.5111 H         1 UNK         0.0600 
    149 H149        1.9664  -20.0997  -46.4704 H         1 UNK         0.3000 
    150 H150        2.5244  -21.3786  -43.1489 H         1 UNK         0.0600 
    151 H151        4.7316  -21.4547  -44.2557 H         1 UNK         0.0600 
    152 H152        4.5305  -19.9067  -43.4464 H         1 UNK         0.0600 
    153 H153        4.3525  -20.0206  -45.1970 H         1 UNK         0.0600 
    154 H154        2.4383  -18.7115  -44.1104 H         1 UNK         0.3000 
    155 H155       -1.0886  -18.1899  -43.8375 H         1 UNK         0.0600 
    156 H156       -0.1517  -17.8506  -41.5494 H         1 UNK         0.0600 
    157 H157       -0.2766  -16.3325  -42.4220 H         1 UNK         0.0600 
    158 H158        1.2926  -17.1152  -42.2317 H         1 UNK         0.0600 
    159 H159        1.1465  -16.5531  -44.6372 H         1 UNK         0.3000 
    160 H160        0.8651  -17.2236  -48.1409 H         1 UNK         0.0600 
    161 H161        0.2461  -14.7800  -46.3911 H         1 UNK         0.0600 
    162 H162       -0.8170  -15.4795  -47.6014 H         1 UNK         0.0600 
    163 H163        0.6966  -14.7423  -48.0979 H         1 UNK         0.0600 
    164 H164        2.5974  -15.5622  -46.5544 H         1 UNK         0.3000 
    165 H165        5.1551  -17.9721  -46.0122 H         1 UNK         0.0600 
    166 H166        6.5692  -16.4196  -47.3277 H         1 UNK         0.0600 
    167 H167        5.5627  -17.3717  -48.4067 H         1 UNK         0.0600 
    168 H168        5.1400  -15.6974  -48.0683 H         1 UNK         0.0600 
    169 H169        5.1871  -15.1843  -45.6330 H         1 UNK         0.3000 
    170 H170        3.1189  -14.7544  -42.8992 H         1 UNK         0.0600 
    171 H171        4.9481  -15.8588  -41.6087 H         1 UNK         0.0600 
    172 H172        6.1543  -15.0344  -42.5894 H         1 UNK         0.0600 
    173 H173        5.0849  -14.1100  -41.5330 H         1 UNK         0.0600 
    174 H174        5.2448  -13.1388  -43.8812 H         1 UNK         0.3000 
    175 H175        4.5494  -11.1882  -45.0368 H         1 UNK         0.0600 
    176 H176        4.8959  -12.9630  -47.5339 H         1 UNK         0.0600 
    177 H177        5.6837  -11.4088  -47.2758 H         1 UNK         0.0600 
    178 H178        6.0874  -12.7730  -46.2520 H         1 UNK         0.0600 
    179 H179        2.2671  -11.7859  -46.7089 H         1 UNK         0.3000 
    180 H180        1.6378   -8.3882  -47.2883 H         1 UNK         0.0600 
    181 H181        2.3765  -10.2748  -49.5890 H         1 UNK         0.0600 
    182 H182        3.0584   -8.6751  -49.3230 H         1 UNK         0.0600 
    183 H183        1.3544   -8.8416  -49.7104 H         1 UNK         0.0600 
    184 H184        0.2992  -10.6743  -48.3197 H         1 UNK         0.3000 
    185 H185       -2.1932  -10.3915  -46.4698 H         1 UNK         0.0600 
    186 H186       -1.5515  -11.4707  -48.5783 H         1 UNK         0.0600 
    187 H187       -0.6438  -12.7201  -47.7281 H         1 UNK         0.0600 
    188 H188       -2.3970  -12.6527  -47.6021 H         1 UNK         0.0600 
    189 H189       -0.6410  -12.3615  -44.8905 H         1 UNK         0.3000 
    190 H190       -0.7070  -22.5156  -44.2106 H         1 UNK         0.3000 
    191 H191       -2.2281  -24.4706  -42.8060 H         1 UNK         0.0600 
    192 H192       -0.1888  -23.3520  -41.8961 H         1 UNK         0.0600 
    193 H193       -0.0408  -25.1023  -41.8349 H         1 UNK         0.0600 
    194 H194        0.8108  -24.1971  -43.0773 H         1 UNK         0.0600 
    195 H195       -0.6073  -24.6751  -45.9115 H         1 UNK         0.3000 
    196 H196       -0.6332  -27.6463  -45.9517 H         1 UNK         0.0600 
    197 H197        0.6394  -27.3569  -48.0462 H         1 UNK         0.0600 
    198 H198        1.4341  -26.5077  -46.7288 H         1 UNK         0.0600 
    199 H199        0.5143  -25.6085  -47.9313 H         1 UNK         0.0600 
    200 H200       -3.0146  -27.4246  -45.6998 H         1 UNK         0.3000 
    201 H201       -5.0984  -27.6971  -46.4388 H         1 UNK         0.0600 
    202 H202       -3.9795  -29.5566  -47.6675 H         1 UNK         0.0600 
    203 H203       -3.7389  -28.5091  -49.0645 H         1 UNK         0.0600 
    204 H204       -5.3645  -28.9511  -48.5602 H         1 UNK         0.0600 
    205 H205       -4.5710  -25.0746  -46.3492 H         1 UNK         0.3000 
    206 H206       -5.2455  -23.0523  -46.9278 H         1 UNK         0.0600 
    207 H207       -7.5147  -24.0900  -47.0108 H         1 UNK         0.0600 
    208 H208       -7.3613  -22.7405  -48.1228 H         1 UNK         0.0600 
    209 H209       -7.3199  -24.3861  -48.7380 H         1 UNK         0.0600 
    210 H210       -2.9687  -23.9747  -48.1854 H         1 UNK         0.3000 
    211 H211       -1.4651  -23.5610  -49.7483 H         1 UNK         0.0600 
    212 H212       -3.2821  -21.3181  -50.7756 H         1 UNK         0.0600 
    213 H213       -1.5700  -21.5174  -51.1072 H         1 UNK         0.0600 
    214 H214       -2.1056  -21.1492  -49.4752 H         1 UNK         0.0600 
    215 H215       -2.9696  -25.6979  -50.1016 H         1 UNK         0.3000 
    216 H216       -3.7565  -27.2745  -51.4419 H         1 UNK         0.0600 
    217 H217       -2.6464  -27.5982  -53.6306 H         1 UNK         0.0600 
    218 H218       -1.4697  -27.0939  -52.4277 H         1 UNK         0.0600 
    219 H219       -2.0618  -25.9399  -53.6223 H         1 UNK         0.0600 
    220 H220       -5.6472  -25.6047  -50.9641 H         1 UNK         0.3000 
    221 H221       -7.6190  -24.7457  -51.4699 H         1 UNK         0.0600 
    222 H222       -7.4711  -26.3145  -54.0991 H         1 UNK         0.0600 
    223 H223       -8.0601  -26.9356  -52.5581 H         1 UNK         0.0600 
    224 H224       -8.9182  -25.6361  -53.3713 H         1 UNK         0.0600 
    225 H225       -6.0993  -22.8488  -51.4897 H         1 UNK         0.3000 
    226 H226       -5.8213  -20.7623  -51.9377 H         1 UNK         0.0600 
    227 H227       -8.1571  -20.5567  -52.7013 H         1 UNK         0.0600 
    228 H228       -7.1033  -19.5033  -53.6301 H         1 UNK         0.0600 
    229 H229       -7.7014  -20.9902  -54.3462 H         1 UNK         0.0600 
    230 H230       -5.9147  -22.1439  -55.2219 H         1 UNK         0.3000 
    231 H231       -4.5590  -21.9647  -57.0160 H         1 UNK         0.0600 
    232 H232       -2.5222  -22.9534  -54.9612 H         1 UNK         0.0600 
    233 H233       -2.5231  -23.2966  -56.6856 H         1 UNK         0.0600 
    234 H234       -3.7948  -23.9489  -55.6639 H         1 UNK         0.0600 
    235 H235       -4.7334  -19.3739  -55.9808 H         1 UNK         0.3000 
    236 H236       -3.8985  -17.3233  -55.9785 H         1 UNK         0.0600 
    237 H237       -3.4282  -17.8512  -58.3843 H         1 UNK         0.0600 
    238 H238       -2.2933  -16.6815  -57.7337 H         1 UNK         0.0600 
    239 H239       -1.7940  -18.3528  -57.9530 H         1 UNK         0.0600 
    240 H240       -2.8686  -19.2399  -53.9727 H         1 UNK         0.3000 
    241 H241       -1.6031  -19.3621  -52.2675 H         1 UNK         0.0600 
    242 H242        1.0731  -20.6708  -54.7033 H         1 UNK         0.3800 
    243 H243       -0.5694  -20.2274  -55.0958 H         1 UNK         0.3800 
    244 H244        0.1599  -16.9722  -52.3920 H         1 UNK         0.0800 
    245 H245       -1.4982  -16.5426  -52.6149 H         1 UNK         0.0800 
    246 H246       -2.9610  -15.9060  -50.6678 H         1 UNK         0.0800 
    247 H247       -3.4600  -17.5270  -51.0891 H         1 UNK         0.0800 
@<TRIPOS>BOND
     1    1    2 1    
     2    1  127 1    
     3    1  128 1    
     4    1  129 1    
     5    2    3 2    
     6    2    4 am   BACKBONE|DICT|INTERRES
     7    4    5 1    
     8    4  130 1    
     9    5    6 1    
    10    5   65 1    
    11    5  131 1    
    12    6    7 1    
    13    6  132 1    
    14    6  133 1    
    15    7    8 1    
    16    8    9 1    
    17    8  134 1    
    18    8  135 1    
    19    9   10 ar   
    20    9   14 ar   
    21   10   11 ar   
    22   10  136 1    
    23   11   12 ar   
    24   11  126 1    
    25   12   13 ar   
    26   12  137 1    
    27   13   14 ar   
    28   13   15 1    
    29   14  138 1    
    30   15   16 1    
    31   15  139 1    
    32   15  140 1    
    33   16   17 1    
    34   17   18 1    
    35   17  141 1    
    36   17  142 1    
    37   18   19 1    
    38   18   67 1    
    39   18  143 1    
    40   19   20 am   BACKBONE|DICT|INTERRES
    41   19  144 1    
    42   20   21 2    
    43   20   22 1    
    44   22   23 1    
    45   22   24 1    
    46   22  145 1    
    47   23  146 1    
    48   23  147 1    
    49   23  148 1    
    50   24   25 am   BACKBONE|DICT|INTERRES
    51   24  149 1    
    52   25   26 2    
    53   25   27 1    
    54   27   28 1    
    55   27   29 1    
    56   27  150 1    
    57   28  151 1    
    58   28  152 1    
    59   28  153 1    
    60   29   30 am   BACKBONE|DICT|INTERRES
    61   29  154 1    
    62   30   31 2    
    63   30   32 1    
    64   32   33 1    
    65   32   34 1    
    66   32  155 1    
    67   33  156 1    
    68   33  157 1    
    69   33  158 1    
    70   34   35 am   BACKBONE|DICT|INTERRES
    71   34  159 1    
    72   35   36 2    
    73   35   37 1    
    74   37   38 1    
    75   37   39 1    
    76   37  160 1    
    77   38  161 1    
    78   38  162 1    
    79   38  163 1    
    80   39   40 am   BACKBONE|DICT|INTERRES
    81   39  164 1    
    82   40   41 2    
    83   40   42 1    
    84   42   43 1    
    85   42   44 1    
    86   42  165 1    
    87   43  166 1    
    88   43  167 1    
    89   43  168 1    
    90   44   45 am   BACKBONE|DICT|INTERRES
    91   44  169 1    
    92   45   46 2    
    93   45   47 1    
    94   47   48 1    
    95   47   49 1    
    96   47  170 1    
    97   48  171 1    
    98   48  172 1    
    99   48  173 1    
   100   49   50 am   BACKBONE|DICT|INTERRES
   101   49  174 1    
   102   50   51 2    
   103   50   52 1    
   104   52   53 1    
   105   52   54 1    
   106   52  175 1    
   107   53  176 1    
   108   53  177 1    
   109   53  178 1    
   110   54   55 am   BACKBONE|DICT|INTERRES
   111   54  179 1    
   112   55   56 2    
   113   55   57 1    
   114   57   58 1    
   115   57   59 1    
   116   57  180 1    
   117   58  181 1    
   118   58  182 1    
   119   58  183 1    
   120   59   60 am   BACKBONE|DICT|INTERRES
   121   59  184 1    
   122   60   61 2    
   123   60   62 1    
   124   62   63 1    
   125   62   64 1    
   126   62  185 1    
   127   63  186 1    
   128   63  187 1    
   129   63  188 1    
   130   64   65 am   BACKBONE|DICT|INTERRES
   131   64  189 1    
   132   65   66 2    
   133   67   68 2    
   134   67   69 am   BACKBONE|DICT|INTERRES
   135   69   70 1    
   136   69  190 1    
   137   70   71 1    
   138   70   72 1    
   139   70  191 1    
   140   71  192 1    
   141   71  193 1    
   142   71  194 1    
   143   72   73 2    
   144   72   74 am   BACKBONE|DICT|INTERRES
   145   74   75 1    
   146   74  195 1    
   147   75   76 1    
   148   75   77 1    
   149   75  196 1    
   150   76  197 1    
   151   76  198 1    
   152   76  199 1    
   153   77   78 2    
   154   77   79 am   BACKBONE|DICT|INTERRES
   155   79   80 1    
   156   79  200 1    
   157   80   81 1    
   158   80   82 1    
   159   80  201 1    
   160   81  202 1    
   161   81  203 1    
   162   81  204 1    
   163   82   83 2    
   164   82   84 am   BACKBONE|DICT|INTERRES
   165   84   85 1    
   166   84  205 1    
   167   85   86 1    
   168   85   87 1    
   169   85  206 1    
   170   86  207 1    
   171   86  208 1    
   172   86  209 1    
   173   87   88 2    
   174   87   89 am   BACKBONE|DICT|INTERRES
   175   89   90 1    
   176   89  210 1    
   177   90   91 1    
   178   90   92 1    
   179   90  211 1    
   180   91  212 1    
   181   91  213 1    
   182   91  214 1    
   183   92   93 2    
   184   92   94 am   BACKBONE|DICT|INTERRES
   185   94   95 1    
   186   94  215 1    
   187   95   96 1    
   188   95   97 1    
   189   95  216 1    
   190   96  217 1    
   191   96  218 1    
   192   96  219 1    
   193   97   98 2    
   194   97   99 am   BACKBONE|DICT|INTERRES
   195   99  100 1    
   196   99  220 1    
   197  100  101 1    
   198  100  102 1    
   199  100  221 1    
   200  101  222 1    
   201  101  223 1    
   202  101  224 1    
   203  102  103 2    
   204  102  104 am   BACKBONE|DICT|INTERRES
   205  104  105 1    
   206  104  225 1    
   207  105  106 1    
   208  105  107 1    
   209  105  226 1    
   210  106  227 1    
   211  106  228 1    
   212  106  229 1    
   213  107  108 2    
   214  107  109 am   BACKBONE|DICT|INTERRES
   215  109  110 1    
   216  109  230 1    
   217  110  111 1    
   218  110  112 1    
   219  110  231 1    
   220  111  232 1    
   221  111  233 1    
   222  111  234 1    
   223  112  113 2    
   224  112  114 am   BACKBONE|DICT|INTERRES
   225  114  115 1    
   226  114  235 1    
   227  115  116 1    
   228  115  117 1    
   229  115  236 1    
   230  116  237 1    
   231  116  238 1    
   232  116  239 1    
   233  117  118 2    
   234  117  119 am   BACKBONE|DICT|INTERRES
   235  119  120 1    
   236  119  240 1    
   237  120  121 1    
   238  120  124 1    
   239  120  241 1    
   240  121  122 am   BACKBONE|DICT|INTERRES
   241  121  123 2    
   242  122  242 1    
   243  122  243 1    
   244  124  125 1    
   245  124  244 1    
   246  124  245 1    
   247  125  126 1    
   248  126  246 1    
   249  126  247 1    
@<TRIPOS>SUBSTRUCTURE
     1 UNK         1 GROUP             0       ****    0 ROOT    
