@<TRIPOS>MOLECULE
3R540
247   249    1
SMALL
USER_CHARGES


@<TRIPOS>ATOM
      1 CA          2.5275   -8.9088  -48.4518 C.3       0 UNK        -0.1800 
      2 C           3.0377  -10.3213  -48.7013 C.2       0 UNK         0.5000 
      3 O           4.2436  -10.5189  -48.8522 O.2       0 UNK        -0.5000 
      4 N           2.1253  -11.2989  -48.7563 N.am      1 UNK        -0.5000 
      5 CA          2.4352  -12.7240  -48.8965 C.3       1 UNK         0.1400 
      6 C6          1.2054  -13.5087  -49.4220 C.3       23 UNK        -0.0398 
      7 S7          1.6646  -15.0575  -50.2717 S.3       23 UNK        -0.2404 
      8 C8          0.7700  -16.2852  -49.2740 C.3       23 UNK        -0.0205 
      9 C9          1.1103  -17.7013  -49.7068 C.ar      23 UNK        -0.0193 
     10 C10         0.3864  -18.3299  -50.7243 C.ar      23 UNK        -0.1150 
     11 C11         0.7175  -19.6272  -51.1435 C.ar      23 UNK        -0.0193 
     12 C12         1.7711  -20.2928  -50.5070 C.ar      23 UNK        -0.1150 
     13 C13         2.4972  -19.6768  -49.4840 C.ar      23 UNK        -0.0193 
     14 C14         2.1629  -18.3798  -49.0917 C.ar      23 UNK        -0.1150 
     15 C15         3.6618  -20.3942  -48.8161 C.3       23 UNK        -0.0205 
     16 S16         3.1371  -21.8137  -47.8040 S.3       23 UNK        -0.2404 
     17 C17         2.0205  -21.0396  -46.5820 C.3       23 UNK        -0.0398 
     18 CA          0.7942  -21.9251  -46.2636 C.3       11 UNK         0.1400 
     19 N           0.1171  -21.4939  -45.0398 N.am      11 UNK        -0.5000 
     20 C          -0.7926  -22.2262  -44.3832 C.2       10 UNK         0.5000 
     21 O          -1.1617  -23.3427  -44.7461 O.2       10 UNK        -0.5000 
     22 CA         -1.4211  -21.5935  -43.1297 C.3       10 UNK         0.1400 
     23 CB         -0.4363  -21.6166  -41.9510 C.3       10 UNK        -0.1800 
     24 N          -1.8844  -20.2259  -43.3602 N.am      10 UNK        -0.5000 
     25 C          -2.8476  -19.8910  -44.2311 C.2       9 UNK         0.5000 
     26 O          -3.4634  -20.7036  -44.9208 O.2       9 UNK        -0.5000 
     27 CA         -3.1451  -18.3904  -44.3906 C.3       9 UNK         0.1400 
     28 CB         -4.0010  -17.8754  -43.2237 C.3       9 UNK        -0.1800 
     29 N          -1.9331  -17.5803  -44.5051 N.am      9 UNK        -0.5000 
     30 C          -1.0155  -17.7151  -45.4733 C.2       8 UNK         0.5000 
     31 O          -1.0844  -18.5364  -46.3837 O.2       8 UNK        -0.5000 
     32 CA          0.2208  -16.8144  -45.3802 C.3       8 UNK         0.1400 
     33 CB         -0.1432  -15.3629  -45.7274 C.3       8 UNK        -0.1800 
     34 N           0.8484  -16.8754  -44.0628 N.am      8 UNK        -0.5000 
     35 C           1.3390  -17.9860  -43.4935 C.2       7 UNK         0.5000 
     36 O           1.3687  -19.0879  -44.0412 O.2       7 UNK        -0.5000 
     37 CA          1.8319  -17.8498  -42.0440 C.3       7 UNK         0.1400 
     38 CB          3.2631  -17.2907  -41.9986 C.3       7 UNK        -0.1800 
     39 N           0.9423  -17.0059  -41.2457 N.am      7 UNK        -0.5000 
     40 C          -0.3152  -17.3325  -40.9117 C.2       6 UNK         0.5000 
     41 O          -0.8494  -18.4019  -41.2070 O.2       6 UNK        -0.5000 
     42 CA         -1.1230  -16.2598  -40.1593 C.3       6 UNK         0.1400 
     43 CB         -0.7636  -16.2540  -38.6660 C.3       6 UNK        -0.1800 
     44 N          -0.9182  -14.9212  -40.7156 N.am      6 UNK        -0.5000 
     45 C          -1.3362  -14.5393  -41.9307 C.2       5 UNK         0.5000 
     46 O          -1.9804  -15.2644  -42.6884 O.2       5 UNK        -0.5000 
     47 CA         -0.9309  -13.1258  -42.3930 C.3       5 UNK         0.1400 
     48 CB         -1.9693  -12.0916  -41.9335 C.3       5 UNK        -0.1800 
     49 N           0.4007  -12.7138  -41.9356 N.am      5 UNK        -0.5000 
     50 C           1.5416  -13.3393  -42.2524 C.2       4 UNK         0.5000 
     51 O           1.5939  -14.3613  -42.9414 O.2       4 UNK        -0.5000 
     52 CA          2.8320  -12.7611  -41.6584 C.3       4 UNK         0.1400 
     53 CB          2.9489  -13.1309  -40.1667 C.3       4 UNK        -0.1800 
     54 N           3.9617  -13.3090  -42.4004 N.am      4 UNK        -0.5000 
     55 C           5.2210  -12.8589  -42.3809 C.2       3 UNK         0.5000 
     56 O           5.5848  -11.8748  -41.7356 O.2       3 UNK        -0.5000 
     57 CA          6.2573  -13.6459  -43.2072 C.3       3 UNK         0.1400 
     58 CB          7.0189  -14.6281  -42.3032 C.3       3 UNK        -0.1800 
     59 N           5.6579  -14.3956  -44.3137 N.am      3 UNK        -0.5000 
     60 C           5.3040  -13.8630  -45.4908 C.2       2 UNK         0.5000 
     61 O           5.5139  -12.6850  -45.7893 O.2       2 UNK        -0.5000 
     62 CA          4.6517  -14.8288  -46.5086 C.3       2 UNK         0.1400 
     63 CB          3.6959  -15.8370  -45.8353 C.3       2 UNK        -0.1800 
     64 N           3.9752  -14.1524  -47.6241 N.am      2 UNK        -0.5000 
     65 C           2.9531  -13.2864  -47.5542 C.2       1 UNK         0.5000 
     66 O           2.4079  -12.9371  -46.5045 O.2       1 UNK        -0.5000 
     67 C          -0.1835  -22.0483  -47.4523 C.2       11 UNK         0.5000 
     68 O          -0.1303  -23.0456  -48.1723 O.2       11 UNK        -0.5000 
     69 N          -1.0985  -21.0794  -47.6023 N.am      12 UNK        -0.5000 
     70 CA         -2.1513  -21.0898  -48.6174 C.3       12 UNK         0.1400 
     71 CB         -2.9269  -19.7651  -48.5850 C.3       12 UNK        -0.1800 
     72 C          -3.1160  -22.2773  -48.4711 C.2       12 UNK         0.5000 
     73 O          -3.4846  -22.8691  -49.4821 O.2       12 UNK        -0.5000 
     74 N          -3.4860  -22.6130  -47.2266 N.am      13 UNK        -0.5000 
     75 CA         -4.3298  -23.7621  -46.8985 C.3       13 UNK         0.1400 
     76 CB         -4.8368  -23.6272  -45.4548 C.3       13 UNK        -0.1800 
     77 C          -3.6159  -25.1129  -47.0950 C.2       13 UNK         0.5000 
     78 O          -4.2640  -26.0836  -47.4873 O.2       13 UNK        -0.5000 
     79 N          -2.3076  -25.1605  -46.8059 N.am      14 UNK        -0.5000 
     80 CA         -1.4651  -26.3450  -46.9789 C.3       14 UNK         0.1400 
     81 CB         -0.1491  -26.1548  -46.2090 C.3       14 UNK        -0.1800 
     82 C          -1.1850  -26.6681  -48.4582 C.2       14 UNK         0.5000 
     83 O          -1.1205  -27.8442  -48.8205 O.2       14 UNK        -0.5000 
     84 N          -1.0177  -25.6250  -49.2805 N.am      15 UNK        -0.5000 
     85 CA         -0.8215  -25.7152  -50.7252 C.3       15 UNK         0.1400 
     86 CB         -0.4184  -24.3264  -51.2511 C.3       15 UNK        -0.1800 
     87 C          -2.0792  -26.2129  -51.4632 C.2       15 UNK         0.5000 
     88 O          -3.2013  -26.0122  -50.9953 O.2       15 UNK        -0.5000 
     89 N          -1.8755  -26.7832  -52.6592 N.am      16 UNK        -0.5000 
     90 CA         -2.9471  -27.1662  -53.5894 C.3       16 UNK         0.1400 
     91 CB         -2.3435  -27.9846  -54.7407 C.3       16 UNK        -0.1800 
     92 C          -3.7313  -25.9548  -54.1396 C.2       16 UNK         0.5000 
     93 O          -4.8802  -26.1011  -54.5573 O.2       16 UNK        -0.5000 
     94 N          -3.1050  -24.7716  -54.0853 N.am      17 UNK        -0.5000 
     95 CA         -3.6640  -23.4690  -54.4393 C.3       17 UNK         0.1400 
     96 CB         -2.5028  -22.4850  -54.6440 C.3       17 UNK        -0.1800 
     97 C          -4.6980  -22.9209  -53.4301 C.2       17 UNK         0.5000 
     98 O          -5.1845  -21.8069  -53.6271 O.2       17 UNK        -0.5000 
     99 N          -5.0561  -23.6924  -52.3920 N.am      18 UNK        -0.5000 
    100 CA        -6.1355  -23.3881  -51.4456 C.3       18 UNK         0.1400 
    101 CB        -6.2619  -24.5333  -50.4282 C.3       18 UNK        -0.1800 
    102 C         -7.4917  -23.1559  -52.1397 C.2       18 UNK         0.5000 
    103 O         -8.2139  -22.2271  -51.7781 O.2       18 UNK        -0.5000 
    104 N         -7.7787  -23.9691  -53.1668 N.am      19 UNK        -0.5000 
    105 CA        -8.9695  -23.8665  -54.0139 C.3       19 UNK         0.1400 
    106 CB        -9.1018  -25.1567  -54.8371 C.3       19 UNK        -0.1800 
    107 C         -8.9589  -22.6347  -54.9425 C.2       19 UNK         0.5000 
    108 O        -10.0258  -22.1833  -55.3595 O.2       19 UNK        -0.5000 
    109 N         -7.7629  -22.1097  -55.2410 N.am      20 UNK        -0.5000 
    110 CA        -7.5463  -20.9026  -56.0402 C.3       20 UNK         0.1400 
    111 CB        -6.2384  -21.0656  -56.8340 C.3       20 UNK        -0.1800 
    112 C         -7.5081  -19.6229  -55.1790 C.2       20 UNK         0.5000 
    113 O         -7.4300  -18.5308  -55.7428 O.2       20 UNK        -0.5000 
    114 N         -7.5599  -19.7770  -53.8457 N.am      21 UNK        -0.5000 
    115 CA        -7.4743  -18.7368  -52.8181 C.3       21 UNK         0.1400 
    116 CB        -8.7037  -17.8052  -52.8726 C.3       21 UNK        -0.1800 
    117 C         -6.1288  -17.9839  -52.8685 C.2       21 UNK         0.5000 
    118 O         -6.1058  -16.7637  -53.0431 O.2       21 UNK        -0.5000 
    119 N         -5.0354  -18.7495  -52.7409 N.am      22 UNK        -0.5000 
    120 CA        -3.6372  -18.2826  -52.7137 C.3       22 UNK         0.1400 
    121 C         -3.3619  -17.1114  -51.7237 C.2       22 UNK         0.5000 
    122 N         -2.5426  -16.1424  -52.1094 N.am      22 UNK        -0.7600 
    123 O         -3.8524  -17.0978  -50.5976 O.2       22 UNK        -0.5000 
    124 C124       -2.6734  -19.4663  -52.4323 C.3       23 UNK        -0.0398 
    125 S125       -1.0946  -19.3265  -53.3309 S.3       23 UNK        -0.2404 
    126 C126       -0.0063  -20.3533  -52.2808 C.3       23 UNK        -0.0205 
    127 H127        1.4422   -8.8809  -48.3512 H         1 UNK         0.0600 
    128 H128        2.8090   -8.2562  -49.2782 H         1 UNK         0.0600 
    129 H129        2.9638   -8.5091  -47.5363 H         1 UNK         0.0600 
    130 H130        1.1553  -11.0761  -48.5854 H         1 UNK         0.3000 
    131 H131        3.2331  -12.8073  -49.6383 H         1 UNK         0.0600 
    132 H132        0.6724  -12.9077  -50.1602 H         1 UNK         0.0800 
    133 H133        0.4844  -13.7000  -48.6248 H         1 UNK         0.0800 
    134 H134       -0.3053  -16.1156  -49.3502 H         1 UNK         0.0800 
    135 H135        1.0401  -16.1474  -48.2283 H         1 UNK         0.0800 
    136 H136       -0.4209  -17.7885  -51.1925 H         1 UNK         0.1150 
    137 H137        2.0358  -21.2954  -50.8131 H         1 UNK         0.1150 
    138 H138        2.7287  -17.8937  -48.3110 H         1 UNK         0.1150 
    139 H139        4.3496  -20.7469  -49.5858 H         1 UNK         0.0800 
    140 H140        4.2334  -19.7075  -48.1897 H         1 UNK         0.0800 
    141 H141        1.7005  -20.0483  -46.9033 H         1 UNK         0.0800 
    142 H142        2.6069  -20.8821  -45.6759 H         1 UNK         0.0800 
    143 H143        1.1698  -22.9308  -46.0618 H         1 UNK         0.0600 
    144 H144        0.3802  -20.5818  -44.6742 H         1 UNK         0.3000 
    145 H145       -2.2898  -22.1960  -42.8561 H         1 UNK         0.0600 
    146 H146       -0.9095  -21.2584  -41.0366 H         1 UNK         0.0600 
    147 H147        0.4362  -20.9911  -42.1416 H         1 UNK         0.0600 
    148 H148       -0.0804  -22.6294  -41.7582 H         1 UNK         0.0600 
    149 H149       -1.4428  -19.4964  -42.8094 H         1 UNK         0.3000 
    150 H150       -3.7150  -18.2626  -45.3131 H         1 UNK         0.0600 
    151 H151       -4.9145  -18.4620  -43.1194 H         1 UNK         0.0600 
    152 H152       -4.2964  -16.8379  -43.3810 H         1 UNK         0.0600 
    153 H153       -3.4640  -17.9287  -42.2760 H         1 UNK         0.0600 
    154 H154       -1.8037  -16.8571  -43.8031 H         1 UNK         0.3000 
    155 H155        0.9488  -17.1769  -46.1070 H         1 UNK         0.0600 
    156 H156       -0.5764  -15.2925  -46.7250 H         1 UNK         0.0600 
    157 H157        0.7323  -14.7185  -45.7019 H         1 UNK         0.0600 
    158 H158       -0.8738  -14.9507  -45.0345 H         1 UNK         0.0600 
    159 H159        0.9219  -15.9979  -43.5546 H         1 UNK         0.3000 
    160 H160        1.8420  -18.8471  -41.5992 H         1 UNK         0.0600 
    161 H161        3.3265  -16.2944  -42.4345 H         1 UNK         0.0600 
    162 H162        3.9478  -17.9332  -42.5536 H         1 UNK         0.0600 
    163 H163        3.6315  -17.2319  -40.9744 H         1 UNK         0.0600 
    164 H164        1.2812  -16.0858  -41.0102 H         1 UNK         0.3000 
    165 H165       -2.1815  -16.5115  -40.2548 H         1 UNK         0.0600 
    166 H166       -1.3865  -15.5500  -38.1139 H         1 UNK         0.0600 
    167 H167       -0.9188  -17.2393  -38.2242 H         1 UNK         0.0600 
    168 H168        0.2793  -15.9805  -38.5010 H         1 UNK         0.0600 
    169 H169       -0.3996  -14.2627  -40.1539 H         1 UNK         0.3000 
    170 H170       -0.9169  -13.1283  -43.4845 H         1 UNK         0.0600 
    171 H171       -2.0074  -12.0138  -40.8463 H         1 UNK         0.0600 
    172 H172       -1.7455  -11.1028  -42.3342 H         1 UNK         0.0600 
    173 H173       -2.9683  -12.3618  -42.2787 H         1 UNK         0.0600 
    174 H174        0.4395  -11.8884  -41.3550 H         1 UNK         0.3000 
    175 H175        2.8160  -11.6759  -41.7771 H         1 UNK         0.0600 
    176 H176        2.9877  -14.2117  -40.0239 H         1 UNK         0.0600 
    177 H177        3.8465  -12.7045  -39.7190 H         1 UNK         0.0600 
    178 H178        2.0992  -12.7534  -39.5969 H         1 UNK         0.0600 
    179 H179        3.7143  -14.0827  -43.0035 H         1 UNK         0.3000 
    180 H180        6.9754  -12.9285  -43.6104 H         1 UNK         0.0600 
    181 H181        7.7987  -15.1512  -42.8571 H         1 UNK         0.0600 
    182 H182        6.3537  -15.3764  -41.8699 H         1 UNK         0.0600 
    183 H183        7.5041  -14.1042  -41.4785 H         1 UNK         0.0600 
    184 H184        5.4883  -15.3772  -44.1519 H         1 UNK         0.3000 
    185 H185        5.4686  -15.3952  -46.9579 H         1 UNK         0.0600 
    186 H186        2.9590  -15.3314  -45.2118 H         1 UNK         0.0600 
    187 H187        3.1593  -16.4246  -46.5776 H         1 UNK         0.0600 
    188 H188        4.2335  -16.5433  -45.2025 H         1 UNK         0.0600 
    189 H189        4.3638  -14.3476  -48.5359 H         1 UNK         0.3000 
    190 H190       -1.0731  -20.2635  -46.9934 H         1 UNK         0.3000 
    191 H191       -1.6661  -21.1773  -49.5912 H         1 UNK         0.0600 
    192 H192       -2.2781  -18.9233  -48.8289 H         1 UNK         0.0600 
    193 H193       -3.3636  -19.5792  -47.6034 H         1 UNK         0.0600 
    194 H194       -3.7429  -19.7666  -49.3087 H         1 UNK         0.0600 
    195 H195       -3.1790  -22.0380  -46.4486 H         1 UNK         0.3000 
    196 H196       -5.1966  -23.7458  -47.5621 H         1 UNK         0.0600 
    197 H197       -5.4228  -22.7169  -45.3270 H         1 UNK         0.0600 
    198 H198       -4.0128  -23.5974  -44.7408 H         1 UNK         0.0600 
    199 H199       -5.4777  -24.4672  -45.1843 H         1 UNK         0.0600 
    200 H200       -1.8614  -24.3362  -46.4184 H         1 UNK         0.3000 
    201 H201       -1.9877  -27.2004  -46.5458 H         1 UNK         0.0600 
    202 H202       -0.3331  -26.0033  -45.1453 H         1 UNK         0.0600 
    203 H203        0.4120  -25.2957  -46.5776 H         1 UNK         0.0600 
    204 H204        0.4913  -27.0322  -46.3066 H         1 UNK         0.0600 
    205 H205       -1.0445  -24.6898  -48.8871 H         1 UNK         0.3000 
    206 H206       -0.0050  -26.4149  -50.9142 H         1 UNK         0.0600 
    207 H207       -1.2047  -23.5903  -51.0769 H         1 UNK         0.0600 
    208 H208        0.4871  -23.9665  -50.7619 H         1 UNK         0.0600 
    209 H209       -0.2181  -24.3487  -52.3227 H         1 UNK         0.0600 
    210 H210       -0.9290  -26.9213  -52.9841 H         1 UNK         0.3000 
    211 H211       -3.6558  -27.7991  -53.0511 H         1 UNK         0.0600 
    212 H212       -1.6138  -27.4053  -55.3077 H         1 UNK         0.0600 
    213 H213       -3.1180  -28.3087  -55.4373 H         1 UNK         0.0600 
    214 H214       -1.8469  -28.8813  -54.3696 H         1 UNK         0.0600 
    215 H215       -2.1651  -24.7635  -53.7203 H         1 UNK         0.3000 
    216 H216       -4.1863  -23.5740  -55.3923 H         1 UNK         0.0600 
    217 H217       -2.8643  -21.5049  -54.9579 H         1 UNK         0.0600 
    218 H218       -1.8207  -22.8356  -55.4186 H         1 UNK         0.0600 
    219 H219       -1.9271  -22.3510  -53.7281 H         1 UNK         0.0600 
    220 H220       -4.5672  -24.5651  -52.2428 H         1 UNK         0.3000 
    221 H221       -5.8653  -22.4742  -50.9131 H         1 UNK         0.0600 
    222 H222       -7.0277  -24.3130  -49.6836 H         1 UNK         0.0600 
    223 H223       -6.5298  -25.4742  -50.9102 H         1 UNK         0.0600 
    224 H224       -5.3276  -24.6950  -49.8924 H         1 UNK         0.0600 
    225 H225       -7.1169  -24.6958  -53.4028 H         1 UNK         0.3000 
    226 H226       -9.8440  -23.7817  -53.3653 H         1 UNK         0.0600 
    227 H227       -9.1897  -26.0300  -54.1905 H         1 UNK         0.0600 
    228 H228       -9.9917  -25.1298  -55.4675 H         1 UNK         0.0600 
    229 H229       -8.2407  -25.3073  -55.4898 H         1 UNK         0.0600 
    230 H230       -6.9386  -22.5072  -54.8123 H         1 UNK         0.3000 
    231 H231       -8.3621  -20.7888  -56.7570 H         1 UNK         0.0600 
    232 H232       -6.0844  -20.2225  -57.5084 H         1 UNK         0.0600 
    233 H233       -6.2564  -21.9685  -57.4445 H         1 UNK         0.0600 
    234 H234       -5.3689  -21.1198  -56.1790 H         1 UNK         0.0600 
    235 H235       -7.6068  -20.7234  -53.4928 H         1 UNK         0.3000 
    236 H236       -7.5021  -19.2536  -51.8574 H         1 UNK         0.0600 
    237 H237       -8.7398  -17.2273  -53.7963 H         1 UNK         0.0600 
    238 H238       -9.6307  -18.3735  -52.7966 H         1 UNK         0.0600 
    239 H239       -8.6892  -17.0953  -52.0449 H         1 UNK         0.0600 
    240 H240       -5.1661  -19.7517  -52.6876 H         1 UNK         0.3000 
    241 H241       -3.4513  -17.9133  -53.7241 H         1 UNK         0.0600 
    242 H242       -2.3547  -15.3813  -51.4770 H         1 UNK         0.3800 
    243 H243       -2.1165  -16.1444  -53.0231 H         1 UNK         0.3800 
    244 H244       -3.1214  -20.4081  -52.7424 H         1 UNK         0.0800 
    245 H245       -2.4797  -19.5793  -51.3658 H         1 UNK         0.0800 
    246 H246        0.7444  -20.7975  -52.9360 H         1 UNK         0.0800 
    247 H247       -0.5759  -21.1864  -51.8675 H         1 UNK         0.0800 
@<TRIPOS>BOND
     1    1    2 1    
     2    1  127 1    
     3    1  128 1    
     4    1  129 1    
     5    2    3 2    
     6    2    4 am   BACKBONE|DICT|INTERRES
     7    4    5 1    
     8    4  130 1    
     9    5    6 1    
    10    5   65 1    
    11    5  131 1    
    12    6    7 1    
    13    6  132 1    
    14    6  133 1    
    15    7    8 1    
    16    8    9 1    
    17    8  134 1    
    18    8  135 1    
    19    9   10 ar   
    20    9   14 ar   
    21   10   11 ar   
    22   10  136 1    
    23   11   12 ar   
    24   11  126 1    
    25   12   13 ar   
    26   12  137 1    
    27   13   14 ar   
    28   13   15 1    
    29   14  138 1    
    30   15   16 1    
    31   15  139 1    
    32   15  140 1    
    33   16   17 1    
    34   17   18 1    
    35   17  141 1    
    36   17  142 1    
    37   18   19 1    
    38   18   67 1    
    39   18  143 1    
    40   19   20 am   BACKBONE|DICT|INTERRES
    41   19  144 1    
    42   20   21 2    
    43   20   22 1    
    44   22   23 1    
    45   22   24 1    
    46   22  145 1    
    47   23  146 1    
    48   23  147 1    
    49   23  148 1    
    50   24   25 am   BACKBONE|DICT|INTERRES
    51   24  149 1    
    52   25   26 2    
    53   25   27 1    
    54   27   28 1    
    55   27   29 1    
    56   27  150 1    
    57   28  151 1    
    58   28  152 1    
    59   28  153 1    
    60   29   30 am   BACKBONE|DICT|INTERRES
    61   29  154 1    
    62   30   31 2    
    63   30   32 1    
    64   32   33 1    
    65   32   34 1    
    66   32  155 1    
    67   33  156 1    
    68   33  157 1    
    69   33  158 1    
    70   34   35 am   BACKBONE|DICT|INTERRES
    71   34  159 1    
    72   35   36 2    
    73   35   37 1    
    74   37   38 1    
    75   37   39 1    
    76   37  160 1    
    77   38  161 1    
    78   38  162 1    
    79   38  163 1    
    80   39   40 am   BACKBONE|DICT|INTERRES
    81   39  164 1    
    82   40   41 2    
    83   40   42 1    
    84   42   43 1    
    85   42   44 1    
    86   42  165 1    
    87   43  166 1    
    88   43  167 1    
    89   43  168 1    
    90   44   45 am   BACKBONE|DICT|INTERRES
    91   44  169 1    
    92   45   46 2    
    93   45   47 1    
    94   47   48 1    
    95   47   49 1    
    96   47  170 1    
    97   48  171 1    
    98   48  172 1    
    99   48  173 1    
   100   49   50 am   BACKBONE|DICT|INTERRES
   101   49  174 1    
   102   50   51 2    
   103   50   52 1    
   104   52   53 1    
   105   52   54 1    
   106   52  175 1    
   107   53  176 1    
   108   53  177 1    
   109   53  178 1    
   110   54   55 am   BACKBONE|DICT|INTERRES
   111   54  179 1    
   112   55   56 2    
   113   55   57 1    
   114   57   58 1    
   115   57   59 1    
   116   57  180 1    
   117   58  181 1    
   118   58  182 1    
   119   58  183 1    
   120   59   60 am   BACKBONE|DICT|INTERRES
   121   59  184 1    
   122   60   61 2    
   123   60   62 1    
   124   62   63 1    
   125   62   64 1    
   126   62  185 1    
   127   63  186 1    
   128   63  187 1    
   129   63  188 1    
   130   64   65 am   BACKBONE|DICT|INTERRES
   131   64  189 1    
   132   65   66 2    
   133   67   68 2    
   134   67   69 am   BACKBONE|DICT|INTERRES
   135   69   70 1    
   136   69  190 1    
   137   70   71 1    
   138   70   72 1    
   139   70  191 1    
   140   71  192 1    
   141   71  193 1    
   142   71  194 1    
   143   72   73 2    
   144   72   74 am   BACKBONE|DICT|INTERRES
   145   74   75 1    
   146   74  195 1    
   147   75   76 1    
   148   75   77 1    
   149   75  196 1    
   150   76  197 1    
   151   76  198 1    
   152   76  199 1    
   153   77   78 2    
   154   77   79 am   BACKBONE|DICT|INTERRES
   155   79   80 1    
   156   79  200 1    
   157   80   81 1    
   158   80   82 1    
   159   80  201 1    
   160   81  202 1    
   161   81  203 1    
   162   81  204 1    
   163   82   83 2    
   164   82   84 am   BACKBONE|DICT|INTERRES
   165   84   85 1    
   166   84  205 1    
   167   85   86 1    
   168   85   87 1    
   169   85  206 1    
   170   86  207 1    
   171   86  208 1    
   172   86  209 1    
   173   87   88 2    
   174   87   89 am   BACKBONE|DICT|INTERRES
   175   89   90 1    
   176   89  210 1    
   177   90   91 1    
   178   90   92 1    
   179   90  211 1    
   180   91  212 1    
   181   91  213 1    
   182   91  214 1    
   183   92   93 2    
   184   92   94 am   BACKBONE|DICT|INTERRES
   185   94   95 1    
   186   94  215 1    
   187   95   96 1    
   188   95   97 1    
   189   95  216 1    
   190   96  217 1    
   191   96  218 1    
   192   96  219 1    
   193   97   98 2    
   194   97   99 am   BACKBONE|DICT|INTERRES
   195   99  100 1    
   196   99  220 1    
   197  100  101 1    
   198  100  102 1    
   199  100  221 1    
   200  101  222 1    
   201  101  223 1    
   202  101  224 1    
   203  102  103 2    
   204  102  104 am   BACKBONE|DICT|INTERRES
   205  104  105 1    
   206  104  225 1    
   207  105  106 1    
   208  105  107 1    
   209  105  226 1    
   210  106  227 1    
   211  106  228 1    
   212  106  229 1    
   213  107  108 2    
   214  107  109 am   BACKBONE|DICT|INTERRES
   215  109  110 1    
   216  109  230 1    
   217  110  111 1    
   218  110  112 1    
   219  110  231 1    
   220  111  232 1    
   221  111  233 1    
   222  111  234 1    
   223  112  113 2    
   224  112  114 am   BACKBONE|DICT|INTERRES
   225  114  115 1    
   226  114  235 1    
   227  115  116 1    
   228  115  117 1    
   229  115  236 1    
   230  116  237 1    
   231  116  238 1    
   232  116  239 1    
   233  117  118 2    
   234  117  119 am   BACKBONE|DICT|INTERRES
   235  119  120 1    
   236  119  240 1    
   237  120  121 1    
   238  120  124 1    
   239  120  241 1    
   240  121  122 am   BACKBONE|DICT|INTERRES
   241  121  123 2    
   242  122  242 1    
   243  122  243 1    
   244  124  125 1    
   245  124  244 1    
   246  124  245 1    
   247  125  126 1    
   248  126  246 1    
   249  126  247 1    
@<TRIPOS>SUBSTRUCTURE
     1 UNK         1 GROUP             0       ****    0 ROOT    
