@<TRIPOS>MOLECULE
3R540
247   249    1
SMALL
USER_CHARGES


@<TRIPOS>ATOM
      1 CA         -6.6054  -13.7248  -46.1737 C.3       0 UNK        -0.1800 
      2 C          -5.1948  -13.1970  -46.3861 C.2       0 UNK         0.5000 
      3 O          -4.6932  -12.4318  -45.5613 O.2       0 UNK        -0.5000 
      4 N          -4.5366  -13.6149  -47.4758 N.am      1 UNK        -0.5000 
      5 CA         -3.1775  -13.1960  -47.8442 C.3       1 UNK         0.1400 
      6 C6         -2.7890  -13.6206  -49.2823 C.3       23 UNK        -0.0398 
      7 S7         -2.8931  -15.4173  -49.5891 S.3       23 UNK        -0.2404 
      8 C8         -1.1291  -15.8635  -49.5463 C.3       23 UNK        -0.0205 
      9 C9         -0.9388  -17.3650  -49.4215 C.ar      23 UNK        -0.0193 
     10 C10        -0.3271  -18.0995  -50.4425 C.ar      23 UNK        -0.1150 
     11 C11        -0.1282  -19.4764  -50.3000 C.ar      23 UNK        -0.0193 
     12 C12        -0.5547  -20.1162  -49.1340 C.ar      23 UNK        -0.1150 
     13 C13        -1.1787  -19.3933  -48.1152 C.ar      23 UNK        -0.0193 
     14 C14        -1.3616  -18.0181  -48.2614 C.ar      23 UNK        -0.1150 
     15 C15        -1.6359  -20.1047  -46.8569 C.3       23 UNK        -0.0205 
     16 S16        -0.2091  -20.4039  -45.7758 S.3       23 UNK        -0.2404 
     17 C17        -0.7893  -21.7679  -44.7178 C.3       23 UNK        -0.0398 
     18 CA         -0.9038  -23.1217  -45.4634 C.3       11 UNK         0.1400 
     19 N           0.3135  -23.4995  -46.1985 N.am      11 UNK        -0.5000 
     20 C           0.3679  -24.4280  -47.1685 C.2       10 UNK         0.5000 
     21 O          -0.5956  -25.1310  -47.4748 O.2       10 UNK        -0.5000 
     22 CA          1.7080  -24.6405  -47.9015 C.3       10 UNK         0.1400 
     23 CB          1.6790  -23.9582  -49.2780 C.3       10 UNK        -0.1800 
     24 N           2.8699  -24.1501  -47.1632 N.am      10 UNK        -0.5000 
     25 C           3.3396  -24.6572  -46.0145 C.2       9 UNK         0.5000 
     26 O           2.8653  -25.6499  -45.4612 O.2       9 UNK        -0.5000 
     27 CA          4.5148  -23.8991  -45.3590 C.3       9 UNK         0.1400 
     28 CB          5.8504  -24.5746  -45.7046 C.3       9 UNK        -0.1800 
     29 N           4.5805  -22.4813  -45.7402 N.am      9 UNK        -0.5000 
     30 C           3.6289  -21.5809  -45.4603 C.2       8 UNK         0.5000 
     31 O           2.6175  -21.8523  -44.8082 O.2       8 UNK        -0.5000 
     32 CA          3.8075  -20.1801  -46.0693 C.3       8 UNK         0.1400 
     33 CB          3.5482  -20.2256  -47.5853 C.3       8 UNK        -0.1800 
     34 N           2.8376  -19.2674  -45.4753 N.am      8 UNK        -0.5000 
     35 C           3.1106  -18.2475  -44.6606 C.2       7 UNK         0.5000 
     36 O           4.2514  -17.8935  -44.3502 O.2       7 UNK        -0.5000 
     37 CA          1.8832  -17.5357  -44.0602 C.3       7 UNK         0.1400 
     38 CB          1.3848  -18.2854  -42.8143 C.3       7 UNK        -0.1800 
     39 N           2.1771  -16.1522  -43.6912 N.am      7 UNK        -0.5000 
     40 C           2.3480  -15.1553  -44.5658 C.2       6 UNK         0.5000 
     41 O           2.2234  -15.2790  -45.7878 O.2       6 UNK        -0.5000 
     42 CA          2.7189  -13.7894  -43.9747 C.3       6 UNK         0.1400 
     43 CB          4.2364  -13.6774  -43.7450 C.3       6 UNK        -0.1800 
     44 N           2.2784  -12.7517  -44.8988 N.am      6 UNK        -0.5000 
     45 C           1.9555  -11.4984  -44.5671 C.2       5 UNK         0.5000 
     46 O           2.0393  -11.0545  -43.4208 O.2       5 UNK        -0.5000 
     47 CA          1.4478  -10.5791  -45.6907 C.3       5 UNK         0.1400 
     48 CB          1.7784  -11.0775  -47.1128 C.3       5 UNK        -0.1800 
     49 N           0.0017  -10.4530  -45.5512 N.am      5 UNK        -0.5000 
     50 C          -0.6431   -9.3600  -45.1257 C.2       4 UNK         0.5000 
     51 O          -0.0922   -8.2874  -44.8729 O.2       4 UNK        -0.5000 
     52 CA         -2.1671   -9.4877  -44.9423 C.3       4 UNK         0.1400 
     53 CB         -2.8887   -9.3501  -46.2911 C.3       4 UNK        -0.1800 
     54 N          -2.5611  -10.7437  -44.3010 N.am      4 UNK        -0.5000 
     55 C          -2.3053  -11.0541  -43.0210 C.2       3 UNK         0.5000 
     56 O          -1.7173  -10.3065  -42.2389 O.2       3 UNK        -0.5000 
     57 CA         -2.7908  -12.4270  -42.5273 C.3       3 UNK         0.1400 
     58 CB         -4.2609  -12.3593  -42.0847 C.3       3 UNK        -0.1800 
     59 N          -2.6404  -13.4489  -43.5613 N.am      3 UNK        -0.5000 
     60 C          -1.5252  -14.1674  -43.7512 C.2       2 UNK         0.5000 
     61 O          -0.5317  -14.0901  -43.0294 O.2       2 UNK        -0.5000 
     62 CA         -1.5125  -15.1397  -44.9476 C.3       2 UNK         0.1400 
     63 CB         -1.9604  -16.5385  -44.4945 C.3       2 UNK        -0.1800 
     64 N          -2.3434  -14.6945  -46.0689 N.am      2 UNK        -0.5000 
     65 C          -2.1091  -13.5936  -46.8000 C.2       1 UNK         0.5000 
     66 O          -1.1299  -12.8668  -46.6364 O.2       1 UNK        -0.5000 
     67 C          -1.4624  -24.2245  -44.5378 C.2       11 UNK         0.5000 
     68 O          -2.5438  -24.0397  -43.9807 O.2       11 UNK        -0.5000 
     69 N          -0.7918  -25.3824  -44.4562 N.am      12 UNK        -0.5000 
     70 CA         -1.3481  -26.6329  -43.9341 C.3       12 UNK         0.1400 
     71 CB         -0.2465  -27.7031  -43.9278 C.3       12 UNK        -0.1800 
     72 C          -2.5788  -27.1245  -44.7317 C.2       12 UNK         0.5000 
     73 O          -3.4567  -27.7627  -44.1505 O.2       12 UNK        -0.5000 
     74 N          -2.6427  -26.7862  -46.0299 N.am      13 UNK        -0.5000 
     75 CA         -3.7987  -27.0169  -46.9023 C.3       13 UNK         0.1400 
     76 CB         -3.2944  -27.2680  -48.3313 C.3       13 UNK        -0.1800 
     77 C          -4.8151  -25.8528  -46.8729 C.2       13 UNK         0.5000 
     78 O          -5.8577  -25.9489  -47.5220 O.2       13 UNK        -0.5000 
     79 N          -4.5045  -24.7826  -46.1250 N.am      14 UNK        -0.5000 
     80 CA         -5.3119  -23.5850  -45.8857 C.3       14 UNK         0.1400 
     81 CB         -6.4756  -23.9237  -44.9272 C.3       14 UNK        -0.1800 
     82 C          -5.7448  -22.8866  -47.1920 C.2       14 UNK         0.5000 
     83 O          -4.8838  -22.5016  -47.9877 O.2       14 UNK        -0.5000 
     84 N          -7.0617  -22.7397  -47.3928 N.am      15 UNK        -0.5000 
     85 CA         -7.6928  -22.0688  -48.5302 C.3       15 UNK         0.1400 
     86 CB         -9.2161  -22.0774  -48.3352 C.3       15 UNK        -0.1800 
     87 C          -7.3252  -22.6636  -49.9012 C.2       15 UNK         0.5000 
     88 O          -7.2628  -21.9197  -50.8792 O.2       15 UNK        -0.5000 
     89 N          -7.0550  -23.9764  -49.9481 N.am      16 UNK        -0.5000 
     90 CA         -6.6312  -24.6811  -51.1590 C.3       16 UNK         0.1400 
     91 CB         -6.6874  -26.1964  -50.9178 C.3       16 UNK        -0.1800 
     92 C          -5.2316  -24.2560  -51.6418 C.2       16 UNK         0.5000 
     93 O          -4.9782  -24.2865  -52.8463 O.2       16 UNK        -0.5000 
     94 N          -4.3626  -23.8466  -50.7068 N.am      17 UNK        -0.5000 
     95 CA         -3.0576  -23.2686  -51.0122 C.3       17 UNK         0.1400 
     96 CB         -2.0734  -23.5547  -49.8726 C.3       17 UNK        -0.1800 
     97 C          -3.1683  -21.7608  -51.2712 C.2       17 UNK         0.5000 
     98 O          -2.6005  -21.2823  -52.2499 O.2       17 UNK        -0.5000 
     99 N          -3.9127  -21.0465  -50.4127 N.am      18 UNK        -0.5000 
    100 CA        -4.0733  -19.5876  -50.4616 C.3       18 UNK         0.1400 
    101 CB        -4.8207  -19.1179  -49.2052 C.3       18 UNK        -0.1800 
    102 C         -4.7610  -19.0595  -51.7373 C.2       18 UNK         0.5000 
    103 O         -4.5597  -17.9009  -52.1008 O.2       18 UNK        -0.5000 
    104 N         -5.5445  -19.9151  -52.4070 N.am      19 UNK        -0.5000 
    105 CA        -6.1507  -19.6517  -53.7126 C.3       19 UNK         0.1400 
    106 CB        -7.2388  -20.7065  -53.9699 C.3       19 UNK        -0.1800 
    107 C         -5.1405  -19.6280  -54.8815 C.2       19 UNK         0.5000 
    108 O         -5.4958  -19.1561  -55.9629 O.2       19 UNK        -0.5000 
    109 N         -3.9239  -20.1435  -54.6666 N.am      20 UNK        -0.5000 
    110 CA        -2.8447  -20.2240  -55.6466 C.3       20 UNK         0.1400 
    111 CB        -2.4771  -21.7079  -55.8262 C.3       20 UNK        -0.1800 
    112 C         -1.6251  -19.4124  -55.1743 C.2       20 UNK         0.5000 
    113 O         -1.6016  -18.9057  -54.0507 O.2       20 UNK        -0.5000 
    114 N         -0.6187  -19.3118  -56.0492 N.am      21 UNK        -0.5000 
    115 CA         0.7085  -18.7965  -55.7196 C.3       21 UNK         0.1400 
    116 CB         1.3153  -18.1457  -56.9724 C.3       21 UNK        -0.1800 
    117 C          1.6008  -19.9486  -55.2247 C.2       21 UNK         0.5000 
    118 O          1.4406  -21.0847  -55.6796 O.2       21 UNK        -0.5000 
    119 N          2.5379  -19.6349  -54.3263 N.am      22 UNK        -0.5000 
    120 CA         3.4821  -20.5979  -53.7340 C.3       22 UNK         0.1400 
    121 C          4.8841  -19.9964  -53.4212 C.2       22 UNK         0.5000 
    122 N          5.2191  -18.8044  -53.9027 N.am      22 UNK        -0.7600 
    123 O          5.6995  -20.6290  -52.7555 O.2       22 UNK        -0.5000 
    124 C124        2.8565  -21.3911  -52.5525 C.3       23 UNK        -0.0398 
    125 S125        2.3441  -20.3489  -51.1425 S.3       23 UNK        -0.2404 
    126 C126        0.5465  -20.2762  -51.4004 C.3       23 UNK        -0.0205 
    127 H127       -6.6663  -14.2584  -45.2253 H         1 UNK         0.0600 
    128 H128       -6.9071  -14.4065  -46.9692 H         1 UNK         0.0600 
    129 H129       -7.3137  -12.8969  -46.1465 H         1 UNK         0.0600 
    130 H130       -4.9828  -14.2572  -48.1157 H         1 UNK         0.3000 
    131 H131       -3.1946  -12.1057  -47.8469 H         1 UNK         0.0600 
    132 H132       -3.4597  -13.1322  -49.9904 H         1 UNK         0.0800 
    133 H133       -1.7919  -13.2552  -49.5351 H         1 UNK         0.0800 
    134 H134       -0.6410  -15.4814  -50.4442 H         1 UNK         0.0800 
    135 H135       -0.6422  -15.3818  -48.6972 H         1 UNK         0.0800 
    136 H136        0.0016  -17.6027  -51.3444 H         1 UNK         0.1150 
    137 H137       -0.3920  -21.1762  -49.0102 H         1 UNK         0.1150 
    138 H138       -1.8399  -17.4488  -47.4794 H         1 UNK         0.1150 
    139 H139       -2.3835  -19.5172  -46.3221 H         1 UNK         0.0800 
    140 H140       -2.1216  -21.0379  -47.1402 H         1 UNK         0.0800 
    141 H141       -1.7489  -21.4763  -44.2869 H         1 UNK         0.0800 
    142 H142       -0.0929  -21.8576  -43.8823 H         1 UNK         0.0800 
    143 H143       -1.6799  -23.0020  -46.2204 H         1 UNK         0.0600 
    144 H144        1.1489  -22.9778  -45.9603 H         1 UNK         0.3000 
    145 H145        1.8329  -25.7147  -48.0519 H         1 UNK         0.0600 
    146 H146        2.6143  -24.1109  -49.8168 H         1 UNK         0.0600 
    147 H147        0.8825  -24.3695  -49.8986 H         1 UNK         0.0600 
    148 H148        1.5131  -22.8832  -49.1935 H         1 UNK         0.0600 
    149 H149        3.3304  -23.3364  -47.5417 H         1 UNK         0.3000 
    150 H150        4.3735  -23.9506  -44.2774 H         1 UNK         0.0600 
    151 H151        6.0566  -24.5352  -46.7749 H         1 UNK         0.0600 
    152 H152        5.8446  -25.6250  -45.4099 H         1 UNK         0.0600 
    153 H153        6.6808  -24.0976  -45.1836 H         1 UNK         0.0600 
    154 H154        5.3852  -22.1973  -46.2806 H         1 UNK         0.3000 
    155 H155        4.8295  -19.8435  -45.8842 H         1 UNK         0.0600 
    156 H156        2.5487  -20.6000  -47.8139 H         1 UNK         0.0600 
    157 H157        4.2657  -20.8692  -48.0953 H         1 UNK         0.0600 
    158 H158        3.6362  -19.2335  -48.0288 H         1 UNK         0.0600 
    159 H159        1.8710  -19.5464  -45.5951 H         1 UNK         0.3000 
    160 H160        1.0840  -17.5306  -44.8053 H         1 UNK         0.0600 
    161 H161        0.5028  -17.8068  -42.3892 H         1 UNK         0.0600 
    162 H162        2.1501  -18.3284  -42.0384 H         1 UNK         0.0600 
    163 H163        1.1095  -19.3123  -43.0592 H         1 UNK         0.0600 
    164 H164        2.3237  -15.9730  -42.7087 H         1 UNK         0.3000 
    165 H165        2.1962  -13.6727  -43.0228 H         1 UNK         0.0600 
    166 H166        4.5888  -14.4574  -43.0691 H         1 UNK         0.0600 
    167 H167        4.7906  -13.7770  -44.6791 H         1 UNK         0.0600 
    168 H168        4.5002  -12.7183  -43.2991 H         1 UNK         0.0600 
    169 H169        2.1344  -13.0765  -45.8471 H         1 UNK         0.3000 
    170 H170        1.9379   -9.6127  -45.5570 H         1 UNK         0.0600 
    171 H171        2.8533  -11.2108  -47.2413 H         1 UNK         0.0600 
    172 H172        1.2937  -12.0257  -47.3459 H         1 UNK         0.0600 
    173 H173        1.4535  -10.3535  -47.8601 H         1 UNK         0.0600 
    174 H174       -0.5305  -11.2973  -45.7460 H         1 UNK         0.3000 
    175 H175       -2.4973   -8.6685  -44.2999 H         1 UNK         0.0600 
    176 H176       -3.9673   -9.4642  -46.1797 H         1 UNK         0.0600 
    177 H177       -2.7075   -8.3674  -46.7281 H         1 UNK         0.0600 
    178 H178       -2.5422  -10.0925  -47.0089 H         1 UNK         0.0600 
    179 H179       -3.1134  -11.3895  -44.8547 H         1 UNK         0.3000 
    180 H180       -2.1937  -12.7003  -41.6545 H         1 UNK         0.0600 
    181 H181       -4.9207  -12.0731  -42.9041 H         1 UNK         0.0600 
    182 H182       -4.3931  -11.6266  -41.2876 H         1 UNK         0.0600 
    183 H183       -4.6010  -13.3214  -41.7013 H         1 UNK         0.0600 
    184 H184       -3.3994  -13.5311  -44.2255 H         1 UNK         0.3000 
    185 H185       -0.4844  -15.2099  -45.3042 H         1 UNK         0.0600 
    186 H186       -1.4059  -16.8596  -43.6122 H         1 UNK         0.0600 
    187 H187       -3.0204  -16.5602  -44.2390 H         1 UNK         0.0600 
    188 H188       -1.7821  -17.2854  -45.2652 H         1 UNK         0.0600 
    189 H189       -3.1781  -15.2278  -46.2630 H         1 UNK         0.3000 
    190 H190        0.0933  -25.4510  -44.9388 H         1 UNK         0.3000 
    191 H191       -1.6667  -26.4571  -42.9046 H         1 UNK         0.0600 
    192 H192        0.5990  -27.3954  -43.3122 H         1 UNK         0.0600 
    193 H193       -0.6184  -28.6449  -43.5222 H         1 UNK         0.0600 
    194 H194        0.1264  -27.9017  -44.9336 H         1 UNK         0.0600 
    195 H195       -1.8735  -26.2663  -46.4437 H         1 UNK         0.3000 
    196 H196       -4.3280  -27.9135  -46.5736 H         1 UNK         0.0600 
    197 H197       -4.1168  -27.5192  -49.0013 H         1 UNK         0.0600 
    198 H198       -2.5890  -28.0985  -48.3605 H         1 UNK         0.0600 
    199 H199       -2.7946  -26.3907  -48.7377 H         1 UNK         0.0600 
    200 H200       -3.6387  -24.8136  -45.6039 H         1 UNK         0.3000 
    201 H201       -4.6622  -22.8743  -45.3734 H         1 UNK         0.0600 
    202 H202       -7.0424  -23.0315  -44.6576 H         1 UNK         0.0600 
    203 H203       -7.1679  -24.6475  -45.3591 H         1 UNK         0.0600 
    204 H204       -6.0966  -24.3493  -43.9978 H         1 UNK         0.0600 
    205 H205       -7.6880  -23.1105  -46.6933 H         1 UNK         0.3000 
    206 H206       -7.3586  -21.0312  -48.5223 H         1 UNK         0.0600 
    207 H207       -9.4997  -21.5701  -47.4129 H         1 UNK         0.0600 
    208 H208       -9.7180  -21.5615  -49.1550 H         1 UNK         0.0600 
    209 H209       -9.6109  -23.0935  -48.2960 H         1 UNK         0.0600 
    210 H210       -7.0853  -24.5147  -49.0918 H         1 UNK         0.3000 
    211 H211       -7.3403  -24.4388  -51.9535 H         1 UNK         0.0600 
    212 H212       -5.9896  -26.5058  -50.1405 H         1 UNK         0.0600 
    213 H213       -6.4307  -26.7450  -51.8248 H         1 UNK         0.0600 
    214 H214       -7.6865  -26.5128  -50.6178 H         1 UNK         0.0600 
    215 H215       -4.6671  -23.7984  -49.7426 H         1 UNK         0.3000 
    216 H216       -2.6544  -23.7322  -51.9154 H         1 UNK         0.0600 
    217 H217       -1.1161  -23.0718  -50.0623 H         1 UNK         0.0600 
    218 H218       -1.8769  -24.6217  -49.7919 H         1 UNK         0.0600 
    219 H219       -2.4381  -23.2006  -48.9080 H         1 UNK         0.0600 
    220 H220       -4.3316  -21.5231  -49.6203 H         1 UNK         0.3000 
    221 H221       -3.0740  -19.1523  -50.4430 H         1 UNK         0.0600 
    222 H222       -5.8538  -19.4618  -49.2045 H         1 UNK         0.0600 
    223 H223       -4.3406  -19.4814  -48.2967 H         1 UNK         0.0600 
    224 H224       -4.8374  -18.0287  -49.1503 H         1 UNK         0.0600 
    225 H225       -5.7255  -20.8240  -51.9984 H         1 UNK         0.3000 
    226 H226       -6.6286  -18.6707  -53.6766 H         1 UNK         0.0600 
    227 H227       -7.7178  -20.5521  -54.9376 H         1 UNK         0.0600 
    228 H228       -6.8272  -21.7168  -53.9625 H         1 UNK         0.0600 
    229 H229       -8.0210  -20.6576  -53.2123 H         1 UNK         0.0600 
    230 H230       -3.6636  -20.4343  -53.7285 H         1 UNK         0.3000 
    231 H231       -3.1622  -19.8193  -56.6096 H         1 UNK         0.0600 
    232 H232       -2.1012  -22.1425  -54.8987 H         1 UNK         0.0600 
    233 H233       -1.7059  -21.8398  -56.5858 H         1 UNK         0.0600 
    234 H234       -3.3422  -22.2921  -56.1406 H         1 UNK         0.0600 
    235 H235       -0.6939  -19.7932  -56.9336 H         1 UNK         0.3000 
    236 H236        0.6331  -18.0386  -54.9365 H         1 UNK         0.0600 
    237 H237        2.3017  -17.7318  -56.7595 H         1 UNK         0.0600 
    238 H238        1.4292  -18.8635  -57.7860 H         1 UNK         0.0600 
    239 H239        0.6911  -17.3275  -57.3323 H         1 UNK         0.0600 
    240 H240        2.6007  -18.6909  -53.9732 H         1 UNK         0.3000 
    241 H241        3.7114  -21.3346  -54.5062 H         1 UNK         0.0600 
    242 H242        4.6052  -18.2899  -54.5127 H         1 UNK         0.3800 
    243 H243        6.1344  -18.4352  -53.6966 H         1 UNK         0.3800 
    244 H244        3.5598  -22.1386  -52.1824 H         1 UNK         0.0800 
    245 H245        1.9980  -21.9614  -52.9093 H         1 UNK         0.0800 
    246 H246        0.3301  -19.8302  -52.3714 H         1 UNK         0.0800 
    247 H247        0.1387  -21.2874  -51.4288 H         1 UNK         0.0800 
@<TRIPOS>BOND
     1    1    2 1    
     2    1  127 1    
     3    1  128 1    
     4    1  129 1    
     5    2    3 2    
     6    2    4 am   BACKBONE|DICT|INTERRES
     7    4    5 1    
     8    4  130 1    
     9    5    6 1    
    10    5   65 1    
    11    5  131 1    
    12    6    7 1    
    13    6  132 1    
    14    6  133 1    
    15    7    8 1    
    16    8    9 1    
    17    8  134 1    
    18    8  135 1    
    19    9   10 ar   
    20    9   14 ar   
    21   10   11 ar   
    22   10  136 1    
    23   11   12 ar   
    24   11  126 1    
    25   12   13 ar   
    26   12  137 1    
    27   13   14 ar   
    28   13   15 1    
    29   14  138 1    
    30   15   16 1    
    31   15  139 1    
    32   15  140 1    
    33   16   17 1    
    34   17   18 1    
    35   17  141 1    
    36   17  142 1    
    37   18   19 1    
    38   18   67 1    
    39   18  143 1    
    40   19   20 am   BACKBONE|DICT|INTERRES
    41   19  144 1    
    42   20   21 2    
    43   20   22 1    
    44   22   23 1    
    45   22   24 1    
    46   22  145 1    
    47   23  146 1    
    48   23  147 1    
    49   23  148 1    
    50   24   25 am   BACKBONE|DICT|INTERRES
    51   24  149 1    
    52   25   26 2    
    53   25   27 1    
    54   27   28 1    
    55   27   29 1    
    56   27  150 1    
    57   28  151 1    
    58   28  152 1    
    59   28  153 1    
    60   29   30 am   BACKBONE|DICT|INTERRES
    61   29  154 1    
    62   30   31 2    
    63   30   32 1    
    64   32   33 1    
    65   32   34 1    
    66   32  155 1    
    67   33  156 1    
    68   33  157 1    
    69   33  158 1    
    70   34   35 am   BACKBONE|DICT|INTERRES
    71   34  159 1    
    72   35   36 2    
    73   35   37 1    
    74   37   38 1    
    75   37   39 1    
    76   37  160 1    
    77   38  161 1    
    78   38  162 1    
    79   38  163 1    
    80   39   40 am   BACKBONE|DICT|INTERRES
    81   39  164 1    
    82   40   41 2    
    83   40   42 1    
    84   42   43 1    
    85   42   44 1    
    86   42  165 1    
    87   43  166 1    
    88   43  167 1    
    89   43  168 1    
    90   44   45 am   BACKBONE|DICT|INTERRES
    91   44  169 1    
    92   45   46 2    
    93   45   47 1    
    94   47   48 1    
    95   47   49 1    
    96   47  170 1    
    97   48  171 1    
    98   48  172 1    
    99   48  173 1    
   100   49   50 am   BACKBONE|DICT|INTERRES
   101   49  174 1    
   102   50   51 2    
   103   50   52 1    
   104   52   53 1    
   105   52   54 1    
   106   52  175 1    
   107   53  176 1    
   108   53  177 1    
   109   53  178 1    
   110   54   55 am   BACKBONE|DICT|INTERRES
   111   54  179 1    
   112   55   56 2    
   113   55   57 1    
   114   57   58 1    
   115   57   59 1    
   116   57  180 1    
   117   58  181 1    
   118   58  182 1    
   119   58  183 1    
   120   59   60 am   BACKBONE|DICT|INTERRES
   121   59  184 1    
   122   60   61 2    
   123   60   62 1    
   124   62   63 1    
   125   62   64 1    
   126   62  185 1    
   127   63  186 1    
   128   63  187 1    
   129   63  188 1    
   130   64   65 am   BACKBONE|DICT|INTERRES
   131   64  189 1    
   132   65   66 2    
   133   67   68 2    
   134   67   69 am   BACKBONE|DICT|INTERRES
   135   69   70 1    
   136   69  190 1    
   137   70   71 1    
   138   70   72 1    
   139   70  191 1    
   140   71  192 1    
   141   71  193 1    
   142   71  194 1    
   143   72   73 2    
   144   72   74 am   BACKBONE|DICT|INTERRES
   145   74   75 1    
   146   74  195 1    
   147   75   76 1    
   148   75   77 1    
   149   75  196 1    
   150   76  197 1    
   151   76  198 1    
   152   76  199 1    
   153   77   78 2    
   154   77   79 am   BACKBONE|DICT|INTERRES
   155   79   80 1    
   156   79  200 1    
   157   80   81 1    
   158   80   82 1    
   159   80  201 1    
   160   81  202 1    
   161   81  203 1    
   162   81  204 1    
   163   82   83 2    
   164   82   84 am   BACKBONE|DICT|INTERRES
   165   84   85 1    
   166   84  205 1    
   167   85   86 1    
   168   85   87 1    
   169   85  206 1    
   170   86  207 1    
   171   86  208 1    
   172   86  209 1    
   173   87   88 2    
   174   87   89 am   BACKBONE|DICT|INTERRES
   175   89   90 1    
   176   89  210 1    
   177   90   91 1    
   178   90   92 1    
   179   90  211 1    
   180   91  212 1    
   181   91  213 1    
   182   91  214 1    
   183   92   93 2    
   184   92   94 am   BACKBONE|DICT|INTERRES
   185   94   95 1    
   186   94  215 1    
   187   95   96 1    
   188   95   97 1    
   189   95  216 1    
   190   96  217 1    
   191   96  218 1    
   192   96  219 1    
   193   97   98 2    
   194   97   99 am   BACKBONE|DICT|INTERRES
   195   99  100 1    
   196   99  220 1    
   197  100  101 1    
   198  100  102 1    
   199  100  221 1    
   200  101  222 1    
   201  101  223 1    
   202  101  224 1    
   203  102  103 2    
   204  102  104 am   BACKBONE|DICT|INTERRES
   205  104  105 1    
   206  104  225 1    
   207  105  106 1    
   208  105  107 1    
   209  105  226 1    
   210  106  227 1    
   211  106  228 1    
   212  106  229 1    
   213  107  108 2    
   214  107  109 am   BACKBONE|DICT|INTERRES
   215  109  110 1    
   216  109  230 1    
   217  110  111 1    
   218  110  112 1    
   219  110  231 1    
   220  111  232 1    
   221  111  233 1    
   222  111  234 1    
   223  112  113 2    
   224  112  114 am   BACKBONE|DICT|INTERRES
   225  114  115 1    
   226  114  235 1    
   227  115  116 1    
   228  115  117 1    
   229  115  236 1    
   230  116  237 1    
   231  116  238 1    
   232  116  239 1    
   233  117  118 2    
   234  117  119 am   BACKBONE|DICT|INTERRES
   235  119  120 1    
   236  119  240 1    
   237  120  121 1    
   238  120  124 1    
   239  120  241 1    
   240  121  122 am   BACKBONE|DICT|INTERRES
   241  121  123 2    
   242  122  242 1    
   243  122  243 1    
   244  124  125 1    
   245  124  244 1    
   246  124  245 1    
   247  125  126 1    
   248  126  246 1    
   249  126  247 1    
@<TRIPOS>SUBSTRUCTURE
     1 UNK         1 GROUP             0       ****    0 ROOT    
