@<TRIPOS>MOLECULE
3R540
247   249    1
SMALL
USER_CHARGES


@<TRIPOS>ATOM
      1 CA          3.5937  -10.7700  -46.9978 C.3       0 UNK        -0.1800 
      2 C           4.1229  -12.1861  -47.1692 C.2       0 UNK         0.5000 
      3 O           5.2335  -12.3692  -47.6687 O.2       0 UNK        -0.5000 
      4 N           3.3446  -13.1936  -46.7575 N.am      1 UNK        -0.5000 
      5 CA          3.6434  -14.6186  -46.9377 C.3       1 UNK         0.1400 
      6 C6          2.3544  -15.4455  -47.1720 C.3       23 UNK        -0.0398 
      7 S7          1.5128  -14.9275  -48.7055 S.3       23 UNK        -0.2404 
      8 C8          2.2904  -16.0270  -49.9314 C.3       23 UNK        -0.0205 
      9 C9          1.5556  -17.3526  -50.0303 C.ar      23 UNK        -0.0193 
     10 C10         0.4186  -17.4522  -50.8329 C.ar      23 UNK        -0.1150 
     11 C11        -0.2896  -18.6525  -50.9233 C.ar      23 UNK        -0.0193 
     12 C12         0.1476  -19.7622  -50.1892 C.ar      23 UNK        -0.1150 
     13 C13         1.2749  -19.6708  -49.3643 C.ar      23 UNK        -0.0193 
     14 C14         1.9888  -18.4689  -49.3111 C.ar      23 UNK        -0.1150 
     15 C15         1.6991  -20.8426  -48.4859 C.3       23 UNK        -0.0205 
     16 S16         1.4981  -20.4164  -46.7288 S.3       23 UNK        -0.2404 
     17 C17         2.1313  -21.8764  -45.8421 C.3       23 UNK        -0.0398 
     18 CA          1.1145  -22.5315  -44.8694 C.3       11 UNK         0.1400 
     19 N           0.3550  -21.5724  -44.0538 N.am      11 UNK        -0.5000 
     20 C          -0.2941  -21.8984  -42.9241 C.2       10 UNK         0.5000 
     21 O          -0.2145  -23.0032  -42.3859 O.2       10 UNK        -0.5000 
     22 CA         -1.2132  -20.8324  -42.3067 C.3       10 UNK         0.1400 
     23 CB         -0.4096  -19.8044  -41.4934 C.3       10 UNK        -0.1800 
     24 N          -2.0027  -20.1598  -43.3393 N.am      10 UNK        -0.5000 
     25 C          -3.1834  -20.6073  -43.7929 C.2       9 UNK         0.5000 
     26 O          -3.7469  -21.6027  -43.3387 O.2       9 UNK        -0.5000 
     27 CA         -3.8745  -19.8238  -44.9276 C.3       9 UNK         0.1400 
     28 CB         -5.1326  -19.1124  -44.4062 C.3       9 UNK        -0.1800 
     29 N          -3.0078  -18.8340  -45.5625 N.am      9 UNK        -0.5000 
     30 C          -2.1089  -19.1112  -46.5177 C.2       8 UNK         0.5000 
     31 O          -1.9438  -20.2370  -46.9896 O.2       8 UNK        -0.5000 
     32 CA         -1.2217  -17.9355  -46.9843 C.3       8 UNK         0.1400 
     33 CB         -1.9303  -17.1612  -48.1040 C.3       8 UNK        -0.1800 
     34 N          -0.8782  -16.9995  -45.9092 N.am      8 UNK        -0.5000 
     35 C          -0.3389  -17.3302  -44.7249 C.2       7 UNK         0.5000 
     36 O           0.0772  -18.4576  -44.4634 O.2       7 UNK        -0.5000 
     37 CA         -0.3616  -16.2707  -43.6037 C.3       7 UNK         0.1400 
     38 CB          1.0545  -15.8356  -43.2060 C.3       7 UNK        -0.1800 
     39 N          -1.1760  -15.0918  -43.9114 N.am      7 UNK        -0.5000 
     40 C          -2.5112  -15.0996  -44.0592 C.2       6 UNK         0.5000 
     41 O          -3.1974  -16.1156  -43.9367 O.2       6 UNK        -0.5000 
     42 CA         -3.1948  -13.7729  -44.4476 C.3       6 UNK         0.1400 
     43 CB         -3.8836  -13.1501  -43.2239 C.3       6 UNK        -0.1800 
     44 N          -2.2841  -12.7841  -45.0284 N.am      6 UNK        -0.5000 
     45 C          -1.6420  -12.9016  -46.2006 C.2       5 UNK         0.5000 
     46 O          -1.7779  -13.8618  -46.9578 O.2       5 UNK        -0.5000 
     47 CA         -0.6419  -11.7779  -46.5492 C.3       5 UNK         0.1400 
     48 CB         -1.3106  -10.7077  -47.4237 C.3       5 UNK        -0.1800 
     49 N          -0.0725  -11.1418  -45.3532 N.am      5 UNK        -0.5000 
     50 C           0.7477  -11.7698  -44.5016 C.2       4 UNK         0.5000 
     51 O           1.1820  -12.9046  -44.7112 O.2       4 UNK        -0.5000 
     52 CA          1.0841  -11.0369  -43.1877 C.3       4 UNK         0.1400 
     53 CB         -0.1414  -11.0243  -42.2587 C.3       4 UNK        -0.1800 
     54 N           2.1871  -11.6897  -42.4824 N.am      4 UNK        -0.5000 
     55 C           3.4728  -11.6086  -42.8420 C.2       3 UNK         0.5000 
     56 O           3.8836  -10.8467  -43.7190 O.2       3 UNK        -0.5000 
     57 CA          4.4680  -12.5638  -42.1609 C.3       3 UNK         0.1400 
     58 CB          3.8282  -13.5333  -41.1402 C.3       3 UNK        -0.1800 
     59 N           5.1110  -13.2963  -43.2428 N.am      3 UNK        -0.5000 
     60 C           6.1897  -14.0826  -43.1850 C.2       2 UNK         0.5000 
     61 O           6.8223  -14.2997  -42.1505 O.2       2 UNK        -0.5000 
     62 CA          6.6608  -14.7037  -44.5208 C.3       2 UNK         0.1400 
     63 CB          7.1085  -16.1719  -44.3640 C.3       2 UNK        -0.1800 
     64 N           5.6939  -14.5489  -45.6199 N.am      2 UNK        -0.5000 
     65 C           4.4869  -15.1219  -45.7506 C.2       1 UNK         0.5000 
     66 O           4.0274  -15.9511  -44.9662 O.2       1 UNK        -0.5000 
     67 C           0.1724  -23.5295  -45.5714 C.2       11 UNK         0.5000 
     68 O           0.4437  -24.7303  -45.5387 O.2       11 UNK        -0.5000 
     69 N          -0.9358  -23.0207  -46.1341 N.am      12 UNK        -0.5000 
     70 CA         -2.1304  -23.7150  -46.6358 C.3       12 UNK         0.1400 
     71 CB         -2.8576  -24.4425  -45.4916 C.3       12 UNK        -0.1800 
     72 C          -1.9391  -24.6770  -47.8244 C.2       12 UNK         0.5000 
     73 O          -2.8253  -24.7380  -48.6763 O.2       12 UNK        -0.5000 
     74 N          -0.8295  -25.4219  -47.8667 N.am      13 UNK        -0.5000 
     75 CA         -0.5390  -26.4726  -48.8436 C.3       13 UNK         0.1400 
     76 CB          0.7495  -27.2051  -48.4397 C.3       13 UNK        -0.1800 
     77 C          -0.4461  -25.9416  -50.2823 C.2       13 UNK         0.5000 
     78 O          -1.1358  -26.4502  -51.1665 O.2       13 UNK        -0.5000 
     79 N           0.3519  -24.8814  -50.4757 N.am      14 UNK        -0.5000 
     80 CA          0.5046  -24.1857  -51.7588 C.3       14 UNK         0.1400 
     81 CB          1.6964  -23.2203  -51.6788 C.3       14 UNK        -0.1800 
     82 C          -0.7695  -23.4341  -52.1896 C.2       14 UNK         0.5000 
     83 O          -0.9668  -23.2038  -53.3812 O.2       14 UNK        -0.5000 
     84 N          -1.6198  -23.0924  -51.2122 N.am      15 UNK        -0.5000 
     85 CA         -2.9338  -22.4890  -51.4098 C.3       15 UNK         0.1400 
     86 CB         -3.3135  -21.7026  -50.1416 C.3       15 UNK        -0.1800 
     87 C          -4.0309  -23.5162  -51.7505 C.2       15 UNK         0.5000 
     88 O          -5.1647  -23.0910  -51.9643 O.2       15 UNK        -0.5000 
     89 N          -3.6990  -24.8166  -51.7744 N.am      16 UNK        -0.5000 
     90 CA         -4.5900  -25.9637  -51.9794 C.3       16 UNK         0.1400 
     91 CB         -5.2301  -25.9444  -53.3818 C.3       16 UNK        -0.1800 
     92 C          -5.6227  -26.0949  -50.8442 C.2       16 UNK         0.5000 
     93 O          -6.8295  -26.0795  -51.0895 O.2       16 UNK        -0.5000 
     94 N          -5.1041  -26.2014  -49.6137 N.am      17 UNK        -0.5000 
     95 CA         -5.8286  -26.2778  -48.3421 C.3       17 UNK         0.1400 
     96 CB         -6.7524  -27.5131  -48.2810 C.3       17 UNK        -0.1800 
     97 C          -6.5404  -24.9516  -48.0156 C.2       17 UNK         0.5000 
     98 O          -7.7215  -24.9451  -47.6650 O.2       17 UNK        -0.5000 
     99 N          -5.7822  -23.8513  -48.1422 N.am      18 UNK        -0.5000 
    100 CA        -6.1801  -22.4674  -47.8489 C.3       18 UNK         0.1400 
    101 CB        -6.5026  -22.2926  -46.3494 C.3       18 UNK        -0.1800 
    102 C         -7.2918  -21.9203  -48.7740 C.2       18 UNK         0.5000 
    103 O         -8.0288  -21.0169  -48.3770 O.2       18 UNK        -0.5000 
    104 N         -7.3743  -22.4444  -50.0052 N.am      19 UNK        -0.5000 
    105 CA        -8.3112  -22.0030  -51.0445 C.3       19 UNK         0.1400 
    106 CB        -8.6023  -23.1879  -51.9802 C.3       19 UNK        -0.1800 
    107 C         -7.7972  -20.7872  -51.8466 C.2       19 UNK         0.5000 
    108 O         -8.5404  -20.2523  -52.6700 O.2       19 UNK        -0.5000 
    109 N         -6.5400  -20.3872  -51.6008 N.am      20 UNK        -0.5000 
    110 CA        -5.7777  -19.3243  -52.2669 C.3       20 UNK         0.1400 
    111 CB        -6.4306  -17.9436  -52.0507 C.3       20 UNK        -0.1800 
    112 C         -5.4842  -19.6384  -53.7493 C.2       20 UNK         0.5000 
    113 O         -5.4322  -18.7301  -54.5788 O.2       20 UNK        -0.5000 
    114 N         -5.2761  -20.9269  -54.0526 N.am      21 UNK        -0.5000 
    115 CA        -5.0222  -21.4498  -55.3982 C.3       21 UNK         0.1400 
    116 CB        -5.5130  -22.9045  -55.4456 C.3       21 UNK        -0.1800 
    117 C         -3.5459  -21.3557  -55.8471 C.2       21 UNK         0.5000 
    118 O         -3.1994  -21.9284  -56.8819 O.2       21 UNK        -0.5000 
    119 N         -2.6981  -20.6700  -55.0699 N.am      22 UNK        -0.5000 
    120 CA        -1.2752  -20.4336  -55.3629 C.3       22 UNK         0.1400 
    121 C         -1.0218  -19.6076  -56.6597 C.2       22 UNK         0.5000 
    122 N          0.1340  -19.7766  -57.2890 N.am      22 UNK        -0.7600 
    123 O         -1.8416  -18.7971  -57.0870 O.2       22 UNK        -0.5000 
    124 C124       -0.5301  -19.8261  -54.1432 C.3       23 UNK        -0.0398 
    125 S125       -1.2852  -18.2890  -53.5053 S.3       23 UNK        -0.2404 
    126 C126       -1.5637  -18.7105  -51.7573 C.3       23 UNK        -0.0205 
    127 H127        4.2696  -10.1893  -46.3703 H         1 UNK         0.0600 
    128 H128        3.5211  -10.2782  -47.9676 H         1 UNK         0.0600 
    129 H129        2.6066  -10.7577  -46.5383 H         1 UNK         0.0600 
    130 H130        2.4776  -12.9980  -46.2680 H         1 UNK         0.3000 
    131 H131        4.2660  -14.7445  -47.8263 H         1 UNK         0.0600 
    132 H132        1.6565  -15.3123  -46.3452 H         1 UNK         0.0800 
    133 H133        2.5705  -16.5134  -47.2187 H         1 UNK         0.0800 
    134 H134        3.3422  -16.1841  -49.6887 H         1 UNK         0.0800 
    135 H135        2.2759  -15.5314  -50.9032 H         1 UNK         0.0800 
    136 H136        0.0719  -16.5850  -51.3775 H         1 UNK         0.1150 
    137 H137       -0.4013  -20.6896  -50.2336 H         1 UNK         0.1150 
    138 H138        2.8593  -18.3951  -48.6749 H         1 UNK         0.1150 
    139 H139        1.1036  -21.7302  -48.7025 H         1 UNK         0.0800 
    140 H140        2.7408  -21.0936  -48.6902 H         1 UNK         0.0800 
    141 H141        2.5257  -22.6060  -46.5518 H         1 UNK         0.0800 
    142 H142        2.9950  -21.5388  -45.2679 H         1 UNK         0.0800 
    143 H143        1.7105  -23.1292  -44.1757 H         1 UNK         0.0600 
    144 H144        0.2756  -20.6296  -44.4198 H         1 UNK         0.3000 
    145 H145       -1.8895  -21.3350  -41.6115 H         1 UNK         0.0600 
    146 H146       -1.0550  -19.0185  -41.1010 H         1 UNK         0.0600 
    147 H147        0.0733  -20.2837  -40.6411 H         1 UNK         0.0600 
    148 H148        0.3763  -19.3325  -42.0819 H         1 UNK         0.0600 
    149 H149       -1.5589  -19.3747  -43.8006 H         1 UNK         0.3000 
    150 H150       -4.1846  -20.5517  -45.6797 H         1 UNK         0.0600 
    151 H151       -5.8291  -19.8232  -43.9596 H         1 UNK         0.0600 
    152 H152       -5.6614  -18.6050  -45.2132 H         1 UNK         0.0600 
    153 H153       -4.8878  -18.3699  -43.6457 H         1 UNK         0.0600 
    154 H154       -3.0665  -17.8884  -45.2014 H         1 UNK         0.3000 
    155 H155       -0.2946  -18.3411  -47.3843 H         1 UNK         0.0600 
    156 H156       -2.8222  -16.6499  -47.7396 H         1 UNK         0.0600 
    157 H157       -2.2411  -17.8315  -48.9052 H         1 UNK         0.0600 
    158 H158       -1.2710  -16.4116  -48.5418 H         1 UNK         0.0600 
    159 H159       -1.1813  -16.0441  -46.0435 H         1 UNK         0.3000 
    160 H160       -0.8096  -16.7543  -42.7331 H         1 UNK         0.0600 
    161 H161        1.0294  -15.1387  -42.3688 H         1 UNK         0.0600 
    162 H162        1.5759  -15.3523  -44.0293 H         1 UNK         0.0600 
    163 H163        1.6569  -16.6920  -42.9003 H         1 UNK         0.0600 
    164 H164       -0.6714  -14.2308  -44.0726 H         1 UNK         0.3000 
    165 H165       -3.9584  -14.0062  -45.1923 H         1 UNK         0.0600 
    166 H166       -4.4398  -12.2533  -43.4974 H         1 UNK         0.0600 
    167 H167       -4.5944  -13.8473  -42.7781 H         1 UNK         0.0600 
    168 H168       -3.1631  -12.8774  -42.4517 H         1 UNK         0.0600 
    169 H169       -2.1155  -11.9554  -44.4786 H         1 UNK         0.3000 
    170 H170        0.1719  -12.2275  -47.1228 H         1 UNK         0.0600 
    171 H171       -1.7233  -11.1491  -48.3319 H         1 UNK         0.0600 
    172 H172       -2.1274  -10.2102  -46.8995 H         1 UNK         0.0600 
    173 H173       -0.5937   -9.9460  -47.7310 H         1 UNK         0.0600 
    174 H174       -0.3884  -10.2056  -45.1422 H         1 UNK         0.3000 
    175 H175        1.3659  -10.0084  -43.4229 H         1 UNK         0.0600 
    176 H176       -0.4818  -12.0343  -42.0252 H         1 UNK         0.0600 
    177 H177        0.0844  -10.5226  -41.3174 H         1 UNK         0.0600 
    178 H178       -0.9783  -10.4915  -42.7114 H         1 UNK         0.0600 
    179 H179        1.9297  -12.3723  -41.7855 H         1 UNK         0.3000 
    180 H180        5.2164  -11.9521  -41.6541 H         1 UNK         0.0600 
    181 H181        3.1192  -14.2104  -41.6166 H         1 UNK         0.0600 
    182 H182        3.3062  -12.9924  -40.3500 H         1 UNK         0.0600 
    183 H183        4.5840  -14.1463  -40.6497 H         1 UNK         0.0600 
    184 H184        4.6927  -13.1433  -44.1500 H         1 UNK         0.3000 
    185 H185        7.5381  -14.1282  -44.8191 H         1 UNK         0.0600 
    186 H186        7.9513  -16.2508  -43.6765 H         1 UNK         0.0600 
    187 H187        6.3107  -16.8016  -43.9699 H         1 UNK         0.0600 
    188 H188        7.4293  -16.5913  -45.3175 H         1 UNK         0.0600 
    189 H189        5.9394  -13.8512  -46.3151 H         1 UNK         0.3000 
    190 H190       -1.0111  -22.0095  -46.1710 H         1 UNK         0.3000 
    191 H191       -2.7930  -22.9224  -46.9856 H         1 UNK         0.0600 
    192 H192       -2.2681  -25.2716  -45.0988 H         1 UNK         0.0600 
    193 H193       -3.8117  -24.8496  -45.8287 H         1 UNK         0.0600 
    194 H194       -3.0695  -23.7668  -44.6648 H         1 UNK         0.0600 
    195 H195       -0.1818  -25.3204  -47.0872 H         1 UNK         0.3000 
    196 H196       -1.3610  -27.1908  -48.8103 H         1 UNK         0.0600 
    197 H197        0.9894  -27.9970  -49.1505 H         1 UNK         0.0600 
    198 H198        0.6448  -27.6702  -47.4593 H         1 UNK         0.0600 
    199 H199        1.6044  -26.5292  -48.3975 H         1 UNK         0.0600 
    200 H200        0.8783  -24.5230  -49.6927 H         1 UNK         0.3000 
    201 H201        0.7207  -24.9322  -52.5261 H         1 UNK         0.0600 
    202 H202        2.6142  -23.7446  -51.4121 H         1 UNK         0.0600 
    203 H203        1.5312  -22.4338  -50.9441 H         1 UNK         0.0600 
    204 H204        1.8685  -22.7347  -52.6404 H         1 UNK         0.0600 
    205 H205       -1.3937  -23.3692  -50.2684 H         1 UNK         0.3000 
    206 H206       -2.8811  -21.7926  -52.2480 H         1 UNK         0.0600 
    207 H207       -4.2555  -21.1732  -50.2666 H         1 UNK         0.0600 
    208 H208       -2.5677  -20.9580  -49.8740 H         1 UNK         0.0600 
    209 H209       -3.4235  -22.3584  -49.2830 H         1 UNK         0.0600 
    210 H210       -2.7393  -25.0622  -51.5638 H         1 UNK         0.3000 
    211 H211       -3.9578  -26.8514  -51.9259 H         1 UNK         0.0600 
    212 H212       -5.9477  -25.1314  -53.4907 H         1 UNK         0.0600 
    213 H213       -5.7675  -26.8737  -53.5727 H         1 UNK         0.0600 
    214 H214       -4.4740  -25.8416  -54.1598 H         1 UNK         0.0600 
    215 H215       -4.1004  -26.0883  -49.5195 H         1 UNK         0.3000 
    216 H216       -5.0679  -26.4088  -47.5711 H         1 UNK         0.0600 
    217 H217       -7.1687  -27.6354  -47.2805 H         1 UNK         0.0600 
    218 H218       -6.2063  -28.4258  -48.5187 H         1 UNK         0.0600 
    219 H219       -7.5916  -27.4336  -48.9722 H         1 UNK         0.0600 
    220 H220       -4.8284  -23.9871  -48.4559 H         1 UNK         0.3000 
    221 H221       -5.3060  -21.8489  -48.0483 H         1 UNK         0.0600 
    222 H222       -7.4116  -22.8223  -46.0641 H         1 UNK         0.0600 
    223 H223       -5.6891  -22.6613  -45.7241 H         1 UNK         0.0600 
    224 H224       -6.6501  -21.2414  -46.1000 H         1 UNK         0.0600 
    225 H225       -6.7272  -23.1729  -50.2788 H         1 UNK         0.3000 
    226 H226       -9.2519  -21.7081  -50.5749 H         1 UNK         0.0600 
    227 H227       -8.9885  -24.0429  -51.4248 H         1 UNK         0.0600 
    228 H228       -9.3495  -22.9227  -52.7289 H         1 UNK         0.0600 
    229 H229       -7.7085  -23.5138  -52.5123 H         1 UNK         0.0600 
    230 H230       -6.0279  -20.9443  -50.9342 H         1 UNK         0.3000 
    231 H231       -4.8050  -19.2965  -51.7746 H         1 UNK         0.0600 
    232 H232       -6.6203  -17.7585  -50.9934 H         1 UNK         0.0600 
    233 H233       -7.3776  -17.8529  -52.5831 H         1 UNK         0.0600 
    234 H234       -5.7796  -17.1445  -52.4071 H         1 UNK         0.0600 
    235 H235       -5.3563  -21.6198  -53.3151 H         1 UNK         0.3000 
    236 H236       -5.6130  -20.8740  -56.1136 H         1 UNK         0.0600 
    237 H237       -5.5034  -23.2915  -56.4652 H         1 UNK         0.0600 
    238 H238       -4.8710  -23.5479  -54.8459 H         1 UNK         0.0600 
    239 H239       -6.5331  -22.9973  -55.0719 H         1 UNK         0.0600 
    240 H240       -3.0732  -20.1692  -54.2807 H         1 UNK         0.3000 
    241 H241       -0.8410  -21.4193  -55.5418 H         1 UNK         0.0600 
    242 H242        0.3178  -19.2414  -58.1237 H         1 UNK         0.3800 
    243 H243        0.8264  -20.4333  -56.9631 H         1 UNK         0.3800 
    244 H244       -0.4934  -20.5635  -53.3418 H         1 UNK         0.0800 
    245 H245        0.5136  -19.6215  -54.3873 H         1 UNK         0.0800 
    246 H246       -2.0296  -19.6905  -51.6992 H         1 UNK         0.0800 
    247 H247       -2.2833  -18.0033  -51.3432 H         1 UNK         0.0800 
@<TRIPOS>BOND
     1    1    2 1    
     2    1  127 1    
     3    1  128 1    
     4    1  129 1    
     5    2    3 2    
     6    2    4 am   BACKBONE|DICT|INTERRES
     7    4    5 1    
     8    4  130 1    
     9    5    6 1    
    10    5   65 1    
    11    5  131 1    
    12    6    7 1    
    13    6  132 1    
    14    6  133 1    
    15    7    8 1    
    16    8    9 1    
    17    8  134 1    
    18    8  135 1    
    19    9   10 ar   
    20    9   14 ar   
    21   10   11 ar   
    22   10  136 1    
    23   11   12 ar   
    24   11  126 1    
    25   12   13 ar   
    26   12  137 1    
    27   13   14 ar   
    28   13   15 1    
    29   14  138 1    
    30   15   16 1    
    31   15  139 1    
    32   15  140 1    
    33   16   17 1    
    34   17   18 1    
    35   17  141 1    
    36   17  142 1    
    37   18   19 1    
    38   18   67 1    
    39   18  143 1    
    40   19   20 am   BACKBONE|DICT|INTERRES
    41   19  144 1    
    42   20   21 2    
    43   20   22 1    
    44   22   23 1    
    45   22   24 1    
    46   22  145 1    
    47   23  146 1    
    48   23  147 1    
    49   23  148 1    
    50   24   25 am   BACKBONE|DICT|INTERRES
    51   24  149 1    
    52   25   26 2    
    53   25   27 1    
    54   27   28 1    
    55   27   29 1    
    56   27  150 1    
    57   28  151 1    
    58   28  152 1    
    59   28  153 1    
    60   29   30 am   BACKBONE|DICT|INTERRES
    61   29  154 1    
    62   30   31 2    
    63   30   32 1    
    64   32   33 1    
    65   32   34 1    
    66   32  155 1    
    67   33  156 1    
    68   33  157 1    
    69   33  158 1    
    70   34   35 am   BACKBONE|DICT|INTERRES
    71   34  159 1    
    72   35   36 2    
    73   35   37 1    
    74   37   38 1    
    75   37   39 1    
    76   37  160 1    
    77   38  161 1    
    78   38  162 1    
    79   38  163 1    
    80   39   40 am   BACKBONE|DICT|INTERRES
    81   39  164 1    
    82   40   41 2    
    83   40   42 1    
    84   42   43 1    
    85   42   44 1    
    86   42  165 1    
    87   43  166 1    
    88   43  167 1    
    89   43  168 1    
    90   44   45 am   BACKBONE|DICT|INTERRES
    91   44  169 1    
    92   45   46 2    
    93   45   47 1    
    94   47   48 1    
    95   47   49 1    
    96   47  170 1    
    97   48  171 1    
    98   48  172 1    
    99   48  173 1    
   100   49   50 am   BACKBONE|DICT|INTERRES
   101   49  174 1    
   102   50   51 2    
   103   50   52 1    
   104   52   53 1    
   105   52   54 1    
   106   52  175 1    
   107   53  176 1    
   108   53  177 1    
   109   53  178 1    
   110   54   55 am   BACKBONE|DICT|INTERRES
   111   54  179 1    
   112   55   56 2    
   113   55   57 1    
   114   57   58 1    
   115   57   59 1    
   116   57  180 1    
   117   58  181 1    
   118   58  182 1    
   119   58  183 1    
   120   59   60 am   BACKBONE|DICT|INTERRES
   121   59  184 1    
   122   60   61 2    
   123   60   62 1    
   124   62   63 1    
   125   62   64 1    
   126   62  185 1    
   127   63  186 1    
   128   63  187 1    
   129   63  188 1    
   130   64   65 am   BACKBONE|DICT|INTERRES
   131   64  189 1    
   132   65   66 2    
   133   67   68 2    
   134   67   69 am   BACKBONE|DICT|INTERRES
   135   69   70 1    
   136   69  190 1    
   137   70   71 1    
   138   70   72 1    
   139   70  191 1    
   140   71  192 1    
   141   71  193 1    
   142   71  194 1    
   143   72   73 2    
   144   72   74 am   BACKBONE|DICT|INTERRES
   145   74   75 1    
   146   74  195 1    
   147   75   76 1    
   148   75   77 1    
   149   75  196 1    
   150   76  197 1    
   151   76  198 1    
   152   76  199 1    
   153   77   78 2    
   154   77   79 am   BACKBONE|DICT|INTERRES
   155   79   80 1    
   156   79  200 1    
   157   80   81 1    
   158   80   82 1    
   159   80  201 1    
   160   81  202 1    
   161   81  203 1    
   162   81  204 1    
   163   82   83 2    
   164   82   84 am   BACKBONE|DICT|INTERRES
   165   84   85 1    
   166   84  205 1    
   167   85   86 1    
   168   85   87 1    
   169   85  206 1    
   170   86  207 1    
   171   86  208 1    
   172   86  209 1    
   173   87   88 2    
   174   87   89 am   BACKBONE|DICT|INTERRES
   175   89   90 1    
   176   89  210 1    
   177   90   91 1    
   178   90   92 1    
   179   90  211 1    
   180   91  212 1    
   181   91  213 1    
   182   91  214 1    
   183   92   93 2    
   184   92   94 am   BACKBONE|DICT|INTERRES
   185   94   95 1    
   186   94  215 1    
   187   95   96 1    
   188   95   97 1    
   189   95  216 1    
   190   96  217 1    
   191   96  218 1    
   192   96  219 1    
   193   97   98 2    
   194   97   99 am   BACKBONE|DICT|INTERRES
   195   99  100 1    
   196   99  220 1    
   197  100  101 1    
   198  100  102 1    
   199  100  221 1    
   200  101  222 1    
   201  101  223 1    
   202  101  224 1    
   203  102  103 2    
   204  102  104 am   BACKBONE|DICT|INTERRES
   205  104  105 1    
   206  104  225 1    
   207  105  106 1    
   208  105  107 1    
   209  105  226 1    
   210  106  227 1    
   211  106  228 1    
   212  106  229 1    
   213  107  108 2    
   214  107  109 am   BACKBONE|DICT|INTERRES
   215  109  110 1    
   216  109  230 1    
   217  110  111 1    
   218  110  112 1    
   219  110  231 1    
   220  111  232 1    
   221  111  233 1    
   222  111  234 1    
   223  112  113 2    
   224  112  114 am   BACKBONE|DICT|INTERRES
   225  114  115 1    
   226  114  235 1    
   227  115  116 1    
   228  115  117 1    
   229  115  236 1    
   230  116  237 1    
   231  116  238 1    
   232  116  239 1    
   233  117  118 2    
   234  117  119 am   BACKBONE|DICT|INTERRES
   235  119  120 1    
   236  119  240 1    
   237  120  121 1    
   238  120  124 1    
   239  120  241 1    
   240  121  122 am   BACKBONE|DICT|INTERRES
   241  121  123 2    
   242  122  242 1    
   243  122  243 1    
   244  124  125 1    
   245  124  244 1    
   246  124  245 1    
   247  125  126 1    
   248  126  246 1    
   249  126  247 1    
@<TRIPOS>SUBSTRUCTURE
     1 UNK         1 GROUP             0       ****    0 ROOT    
