@<TRIPOS>MOLECULE
3R540
247   249    1
SMALL
USER_CHARGES


@<TRIPOS>ATOM
      1 CA          1.8256  -17.6658  -44.1995 C.3       0 UNK        -0.1800 
      2 C           2.6374  -16.8334  -45.1829 C.2       0 UNK         0.5000 
      3 O           3.5246  -17.3682  -45.8447 O.2       0 UNK        -0.5000 
      4 N           2.3607  -15.5234  -45.2522 N.am      1 UNK        -0.5000 
      5 CA          3.0308  -14.5202  -46.0958 C.3       1 UNK         0.1400 
      6 C6          2.9511  -14.8004  -47.6214 C.3       23 UNK        -0.0398 
      7 S7          1.2288  -14.8408  -48.2282 S.3       23 UNK        -0.2404 
      8 C8          1.4752  -14.8197  -50.0371 C.3       23 UNK        -0.0205 
      9 C9          1.3108  -16.1913  -50.6846 C.ar      23 UNK        -0.0193 
     10 C10         0.4867  -16.3417  -51.8051 C.ar      23 UNK        -0.1150 
     11 C11         0.3509  -17.5863  -52.4274 C.ar      23 UNK        -0.0193 
     12 C12         1.0232  -18.6934  -51.9030 C.ar      23 UNK        -0.1150 
     13 C13         1.8396  -18.5658  -50.7773 C.ar      23 UNK        -0.0193 
     14 C14         2.0000  -17.3042  -50.1938 C.ar      23 UNK        -0.1150 
     15 C15         2.5329  -19.8039  -50.2118 C.3       23 UNK        -0.0205 
     16 S16         2.6676  -19.8287  -48.3899 S.3       23 UNK        -0.2404 
     17 C17         0.9348  -19.5748  -47.8745 C.3       23 UNK        -0.0398 
     18 CA          0.2874  -20.8552  -47.3070 C.3       11 UNK         0.1400 
     19 N          -0.7826  -20.5469  -46.3554 N.am      11 UNK        -0.5000 
     20 C          -1.3766  -21.4589  -45.5737 C.2       10 UNK         0.5000 
     21 O          -1.1214  -22.6615  -45.6084 O.2       10 UNK        -0.5000 
     22 CA         -2.4408  -20.9461  -44.5937 C.3       10 UNK         0.1400 
     23 CB         -1.7769  -20.3993  -43.3269 C.3       10 UNK        -0.1800 
     24 N          -3.2856  -19.9121  -45.1838 N.am      10 UNK        -0.5000 
     25 C          -4.2202  -20.1575  -46.1105 C.2       9 UNK         0.5000 
     26 O          -4.4792  -21.2767  -46.5527 O.2       9 UNK        -0.5000 
     27 CA         -4.9405  -18.9288  -46.6858 C.3       9 UNK         0.1400 
     28 CB         -5.8663  -18.2811  -45.6456 C.3       9 UNK        -0.1800 
     29 N          -4.0031  -17.9322  -47.1980 N.am      9 UNK        -0.5000 
     30 C          -3.0887  -18.1458  -48.1559 C.2       8 UNK         0.5000 
     31 O          -2.9898  -19.1993  -48.7819 O.2       8 UNK        -0.5000 
     32 CA         -2.1030  -17.0017  -48.4522 C.3       8 UNK         0.1400 
     33 CB         -2.5251  -16.2461  -49.7207 C.3       8 UNK        -0.1800 
     34 N          -1.9648  -16.0521  -47.3472 N.am      8 UNK        -0.5000 
     35 C          -1.4807  -16.3358  -46.1294 C.2       7 UNK         0.5000 
     36 O          -1.0835  -17.4583  -45.8007 O.2       7 UNK        -0.5000 
     37 CA         -1.4327  -15.1477  -45.1432 C.3       7 UNK         0.1400 
     38 CB         -2.6748  -14.2346  -45.2457 C.3       7 UNK        -0.1800 
     39 N          -1.2128  -15.5188  -43.7425 N.am      7 UNK        -0.5000 
     40 C          -1.9775  -16.2969  -42.9595 C.2       6 UNK         0.5000 
     41 O          -2.9761  -16.8993  -43.3591 O.2       6 UNK        -0.5000 
     42 CA         -1.5742  -16.4023  -41.4688 C.3       6 UNK         0.1400 
     43 CB         -1.5540  -17.8541  -40.9694 C.3       6 UNK        -0.1800 
     44 N          -0.2687  -15.8014  -41.1830 N.am      6 UNK        -0.5000 
     45 C          -0.0677  -14.5325  -40.8088 C.2       5 UNK         0.5000 
     46 O          -0.9797  -13.7291  -40.6053 O.2       5 UNK        -0.5000 
     47 CA          1.3973  -14.0600  -40.6677 C.3       5 UNK         0.1400 
     48 CB          2.4544  -15.1389  -41.0003 C.3       5 UNK        -0.1800 
     49 N           1.6467  -12.8517  -41.4593 N.am      5 UNK        -0.5000 
     50 C           1.4374  -12.7019  -42.7756 C.2       4 UNK         0.5000 
     51 O           1.0608  -13.6078  -43.5216 O.2       4 UNK        -0.5000 
     52 CA          1.7663  -11.3229  -43.3559 C.3       4 UNK         0.1400 
     53 CB          0.9366  -10.1998  -42.7058 C.3       4 UNK        -0.1800 
     54 N           3.1949  -11.0962  -43.1843 N.am      4 UNK        -0.5000 
     55 C           3.9539  -10.2459  -43.8810 C.2       3 UNK         0.5000 
     56 O           3.5061   -9.4282  -44.6854 O.2       3 UNK        -0.5000 
     57 CA          5.4802  -10.3755  -43.6960 C.3       3 UNK         0.1400 
     58 CB          5.9565   -9.7426  -42.3740 C.3       3 UNK        -0.1800 
     59 N           5.9472  -11.7610  -43.8592 N.am      3 UNK        -0.5000 
     60 C           5.7370  -12.8160  -43.0595 C.2       2 UNK         0.5000 
     61 O           5.2042  -12.7470  -41.9504 O.2       2 UNK        -0.5000 
     62 CA          6.0270  -14.1923  -43.6807 C.3       2 UNK         0.1400 
     63 CB          6.3752  -15.2542  -42.6236 C.3       2 UNK        -0.1800 
     64 N           4.8305  -14.6167  -44.4051 N.am      2 UNK        -0.5000 
     65 C           4.4648  -14.1842  -45.6205 C.2       1 UNK         0.5000 
     66 O           5.1953  -13.4889  -46.3286 O.2       1 UNK        -0.5000 
     67 C          -0.1741  -21.8083  -48.4299 C.2       11 UNK         0.5000 
     68 O           0.5155  -22.7882  -48.7144 O.2       11 UNK        -0.5000 
     69 N          -1.3488  -21.5388  -49.0190 N.am      12 UNK        -0.5000 
     70 CA         -1.9494  -22.3925  -50.0431 C.3       12 UNK         0.1400 
     71 CB         -3.1064  -21.6571  -50.7284 C.3       12 UNK        -0.1800 
     72 C          -2.4164  -23.7415  -49.4714 C.2       12 UNK         0.5000 
     73 O          -2.2301  -24.7635  -50.1291 O.2       12 UNK        -0.5000 
     74 N          -2.9570  -23.7367  -48.2430 N.am      13 UNK        -0.5000 
     75 CA         -3.3532  -24.9478  -47.5210 C.3       13 UNK         0.1400 
     76 CB         -4.1169  -24.5715  -46.2435 C.3       13 UNK        -0.1800 
     77 C          -2.1569  -25.8662  -47.2069 C.2       13 UNK         0.5000 
     78 O          -2.2563  -27.0774  -47.4027 O.2       13 UNK        -0.5000 
     79 N          -1.0282  -25.2742  -46.7897 N.am      14 UNK        -0.5000 
     80 CA          0.2484  -25.9617  -46.5736 C.3       14 UNK         0.1400 
     81 CB          1.2379  -25.0006  -45.8978 C.3       14 UNK        -0.1800 
     82 C           0.8505  -26.5423  -47.8692 C.2       14 UNK         0.5000 
     83 O           1.4907  -27.5930  -47.8236 O.2       14 UNK        -0.5000 
     84 N           0.5988  -25.8745  -49.0031 N.am      15 UNK        -0.5000 
     85 CA          0.9523  -26.3266  -50.3510 C.3       15 UNK         0.1400 
     86 CB          1.0616  -25.0991  -51.2715 C.3       15 UNK        -0.1800 
     87 C          -0.0314  -27.3700  -50.9303 C.2       15 UNK         0.5000 
     88 O           0.1793  -27.8245  -52.0556 O.2       15 UNK        -0.5000 
     89 N          -1.0765  -27.7297  -50.1683 N.am      16 UNK        -0.5000 
     90 CA         -2.1486  -28.6770  -50.4939 C.3       16 UNK         0.1400 
     91 CB         -1.5911  -30.0959  -50.7356 C.3       16 UNK        -0.1800 
     92 C          -3.0905  -28.1932  -51.6179 C.2       16 UNK         0.5000 
     93 O          -3.7058  -29.0154  -52.2999 O.2       16 UNK        -0.5000 
     94 N          -3.2137  -26.8706  -51.7698 N.am      17 UNK        -0.5000 
     95 CA         -4.1935  -26.1990  -52.6183 C.3       17 UNK         0.1400 
     96 CB         -3.4826  -25.0574  -53.3667 C.3       17 UNK        -0.1800 
     97 C          -5.3478  -25.6626  -51.7497 C.2       17 UNK         0.5000 
     98 O          -5.3094  -25.7686  -50.5206 O.2       17 UNK        -0.5000 
     99 N          -6.3663  -25.0886  -52.4009 N.am      18 UNK        -0.5000 
    100 CA        -7.4591  -24.3792  -51.7355 C.3       18 UNK         0.1400 
    101 CB        -8.5975  -24.1477  -52.7396 C.3       18 UNK        -0.1800 
    102 C         -6.9619  -23.0516  -51.1310 C.2       18 UNK         0.5000 
    103 O         -6.1913  -22.3394  -51.7796 O.2       18 UNK        -0.5000 
    104 N         -7.4058  -22.7547  -49.9027 N.am      19 UNK        -0.5000 
    105 CA        -6.9842  -21.6126  -49.0893 C.3       19 UNK         0.1400 
    106 CB        -7.7504  -21.6363  -47.7567 C.3       19 UNK        -0.1800 
    107 C         -7.1607  -20.2602  -49.8072 C.2       19 UNK         0.5000 
    108 O         -8.2929  -19.8633  -50.0873 O.2       19 UNK        -0.5000 
    109 N         -6.0294  -19.6010  -50.0983 N.am      20 UNK        -0.5000 
    110 CA        -5.8877  -18.3012  -50.7638 C.3       20 UNK         0.1400 
    111 CB        -6.5202  -17.1767  -49.9176 C.3       20 UNK        -0.1800 
    112 C         -6.3694  -18.2640  -52.2300 C.2       20 UNK         0.5000 
    113 O         -6.4623  -17.1760  -52.8019 O.2       20 UNK        -0.5000 
    114 N         -6.6261  -19.4304  -52.8430 N.am      21 UNK        -0.5000 
    115 CA        -7.1071  -19.5506  -54.2247 C.3       21 UNK         0.1400 
    116 CB        -7.5427  -20.9975  -54.4867 C.3       21 UNK        -0.1800 
    117 C         -6.0819  -19.0895  -55.2786 C.2       21 UNK         0.5000 
    118 O         -6.4708  -18.7351  -56.3922 O.2       21 UNK        -0.5000 
    119 N         -4.8000  -19.0764  -54.8967 N.am      22 UNK        -0.5000 
    120 CA        -3.6923  -18.4934  -55.6617 C.3       22 UNK         0.1400 
    121 C         -3.6443  -16.9343  -55.6635 C.2       22 UNK         0.5000 
    122 N         -4.4647  -16.2314  -54.8894 N.am      22 UNK        -0.7600 
    123 O         -2.8508  -16.3490  -56.3954 O.2       22 UNK        -0.5000 
    124 C124       -2.3401  -19.1246  -55.2469 C.3       23 UNK        -0.0398 
    125 S125       -1.8864  -18.8564  -53.4933 S.3       23 UNK        -0.2404 
    126 C126       -0.4699  -17.7311  -53.6997 C.3       23 UNK        -0.0205 
    127 H127        1.0696  -17.0699  -43.6915 H         1 UNK         0.0600 
    128 H128        2.4808  -18.0996  -43.4444 H         1 UNK         0.0600 
    129 H129        1.3198  -18.4790  -44.7196 H         1 UNK         0.0600 
    130 H130        1.6581  -15.1246  -44.6386 H         1 UNK         0.3000 
    131 H131        2.4754  -13.5973  -45.9223 H         1 UNK         0.0600 
    132 H132        3.4692  -14.0164  -48.1759 H         1 UNK         0.0800 
    133 H133        3.4569  -15.7317  -47.8726 H         1 UNK         0.0800 
    134 H134        0.7538  -14.1184  -50.4590 H         1 UNK         0.0800 
    135 H135        2.4607  -14.4247  -50.2852 H         1 UNK         0.0800 
    136 H136       -0.0328  -15.4837  -52.2081 H         1 UNK         0.1150 
    137 H137        0.9101  -19.6572  -52.3796 H         1 UNK         0.1150 
    138 H138        2.6469  -17.1946  -49.3377 H         1 UNK         0.1150 
    139 H139        2.0052  -20.7069  -50.5238 H         1 UNK         0.0800 
    140 H140        3.5346  -19.8676  -50.6380 H         1 UNK         0.0800 
    141 H141        0.3375  -19.1676  -48.6890 H         1 UNK         0.0800 
    142 H142        0.9579  -18.7942  -47.1136 H         1 UNK         0.0800 
    143 H143        1.0488  -21.3875  -46.7318 H         1 UNK         0.0600 
    144 H144       -1.0357  -19.5714  -46.2437 H         1 UNK         0.3000 
    145 H145       -3.0709  -21.7916  -44.3094 H         1 UNK         0.0600 
    146 H146       -1.1154  -21.1401  -42.8758 H         1 UNK         0.0600 
    147 H147       -1.1827  -19.5103  -43.5422 H         1 UNK         0.0600 
    148 H148       -2.5282  -20.1387  -42.5829 H         1 UNK         0.0600 
    149 H149       -3.1073  -18.9567  -44.9005 H         1 UNK         0.3000 
    150 H150       -5.5574  -19.2670  -47.5149 H         1 UNK         0.0600 
    151 H151       -6.4536  -17.4771  -46.0895 H         1 UNK         0.0600 
    152 H152       -5.3066  -17.8632  -44.8076 H         1 UNK         0.0600 
    153 H153       -6.5693  -19.0102  -45.2408 H         1 UNK         0.0600 
    154 H154       -3.9969  -17.0374  -46.7321 H         1 UNK         0.3000 
    155 H155       -1.1224  -17.4415  -48.6335 H         1 UNK         0.0600 
    156 H156       -2.5597  -16.9177  -50.5800 H         1 UNK         0.0600 
    157 H157       -1.8153  -15.4546  -49.9617 H         1 UNK         0.0600 
    158 H158       -3.5119  -15.7940  -49.6136 H         1 UNK         0.0600 
    159 H159       -2.2477  -15.1030  -47.5420 H         1 UNK         0.3000 
    160 H160       -0.5646  -14.5564  -45.4364 H         1 UNK         0.0600 
    161 H161       -2.7438  -13.7513  -46.2205 H         1 UNK         0.0600 
    162 H162       -2.6339  -13.4362  -44.5043 H         1 UNK         0.0600 
    163 H163       -3.5994  -14.7900  -45.0832 H         1 UNK         0.0600 
    164 H164       -0.4249  -15.0530  -43.3095 H         1 UNK         0.3000 
    165 H165       -2.3473  -15.8763  -40.9050 H         1 UNK         0.0600 
    166 H166       -1.3479  -17.8958  -39.8998 H         1 UNK         0.0600 
    167 H167       -2.5190  -18.3363  -41.1255 H         1 UNK         0.0600 
    168 H168       -0.7904  -18.4432  -41.4763 H         1 UNK         0.0600 
    169 H169        0.5362  -16.3935  -41.3259 H         1 UNK         0.3000 
    170 H170        1.5268  -13.7806  -39.6212 H         1 UNK         0.0600 
    171 H171        3.4595  -14.7503  -40.8378 H         1 UNK         0.0600 
    172 H172        2.3474  -16.0133  -40.3573 H         1 UNK         0.0600 
    173 H173        2.3970  -15.4720  -42.0364 H         1 UNK         0.0600 
    174 H174        1.9426  -12.0434  -40.9310 H         1 UNK         0.3000 
    175 H175        1.5390  -11.3537  -44.4237 H         1 UNK         0.0600 
    176 H176        1.1936  -10.0569  -41.6559 H         1 UNK         0.0600 
    177 H177        1.0928   -9.2495  -43.2163 H         1 UNK         0.0600 
    178 H178       -0.1298  -10.4229  -42.7582 H         1 UNK         0.0600 
    179 H179        3.6776  -11.7495  -42.5713 H         1 UNK         0.3000 
    180 H180        5.9442   -9.8133  -44.5080 H         1 UNK         0.0600 
    181 H181        7.0367   -9.8329  -42.2608 H         1 UNK         0.0600 
    182 H182        5.4879  -10.1995  -41.5023 H         1 UNK         0.0600 
    183 H183        5.7143   -8.6796  -42.3480 H         1 UNK         0.0600 
    184 H184        6.3114  -11.9650  -44.7814 H         1 UNK         0.3000 
    185 H185        6.8704  -14.1048  -44.3691 H         1 UNK         0.0600 
    186 H186        6.6113  -16.2098  -43.0920 H         1 UNK         0.0600 
    187 H187        7.2471  -14.9522  -42.0423 H         1 UNK         0.0600 
    188 H188        5.5555  -15.4207  -41.9242 H         1 UNK         0.0600 
    189 H189        4.1636  -15.1653  -43.8839 H         1 UNK         0.3000 
    190 H190       -1.8771  -20.7106  -48.7558 H         1 UNK         0.3000 
    191 H191       -1.1896  -22.5938  -50.8010 H         1 UNK         0.0600 
    192 H192       -3.9193  -21.4664  -50.0310 H         1 UNK         0.0600 
    193 H193       -3.5105  -22.2456  -51.5518 H         1 UNK         0.0600 
    194 H194       -2.7816  -20.7018  -51.1405 H         1 UNK         0.0600 
    195 H195       -3.0756  -22.8576  -47.7574 H         1 UNK         0.3000 
    196 H196       -4.0348  -25.5081  -48.1637 H         1 UNK         0.0600 
    197 H197       -4.4305  -25.4632  -45.6996 H         1 UNK         0.0600 
    198 H198       -5.0161  -24.0013  -46.4777 H         1 UNK         0.0600 
    199 H199       -3.5068  -23.9723  -45.5680 H         1 UNK         0.0600 
    200 H200       -1.0427  -24.2762  -46.5934 H         1 UNK         0.3000 
    201 H201        0.0661  -26.7957  -45.8930 H         1 UNK         0.0600 
    202 H202        0.8528  -24.6475  -44.9411 H         1 UNK         0.0600 
    203 H203        1.4393  -24.1275  -46.5191 H         1 UNK         0.0600 
    204 H204        2.1913  -25.4932  -45.7033 H         1 UNK         0.0600 
    205 H205        0.1020  -24.9940  -48.9420 H         1 UNK         0.3000 
    206 H206        1.9347  -26.8012  -50.3103 H         1 UNK         0.0600 
    207 H207        1.7556  -24.3617  -50.8675 H         1 UNK         0.0600 
    208 H208        1.4276  -25.3816  -52.2592 H         1 UNK         0.0600 
    209 H209        0.0975  -24.6110  -51.4095 H         1 UNK         0.0600 
    210 H210       -1.1765  -27.2762  -49.2684 H         1 UNK         0.3000 
    211 H211       -2.7709  -28.7277  -49.5996 H         1 UNK         0.0600 
    212 H212       -1.0268  -30.1588  -51.6662 H         1 UNK         0.0600 
    213 H213       -2.3978  -30.8273  -50.7956 H         1 UNK         0.0600 
    214 H214       -0.9351  -30.4057  -49.9222 H         1 UNK         0.0600 
    215 H215       -2.7293  -26.2578  -51.1167 H         1 UNK         0.3000 
    216 H216       -4.6110  -26.8929  -53.3504 H         1 UNK         0.0600 
    217 H217       -4.1609  -24.5407  -54.0462 H         1 UNK         0.0600 
    218 H218       -2.6549  -25.4384  -53.9652 H         1 UNK         0.0600 
    219 H219       -3.0786  -24.3147  -52.6792 H         1 UNK         0.0600 
    220 H220       -6.3249  -25.0072  -53.4059 H         1 UNK         0.3000 
    221 H221       -7.8414  -25.0097  -50.9297 H         1 UNK         0.0600 
    222 H222       -8.2445  -23.6493  -53.6416 H         1 UNK         0.0600 
    223 H223       -9.0498  -25.0926  -53.0408 H         1 UNK         0.0600 
    224 H224       -9.3876  -23.5326  -52.3067 H         1 UNK         0.0600 
    225 H225       -8.0579  -23.3870  -49.4626 H         1 UNK         0.3000 
    226 H226       -5.9268  -21.7543  -48.8606 H         1 UNK         0.0600 
    227 H227       -7.5303  -22.5428  -47.1926 H         1 UNK         0.0600 
    228 H228       -7.4714  -20.7910  -47.1271 H         1 UNK         0.0600 
    229 H229       -8.8291  -21.5875  -47.9107 H         1 UNK         0.0600 
    230 H230       -5.1501  -20.0331  -49.8484 H         1 UNK         0.3000 
    231 H231       -4.8147  -18.1117  -50.8079 H         1 UNK         0.0600 
    232 H232       -7.6074  -17.2525  -49.8915 H         1 UNK         0.0600 
    233 H233       -6.1593  -17.1981  -48.8905 H         1 UNK         0.0600 
    234 H234       -6.2726  -16.1949  -50.3227 H         1 UNK         0.0600 
    235 H235       -6.5010  -20.2962  -52.3293 H         1 UNK         0.3000 
    236 H236       -7.9856  -18.9103  -54.3277 H         1 UNK         0.0600 
    237 H237       -6.7095  -21.6935  -54.3826 H         1 UNK         0.0600 
    238 H238       -8.3261  -21.2960  -53.7906 H         1 UNK         0.0600 
    239 H239       -7.9429  -21.1114  -55.4949 H         1 UNK         0.0600 
    240 H240       -4.5754  -19.3828  -53.9617 H         1 UNK         0.3000 
    241 H241       -3.8519  -18.7695  -56.7057 H         1 UNK         0.0600 
    242 H242       -4.4191  -15.2253  -54.9137 H         1 UNK         0.3800 
    243 H243       -5.1308  -16.6833  -54.2734 H         1 UNK         0.3800 
    244 H244       -1.5439  -18.7694  -55.9029 H         1 UNK         0.0800 
    245 H245       -2.3825  -20.2020  -55.4116 H         1 UNK         0.0800 
    246 H246       -0.8346  -16.7615  -54.0425 H         1 UNK         0.0800 
    247 H247        0.1878  -18.1097  -54.4833 H         1 UNK         0.0800 
@<TRIPOS>BOND
     1    1    2 1    
     2    1  127 1    
     3    1  128 1    
     4    1  129 1    
     5    2    3 2    
     6    2    4 am   BACKBONE|DICT|INTERRES
     7    4    5 1    
     8    4  130 1    
     9    5    6 1    
    10    5   65 1    
    11    5  131 1    
    12    6    7 1    
    13    6  132 1    
    14    6  133 1    
    15    7    8 1    
    16    8    9 1    
    17    8  134 1    
    18    8  135 1    
    19    9   10 ar   
    20    9   14 ar   
    21   10   11 ar   
    22   10  136 1    
    23   11   12 ar   
    24   11  126 1    
    25   12   13 ar   
    26   12  137 1    
    27   13   14 ar   
    28   13   15 1    
    29   14  138 1    
    30   15   16 1    
    31   15  139 1    
    32   15  140 1    
    33   16   17 1    
    34   17   18 1    
    35   17  141 1    
    36   17  142 1    
    37   18   19 1    
    38   18   67 1    
    39   18  143 1    
    40   19   20 am   BACKBONE|DICT|INTERRES
    41   19  144 1    
    42   20   21 2    
    43   20   22 1    
    44   22   23 1    
    45   22   24 1    
    46   22  145 1    
    47   23  146 1    
    48   23  147 1    
    49   23  148 1    
    50   24   25 am   BACKBONE|DICT|INTERRES
    51   24  149 1    
    52   25   26 2    
    53   25   27 1    
    54   27   28 1    
    55   27   29 1    
    56   27  150 1    
    57   28  151 1    
    58   28  152 1    
    59   28  153 1    
    60   29   30 am   BACKBONE|DICT|INTERRES
    61   29  154 1    
    62   30   31 2    
    63   30   32 1    
    64   32   33 1    
    65   32   34 1    
    66   32  155 1    
    67   33  156 1    
    68   33  157 1    
    69   33  158 1    
    70   34   35 am   BACKBONE|DICT|INTERRES
    71   34  159 1    
    72   35   36 2    
    73   35   37 1    
    74   37   38 1    
    75   37   39 1    
    76   37  160 1    
    77   38  161 1    
    78   38  162 1    
    79   38  163 1    
    80   39   40 am   BACKBONE|DICT|INTERRES
    81   39  164 1    
    82   40   41 2    
    83   40   42 1    
    84   42   43 1    
    85   42   44 1    
    86   42  165 1    
    87   43  166 1    
    88   43  167 1    
    89   43  168 1    
    90   44   45 am   BACKBONE|DICT|INTERRES
    91   44  169 1    
    92   45   46 2    
    93   45   47 1    
    94   47   48 1    
    95   47   49 1    
    96   47  170 1    
    97   48  171 1    
    98   48  172 1    
    99   48  173 1    
   100   49   50 am   BACKBONE|DICT|INTERRES
   101   49  174 1    
   102   50   51 2    
   103   50   52 1    
   104   52   53 1    
   105   52   54 1    
   106   52  175 1    
   107   53  176 1    
   108   53  177 1    
   109   53  178 1    
   110   54   55 am   BACKBONE|DICT|INTERRES
   111   54  179 1    
   112   55   56 2    
   113   55   57 1    
   114   57   58 1    
   115   57   59 1    
   116   57  180 1    
   117   58  181 1    
   118   58  182 1    
   119   58  183 1    
   120   59   60 am   BACKBONE|DICT|INTERRES
   121   59  184 1    
   122   60   61 2    
   123   60   62 1    
   124   62   63 1    
   125   62   64 1    
   126   62  185 1    
   127   63  186 1    
   128   63  187 1    
   129   63  188 1    
   130   64   65 am   BACKBONE|DICT|INTERRES
   131   64  189 1    
   132   65   66 2    
   133   67   68 2    
   134   67   69 am   BACKBONE|DICT|INTERRES
   135   69   70 1    
   136   69  190 1    
   137   70   71 1    
   138   70   72 1    
   139   70  191 1    
   140   71  192 1    
   141   71  193 1    
   142   71  194 1    
   143   72   73 2    
   144   72   74 am   BACKBONE|DICT|INTERRES
   145   74   75 1    
   146   74  195 1    
   147   75   76 1    
   148   75   77 1    
   149   75  196 1    
   150   76  197 1    
   151   76  198 1    
   152   76  199 1    
   153   77   78 2    
   154   77   79 am   BACKBONE|DICT|INTERRES
   155   79   80 1    
   156   79  200 1    
   157   80   81 1    
   158   80   82 1    
   159   80  201 1    
   160   81  202 1    
   161   81  203 1    
   162   81  204 1    
   163   82   83 2    
   164   82   84 am   BACKBONE|DICT|INTERRES
   165   84   85 1    
   166   84  205 1    
   167   85   86 1    
   168   85   87 1    
   169   85  206 1    
   170   86  207 1    
   171   86  208 1    
   172   86  209 1    
   173   87   88 2    
   174   87   89 am   BACKBONE|DICT|INTERRES
   175   89   90 1    
   176   89  210 1    
   177   90   91 1    
   178   90   92 1    
   179   90  211 1    
   180   91  212 1    
   181   91  213 1    
   182   91  214 1    
   183   92   93 2    
   184   92   94 am   BACKBONE|DICT|INTERRES
   185   94   95 1    
   186   94  215 1    
   187   95   96 1    
   188   95   97 1    
   189   95  216 1    
   190   96  217 1    
   191   96  218 1    
   192   96  219 1    
   193   97   98 2    
   194   97   99 am   BACKBONE|DICT|INTERRES
   195   99  100 1    
   196   99  220 1    
   197  100  101 1    
   198  100  102 1    
   199  100  221 1    
   200  101  222 1    
   201  101  223 1    
   202  101  224 1    
   203  102  103 2    
   204  102  104 am   BACKBONE|DICT|INTERRES
   205  104  105 1    
   206  104  225 1    
   207  105  106 1    
   208  105  107 1    
   209  105  226 1    
   210  106  227 1    
   211  106  228 1    
   212  106  229 1    
   213  107  108 2    
   214  107  109 am   BACKBONE|DICT|INTERRES
   215  109  110 1    
   216  109  230 1    
   217  110  111 1    
   218  110  112 1    
   219  110  231 1    
   220  111  232 1    
   221  111  233 1    
   222  111  234 1    
   223  112  113 2    
   224  112  114 am   BACKBONE|DICT|INTERRES
   225  114  115 1    
   226  114  235 1    
   227  115  116 1    
   228  115  117 1    
   229  115  236 1    
   230  116  237 1    
   231  116  238 1    
   232  116  239 1    
   233  117  118 2    
   234  117  119 am   BACKBONE|DICT|INTERRES
   235  119  120 1    
   236  119  240 1    
   237  120  121 1    
   238  120  124 1    
   239  120  241 1    
   240  121  122 am   BACKBONE|DICT|INTERRES
   241  121  123 2    
   242  122  242 1    
   243  122  243 1    
   244  124  125 1    
   245  124  244 1    
   246  124  245 1    
   247  125  126 1    
   248  126  246 1    
   249  126  247 1    
@<TRIPOS>SUBSTRUCTURE
     1 UNK         1 GROUP             0       ****    0 ROOT    
