@<TRIPOS>MOLECULE
3R540
247   249    1
SMALL
USER_CHARGES


@<TRIPOS>ATOM
      1 CA          1.1807  -10.3935  -47.1230 C.3       0 UNK        -0.1800 
      2 C           2.2439  -11.1343  -47.9208 C.2       0 UNK         0.5000 
      3 O           3.3397  -10.6107  -48.1238 O.2       0 UNK        -0.5000 
      4 N           1.9318  -12.3582  -48.3616 N.am      1 UNK        -0.5000 
      5 CA          2.7910  -13.2675  -49.1289 C.3       1 UNK         0.1400 
      6 C6          1.9626  -14.2631  -49.9886 C.3       23 UNK        -0.0398 
      7 S7          0.5686  -15.0847  -49.1288 S.3       23 UNK        -0.2404 
      8 C8         -0.8322  -14.0798  -49.7246 C.3       23 UNK        -0.0205 
      9 C9         -2.1871  -14.7197  -49.4509 C.ar      23 UNK        -0.0193 
     10 C10        -3.0078  -15.0979  -50.5166 C.ar      23 UNK        -0.1150 
     11 C11        -4.2837  -15.6165  -50.2847 C.ar      23 UNK        -0.0193 
     12 C12        -4.7366  -15.7666  -48.9705 C.ar      23 UNK        -0.1150 
     13 C13        -3.9238  -15.4041  -47.8866 C.ar      23 UNK        -0.0193 
     14 C14        -2.6507  -14.8803  -48.1418 C.ar      23 UNK        -0.1150 
     15 C15        -4.3727  -15.5155  -46.4264 C.3       23 UNK        -0.0205 
     16 S16        -5.9526  -16.3888  -46.1004 S.3       23 UNK        -0.2404 
     17 C17        -5.7001  -18.1380  -46.5906 C.3       23 UNK        -0.0398 
     18 CA         -4.2506  -18.6710  -46.5581 C.3       11 UNK         0.1400 
     19 N          -3.6411  -18.5554  -45.2318 N.am      11 UNK        -0.5000 
     20 C          -2.3176  -18.5198  -45.0398 C.2       10 UNK         0.5000 
     21 O          -1.4970  -18.6573  -45.9455 O.2       10 UNK        -0.5000 
     22 CA         -1.8427  -18.3086  -43.5931 C.3       10 UNK         0.1400 
     23 CB         -2.1132  -16.8611  -43.1509 C.3       10 UNK        -0.1800 
     24 N          -2.4270  -19.2222  -42.6076 N.am      10 UNK        -0.5000 
     25 C          -2.5179  -20.5559  -42.6995 C.2       9 UNK         0.5000 
     26 O          -2.2238  -21.2017  -43.7060 O.2       9 UNK        -0.5000 
     27 CA         -2.9505  -21.2761  -41.4119 C.3       9 UNK         0.1400 
     28 CB         -3.1443  -22.7910  -41.6020 C.3       9 UNK        -0.1800 
     29 N          -1.9100  -21.0529  -40.4126 N.am      9 UNK        -0.5000 
     30 C          -2.0292  -20.2963  -39.3153 C.2       8 UNK         0.5000 
     31 O          -3.0828  -19.7739  -38.9503 O.2       8 UNK        -0.5000 
     32 CA         -0.7367  -20.0523  -38.5105 C.3       8 UNK         0.1400 
     33 CB         -0.5613  -21.1318  -37.4316 C.3       8 UNK        -0.1800 
     34 N           0.4667  -20.0076  -39.3497 N.am      8 UNK        -0.5000 
     35 C           0.7215  -19.0574  -40.2602 C.2       7 UNK         0.5000 
     36 O          -0.0345  -18.1101  -40.4852 O.2       7 UNK        -0.5000 
     37 CA          2.0181  -19.2284  -41.0756 C.3       7 UNK         0.1400 
     38 CB          1.8007  -20.2331  -42.2186 C.3       7 UNK        -0.1800 
     39 N           2.4960  -17.9596  -41.6300 N.am      7 UNK        -0.5000 
     40 C           3.0254  -16.9690  -40.8953 C.2       6 UNK         0.5000 
     41 O           3.2070  -17.0567  -39.6794 O.2       6 UNK        -0.5000 
     42 CA          3.4526  -15.6700  -41.6126 C.3       6 UNK         0.1400 
     43 CB          4.9850  -15.5710  -41.6720 C.3       6 UNK        -0.1800 
     44 N           2.9220  -15.5324  -42.9679 N.am      6 UNK        -0.5000 
     45 C           1.6508  -15.2451  -43.2744 C.2       5 UNK         0.5000 
     46 O           0.7855  -14.9962  -42.4357 O.2       5 UNK        -0.5000 
     47 CA          1.2784  -15.2510  -44.7708 C.3       5 UNK         0.1400 
     48 CB          1.2996  -13.8295  -45.3458 C.3       5 UNK        -0.1800 
     49 N           2.1267  -16.1237  -45.5872 N.am      5 UNK        -0.5000 
     50 C           2.1678  -17.4574  -45.4629 C.2       4 UNK         0.5000 
     51 O           1.5111  -18.0833  -44.6354 O.2       4 UNK        -0.5000 
     52 CA          3.1698  -18.2049  -46.3542 C.3       4 UNK         0.1400 
     53 CB          2.6787  -18.2784  -47.8060 C.3       4 UNK        -0.1800 
     54 N           4.4908  -17.5814  -46.2914 N.am      4 UNK        -0.5000 
     55 C           5.3007  -17.6808  -45.2263 C.2       3 UNK         0.5000 
     56 O           5.0459  -18.3728  -44.2405 O.2       3 UNK        -0.5000 
     57 CA          6.6078  -16.8660  -45.2419 C.3       3 UNK         0.1400 
     58 CB          7.7787  -17.7413  -45.7136 C.3       3 UNK        -0.1800 
     59 N           6.5583  -15.6572  -46.0643 N.am      3 UNK        -0.5000 
     60 C           5.7532  -14.6046  -45.8656 C.2       2 UNK         0.5000 
     61 O           4.9106  -14.5502  -44.9691 O.2       2 UNK        -0.5000 
     62 CA          5.9054  -13.4127  -46.8359 C.3       2 UNK         0.1400 
     63 CB          7.0750  -13.5617  -47.8347 C.3       2 UNK        -0.1800 
     64 N           4.6797  -13.1002  -47.5757 N.am      2 UNK        -0.5000 
     65 C           3.8875  -13.9354  -48.2624 C.2       1 UNK         0.5000 
     66 O           4.0095  -15.1612  -48.2422 O.2       1 UNK        -0.5000 
     67 C          -4.1640  -20.1086  -47.1115 C.2       11 UNK         0.5000 
     68 O          -4.0913  -20.2766  -48.3272 O.2       11 UNK        -0.5000 
     69 N          -4.1150  -21.1186  -46.2294 N.am      12 UNK        -0.5000 
     70 CA         -3.8898  -22.5156  -46.6094 C.3       12 UNK         0.1400 
     71 CB         -4.2628  -23.4448  -45.4459 C.3       12 UNK        -0.1800 
     72 C          -2.4361  -22.7493  -47.0561 C.2       12 UNK         0.5000 
     73 O          -2.2064  -23.4509  -48.0419 O.2       12 UNK        -0.5000 
     74 N          -1.4863  -22.1123  -46.3569 N.am      13 UNK        -0.5000 
     75 CA         -0.0717  -22.0696  -46.7244 C.3       13 UNK         0.1400 
     76 CB          0.7377  -21.4491  -45.5765 C.3       13 UNK        -0.1800 
     77 C           0.1689  -21.3151  -48.0458 C.2       13 UNK         0.5000 
     78 O           1.0224  -21.7314  -48.8286 O.2       13 UNK        -0.5000 
     79 N          -0.6041  -20.2449  -48.2845 N.am      14 UNK        -0.5000 
     80 CA         -0.6195  -19.4999  -49.5444 C.3       14 UNK         0.1400 
     81 CB         -1.3919  -18.1861  -49.3655 C.3       14 UNK        -0.1800 
     82 C          -1.2087  -20.3208  -50.7051 C.2       14 UNK         0.5000 
     83 O          -0.6824  -20.2517  -51.8163 O.2       14 UNK        -0.5000 
     84 N          -2.2721  -21.0906  -50.4262 N.am      15 UNK        -0.5000 
     85 CA         -2.9055  -21.9996  -51.3781 C.3       15 UNK         0.1400 
     86 CB         -4.2241  -22.5525  -50.8082 C.3       15 UNK        -0.1800 
     87 C          -1.9754  -23.1514  -51.7861 C.2       15 UNK         0.5000 
     88 O          -1.7987  -23.3973  -52.9801 O.2       15 UNK        -0.5000 
     89 N          -1.4229  -23.8526  -50.7836 N.am      16 UNK        -0.5000 
     90 CA         -0.4960  -24.9880  -50.8990 C.3       16 UNK         0.1400 
     91 CB          0.8721  -24.4990  -51.4167 C.3       16 UNK        -0.1800 
     92 C          -1.0472  -26.1696  -51.7329 C.2       16 UNK         0.5000 
     93 O          -0.2681  -26.9382  -52.2983 O.2       16 UNK        -0.5000 
     94 N          -2.3841  -26.2658  -51.8187 N.am      17 UNK        -0.5000 
     95 CA         -3.1709  -27.1640  -52.6737 C.3       17 UNK         0.1400 
     96 CB         -2.9677  -28.6366  -52.2596 C.3       17 UNK        -0.1800 
     97 C          -2.9619  -26.9373  -54.1913 C.2       17 UNK         0.5000 
     98 O          -3.2871  -27.8235  -54.9835 O.2       17 UNK        -0.5000 
     99 N          -2.4424  -25.7626  -54.5746 N.am      18 UNK        -0.5000 
    100 CA        -2.1678  -25.3681  -55.9552 C.3       18 UNK         0.1400 
    101 CB        -0.6656  -25.0761  -56.1095 C.3       18 UNK        -0.1800 
    102 C         -3.0137  -24.1440  -56.3331 C.2       18 UNK         0.5000 
    103 O         -3.7870  -24.2060  -57.2898 O.2       18 UNK        -0.5000 
    104 N         -2.8895  -23.0638  -55.5521 N.am      19 UNK        -0.5000 
    105 CA        -3.6582  -21.8288  -55.6873 C.3       19 UNK         0.1400 
    106 CB        -2.7729  -20.6354  -55.2859 C.3       19 UNK        -0.1800 
    107 C         -4.9443  -21.9368  -54.8508 C.2       19 UNK         0.5000 
    108 O         -5.1079  -21.2326  -53.8531 O.2       19 UNK        -0.5000 
    109 N         -5.8305  -22.8509  -55.2695 N.am      20 UNK        -0.5000 
    110 CA        -7.0654  -23.2471  -54.5828 C.3       20 UNK         0.1400 
    111 CB        -7.7570  -24.3459  -55.4033 C.3       20 UNK        -0.1800 
    112 C         -8.0486  -22.0984  -54.2784 C.2       20 UNK         0.5000 
    113 O         -8.8539  -22.2260  -53.3557 O.2       20 UNK        -0.5000 
    114 N         -7.9350  -20.9831  -55.0135 N.am      21 UNK        -0.5000 
    115 CA        -8.6518  -19.7274  -54.7806 C.3       21 UNK         0.1400 
    116 CB        -8.2676  -18.7253  -55.8798 C.3       21 UNK        -0.1800 
    117 C         -8.4085  -19.1131  -53.3850 C.2       21 UNK         0.5000 
    118 O         -9.2946  -18.4260  -52.8748 O.2       21 UNK        -0.5000 
    119 N         -7.2412  -19.3858  -52.7839 N.am      22 UNK        -0.5000 
    120 CA        -6.9232  -19.0204  -51.3930 C.3       22 UNK         0.1400 
    121 C         -7.4839  -20.0222  -50.3383 C.2       22 UNK         0.5000 
    122 N         -8.0993  -21.1373  -50.7159 N.am      22 UNK        -0.7600 
    123 O         -7.3875  -19.7709  -49.1422 O.2       22 UNK        -0.5000 
    124 C124       -5.4079  -18.7571  -51.1776 C.3       23 UNK        -0.0398 
    125 S125       -4.7224  -17.4948  -52.3018 S.3       23 UNK        -0.2404 
    126 C126       -5.1913  -15.9492  -51.4609 C.3       23 UNK        -0.0205 
    127 H127        0.9362   -9.4493  -47.6094 H         1 UNK         0.0600 
    128 H128        1.5484  -10.1775  -46.1199 H         1 UNK         0.0600 
    129 H129        0.2638  -10.9764  -47.0304 H         1 UNK         0.0600 
    130 H130        1.0263  -12.7419  -48.1352 H         1 UNK         0.3000 
    131 H131        3.3455  -12.6539  -49.8424 H         1 UNK         0.0600 
    132 H132        1.5696  -13.7278  -50.8533 H         1 UNK         0.0800 
    133 H133        2.6028  -15.0359  -50.4174 H         1 UNK         0.0800 
    134 H134       -0.8023  -13.0970  -49.2532 H         1 UNK         0.0800 
    135 H135       -0.7185  -13.9072  -50.7958 H         1 UNK         0.0800 
    136 H136       -2.6659  -14.9680  -51.5339 H         1 UNK         0.1150 
    137 H137       -5.7334  -16.1466  -48.8062 H         1 UNK         0.1150 
    138 H138       -2.0185  -14.5810  -47.3174 H         1 UNK         0.1150 
    139 H139       -3.5764  -15.9605  -45.8323 H         1 UNK         0.0800 
    140 H140       -4.4855  -14.5004  -46.0437 H         1 UNK         0.0800 
    141 H141       -6.3443  -18.7565  -45.9634 H         1 UNK         0.0800 
    142 H142       -6.0951  -18.2295  -47.6016 H         1 UNK         0.0800 
    143 H143       -3.6672  -18.0607  -47.2477 H         1 UNK         0.0600 
    144 H144       -4.2620  -18.4382  -44.4445 H         1 UNK         0.3000 
    145 H145       -0.7661  -18.4721  -43.5762 H         1 UNK         0.0600 
    146 H146       -1.6043  -16.6350  -42.2138 H         1 UNK         0.0600 
    147 H147       -1.7560  -16.1458  -43.8911 H         1 UNK         0.0600 
    148 H148       -3.1779  -16.6739  -43.0076 H         1 UNK         0.0600 
    149 H149       -2.6592  -18.8033  -41.7183 H         1 UNK         0.3000 
    150 H150       -3.9031  -20.8482  -41.0931 H         1 UNK         0.0600 
    151 H151       -3.9583  -22.9928  -42.2981 H         1 UNK         0.0600 
    152 H152       -3.4008  -23.2742  -40.6592 H         1 UNK         0.0600 
    153 H153       -2.2456  -23.2727  -41.9896 H         1 UNK         0.0600 
    154 H154       -0.9934  -21.4074  -40.6442 H         1 UNK         0.3000 
    155 H155       -0.8363  -19.0854  -38.0127 H         1 UNK         0.0600 
    156 H156        0.3061  -20.9257  -36.8042 H         1 UNK         0.0600 
    157 H157       -0.4328  -22.1227  -37.8692 H         1 UNK         0.0600 
    158 H158       -1.4322  -21.1732  -36.7759 H         1 UNK         0.0600 
    159 H159        1.1340  -20.7543  -39.2181 H         1 UNK         0.3000 
    160 H160        2.7949  -19.6206  -40.4159 H         1 UNK         0.0600 
    161 H161        0.9544  -19.9531  -42.8456 H         1 UNK         0.0600 
    162 H162        1.5979  -21.2317  -41.8303 H         1 UNK         0.0600 
    163 H163        2.6809  -20.3057  -42.8582 H         1 UNK         0.0600 
    164 H164        2.3355  -17.8103  -42.6190 H         1 UNK         0.3000 
    165 H165        3.0822  -14.8333  -41.0168 H         1 UNK         0.0600 
    166 H166        5.4166  -16.4017  -42.2300 H         1 UNK         0.0600 
    167 H167        5.3051  -14.6430  -42.1462 H         1 UNK         0.0600 
    168 H168        5.4177  -15.5896  -40.6710 H         1 UNK         0.0600 
    169 H169        3.5840  -15.6301  -43.7291 H         1 UNK         0.3000 
    170 H170        0.2574  -15.6263  -44.8480 H         1 UNK         0.0600 
    171 H171        0.7246  -13.1426  -44.7234 H         1 UNK         0.0600 
    172 H172        2.3148  -13.4375  -45.4197 H         1 UNK         0.0600 
    173 H173        0.8509  -13.8143  -46.3370 H         1 UNK         0.0600 
    174 H174        2.7345  -15.6807  -46.2629 H         1 UNK         0.3000 
    175 H175        3.2490  -19.2284  -45.9810 H         1 UNK         0.0600 
    176 H176        1.6944  -18.7407  -47.8461 H         1 UNK         0.0600 
    177 H177        2.5875  -17.2942  -48.2627 H         1 UNK         0.0600 
    178 H178        3.3484  -18.8776  -48.4227 H         1 UNK         0.0600 
    179 H179        4.7356  -16.9486  -47.0433 H         1 UNK         0.3000 
    180 H180        6.8098  -16.5547  -44.2154 H         1 UNK         0.0600 
    181 H181        7.6508  -18.0597  -46.7490 H         1 UNK         0.0600 
    182 H182        7.8661  -18.6404  -45.1021 H         1 UNK         0.0600 
    183 H183        8.7264  -17.2075  -45.6398 H         1 UNK         0.0600 
    184 H184        7.2019  -15.6201  -46.8411 H         1 UNK         0.3000 
    185 H185        6.1151  -12.5444  -46.2098 H         1 UNK         0.0600 
    186 H186        7.1855  -12.6602  -48.4377 H         1 UNK         0.0600 
    187 H187        8.0241  -13.7135  -47.3189 H         1 UNK         0.0600 
    188 H188        6.9237  -14.3962  -48.5208 H         1 UNK         0.0600 
    189 H189        4.4446  -12.1132  -47.6343 H         1 UNK         0.3000 
    190 H190       -4.1006  -20.9061  -45.2424 H         1 UNK         0.3000 
    191 H191       -4.5444  -22.7516  -47.4512 H         1 UNK         0.0600 
    192 H192       -4.1995  -24.4898  -45.7514 H         1 UNK         0.0600 
    193 H193       -5.2825  -23.2660  -45.1048 H         1 UNK         0.0600 
    194 H194       -3.5935  -23.3154  -44.5964 H         1 UNK         0.0600 
    195 H195       -1.7563  -21.6004  -45.5209 H         1 UNK         0.3000 
    196 H196        0.2694  -23.0976  -46.8634 H         1 UNK         0.0600 
    197 H197        1.8006  -21.4155  -45.8177 H         1 UNK         0.0600 
    198 H198        0.6282  -22.0276  -44.6591 H         1 UNK         0.0600 
    199 H199        0.4165  -20.4297  -45.3652 H         1 UNK         0.0600 
    200 H200       -1.2075  -19.9060  -47.5431 H         1 UNK         0.3000 
    201 H201        0.4121  -19.2517  -49.8009 H         1 UNK         0.0600 
    202 H202       -1.0273  -17.6216  -48.5072 H         1 UNK         0.0600 
    203 H203       -2.4594  -18.3534  -49.2298 H         1 UNK         0.0600 
    204 H204       -1.2773  -17.5517  -50.2448 H         1 UNK         0.0600 
    205 H205       -2.6993  -21.0207  -49.5084 H         1 UNK         0.3000 
    206 H206       -3.1373  -21.4185  -52.2682 H         1 UNK         0.0600 
    207 H207       -4.9035  -21.7565  -50.5101 H         1 UNK         0.0600 
    208 H208       -4.7445  -23.1529  -51.5554 H         1 UNK         0.0600 
    209 H209       -4.0620  -23.1842  -49.9357 H         1 UNK         0.0600 
    210 H210       -1.6673  -23.5922  -49.8296 H         1 UNK         0.3000 
    211 H211       -0.3537  -25.3685  -49.8867 H         1 UNK         0.0600 
    212 H212        0.8143  -24.1619  -52.4522 H         1 UNK         0.0600 
    213 H213        1.6181  -25.2930  -51.3709 H         1 UNK         0.0600 
    214 H214        1.2467  -23.6701  -50.8162 H         1 UNK         0.0600 
    215 H215       -2.9203  -25.5847  -51.3008 H         1 UNK         0.3000 
    216 H216       -4.2155  -26.9148  -52.4822 H         1 UNK         0.0600 
    217 H217       -3.1233  -28.7707  -51.1892 H         1 UNK         0.0600 
    218 H218       -3.6756  -29.2892  -52.7719 H         1 UNK         0.0600 
    219 H219       -1.9656  -28.9919  -52.5007 H         1 UNK         0.0600 
    220 H220       -2.2188  -25.0725  -53.8640 H         1 UNK         0.3000 
    221 H221       -2.4264  -26.1711  -56.6484 H         1 UNK         0.0600 
    222 H222       -0.4330  -24.7434  -57.1219 H         1 UNK         0.0600 
    223 H223       -0.3275  -24.3010  -55.4203 H         1 UNK         0.0600 
    224 H224       -0.0734  -25.9707  -55.9163 H         1 UNK         0.0600 
    225 H225       -2.2985  -23.1244  -54.7260 H         1 UNK         0.3000 
    226 H226       -3.9540  -21.6821  -56.7283 H         1 UNK         0.0600 
    227 H227       -2.3628  -20.7467  -54.2829 H         1 UNK         0.0600 
    228 H228       -1.9336  -20.5258  -55.9726 H         1 UNK         0.0600 
    229 H229       -3.3361  -19.7015  -55.3102 H         1 UNK         0.0600 
    230 H230       -5.5913  -23.3835  -56.0963 H         1 UNK         0.3000 
    231 H231       -6.7726  -23.6738  -53.6214 H         1 UNK         0.0600 
    232 H232       -8.6651  -24.6928  -54.9083 H         1 UNK         0.0600 
    233 H233       -7.1073  -25.2123  -55.5301 H         1 UNK         0.0600 
    234 H234       -8.0388  -23.9885  -56.3946 H         1 UNK         0.0600 
    235 H235       -7.2367  -20.9723  -55.7416 H         1 UNK         0.3000 
    236 H236       -9.7199  -19.9378  -54.8639 H         1 UNK         0.0600 
    237 H237       -8.5128  -19.1102  -56.8698 H         1 UNK         0.0600 
    238 H238       -8.8053  -17.7843  -55.7561 H         1 UNK         0.0600 
    239 H239       -7.2007  -18.4985  -55.8604 H         1 UNK         0.0600 
    240 H240       -6.5563  -19.9665  -53.2583 H         1 UNK         0.3000 
    241 H241       -7.4311  -18.0799  -51.1742 H         1 UNK         0.0600 
    242 H242       -8.2528  -21.3602  -51.6930 H         1 UNK         0.3800 
    243 H243       -8.4613  -21.7546  -50.0074 H         1 UNK         0.3800 
    244 H244       -4.8414  -19.6718  -51.3439 H         1 UNK         0.0800 
    245 H245       -5.2030  -18.4585  -50.1484 H         1 UNK         0.0800 
    246 H246       -5.1403  -15.1352  -52.1854 H         1 UNK         0.0800 
    247 H247       -6.2339  -16.0004  -51.1453 H         1 UNK         0.0800 
@<TRIPOS>BOND
     1    1    2 1    
     2    1  127 1    
     3    1  128 1    
     4    1  129 1    
     5    2    3 2    
     6    2    4 am   BACKBONE|DICT|INTERRES
     7    4    5 1    
     8    4  130 1    
     9    5    6 1    
    10    5   65 1    
    11    5  131 1    
    12    6    7 1    
    13    6  132 1    
    14    6  133 1    
    15    7    8 1    
    16    8    9 1    
    17    8  134 1    
    18    8  135 1    
    19    9   10 ar   
    20    9   14 ar   
    21   10   11 ar   
    22   10  136 1    
    23   11   12 ar   
    24   11  126 1    
    25   12   13 ar   
    26   12  137 1    
    27   13   14 ar   
    28   13   15 1    
    29   14  138 1    
    30   15   16 1    
    31   15  139 1    
    32   15  140 1    
    33   16   17 1    
    34   17   18 1    
    35   17  141 1    
    36   17  142 1    
    37   18   19 1    
    38   18   67 1    
    39   18  143 1    
    40   19   20 am   BACKBONE|DICT|INTERRES
    41   19  144 1    
    42   20   21 2    
    43   20   22 1    
    44   22   23 1    
    45   22   24 1    
    46   22  145 1    
    47   23  146 1    
    48   23  147 1    
    49   23  148 1    
    50   24   25 am   BACKBONE|DICT|INTERRES
    51   24  149 1    
    52   25   26 2    
    53   25   27 1    
    54   27   28 1    
    55   27   29 1    
    56   27  150 1    
    57   28  151 1    
    58   28  152 1    
    59   28  153 1    
    60   29   30 am   BACKBONE|DICT|INTERRES
    61   29  154 1    
    62   30   31 2    
    63   30   32 1    
    64   32   33 1    
    65   32   34 1    
    66   32  155 1    
    67   33  156 1    
    68   33  157 1    
    69   33  158 1    
    70   34   35 am   BACKBONE|DICT|INTERRES
    71   34  159 1    
    72   35   36 2    
    73   35   37 1    
    74   37   38 1    
    75   37   39 1    
    76   37  160 1    
    77   38  161 1    
    78   38  162 1    
    79   38  163 1    
    80   39   40 am   BACKBONE|DICT|INTERRES
    81   39  164 1    
    82   40   41 2    
    83   40   42 1    
    84   42   43 1    
    85   42   44 1    
    86   42  165 1    
    87   43  166 1    
    88   43  167 1    
    89   43  168 1    
    90   44   45 am   BACKBONE|DICT|INTERRES
    91   44  169 1    
    92   45   46 2    
    93   45   47 1    
    94   47   48 1    
    95   47   49 1    
    96   47  170 1    
    97   48  171 1    
    98   48  172 1    
    99   48  173 1    
   100   49   50 am   BACKBONE|DICT|INTERRES
   101   49  174 1    
   102   50   51 2    
   103   50   52 1    
   104   52   53 1    
   105   52   54 1    
   106   52  175 1    
   107   53  176 1    
   108   53  177 1    
   109   53  178 1    
   110   54   55 am   BACKBONE|DICT|INTERRES
   111   54  179 1    
   112   55   56 2    
   113   55   57 1    
   114   57   58 1    
   115   57   59 1    
   116   57  180 1    
   117   58  181 1    
   118   58  182 1    
   119   58  183 1    
   120   59   60 am   BACKBONE|DICT|INTERRES
   121   59  184 1    
   122   60   61 2    
   123   60   62 1    
   124   62   63 1    
   125   62   64 1    
   126   62  185 1    
   127   63  186 1    
   128   63  187 1    
   129   63  188 1    
   130   64   65 am   BACKBONE|DICT|INTERRES
   131   64  189 1    
   132   65   66 2    
   133   67   68 2    
   134   67   69 am   BACKBONE|DICT|INTERRES
   135   69   70 1    
   136   69  190 1    
   137   70   71 1    
   138   70   72 1    
   139   70  191 1    
   140   71  192 1    
   141   71  193 1    
   142   71  194 1    
   143   72   73 2    
   144   72   74 am   BACKBONE|DICT|INTERRES
   145   74   75 1    
   146   74  195 1    
   147   75   76 1    
   148   75   77 1    
   149   75  196 1    
   150   76  197 1    
   151   76  198 1    
   152   76  199 1    
   153   77   78 2    
   154   77   79 am   BACKBONE|DICT|INTERRES
   155   79   80 1    
   156   79  200 1    
   157   80   81 1    
   158   80   82 1    
   159   80  201 1    
   160   81  202 1    
   161   81  203 1    
   162   81  204 1    
   163   82   83 2    
   164   82   84 am   BACKBONE|DICT|INTERRES
   165   84   85 1    
   166   84  205 1    
   167   85   86 1    
   168   85   87 1    
   169   85  206 1    
   170   86  207 1    
   171   86  208 1    
   172   86  209 1    
   173   87   88 2    
   174   87   89 am   BACKBONE|DICT|INTERRES
   175   89   90 1    
   176   89  210 1    
   177   90   91 1    
   178   90   92 1    
   179   90  211 1    
   180   91  212 1    
   181   91  213 1    
   182   91  214 1    
   183   92   93 2    
   184   92   94 am   BACKBONE|DICT|INTERRES
   185   94   95 1    
   186   94  215 1    
   187   95   96 1    
   188   95   97 1    
   189   95  216 1    
   190   96  217 1    
   191   96  218 1    
   192   96  219 1    
   193   97   98 2    
   194   97   99 am   BACKBONE|DICT|INTERRES
   195   99  100 1    
   196   99  220 1    
   197  100  101 1    
   198  100  102 1    
   199  100  221 1    
   200  101  222 1    
   201  101  223 1    
   202  101  224 1    
   203  102  103 2    
   204  102  104 am   BACKBONE|DICT|INTERRES
   205  104  105 1    
   206  104  225 1    
   207  105  106 1    
   208  105  107 1    
   209  105  226 1    
   210  106  227 1    
   211  106  228 1    
   212  106  229 1    
   213  107  108 2    
   214  107  109 am   BACKBONE|DICT|INTERRES
   215  109  110 1    
   216  109  230 1    
   217  110  111 1    
   218  110  112 1    
   219  110  231 1    
   220  111  232 1    
   221  111  233 1    
   222  111  234 1    
   223  112  113 2    
   224  112  114 am   BACKBONE|DICT|INTERRES
   225  114  115 1    
   226  114  235 1    
   227  115  116 1    
   228  115  117 1    
   229  115  236 1    
   230  116  237 1    
   231  116  238 1    
   232  116  239 1    
   233  117  118 2    
   234  117  119 am   BACKBONE|DICT|INTERRES
   235  119  120 1    
   236  119  240 1    
   237  120  121 1    
   238  120  124 1    
   239  120  241 1    
   240  121  122 am   BACKBONE|DICT|INTERRES
   241  121  123 2    
   242  122  242 1    
   243  122  243 1    
   244  124  125 1    
   245  124  244 1    
   246  124  245 1    
   247  125  126 1    
   248  126  246 1    
   249  126  247 1    
@<TRIPOS>SUBSTRUCTURE
     1 UNK         1 GROUP             0       ****    0 ROOT    
