@<TRIPOS>MOLECULE
3R540
247   249    1
SMALL
USER_CHARGES


@<TRIPOS>ATOM
      1 CA          1.8886  -13.9965  -40.9096 C.3       0 UNK        -0.1800 
      2 C           0.3984  -13.8439  -41.1806 C.2       0 UNK         0.5000 
      3 O          -0.4184  -14.2660  -40.3629 O.2       0 UNK        -0.5000 
      4 N           0.0454  -13.2486  -42.3243 N.am      1 UNK        -0.5000 
      5 CA         -1.3308  -13.0039  -42.7594 C.3       1 UNK         0.1400 
      6 C6         -2.0812  -14.3008  -43.1665 C.3       23 UNK        -0.0398 
      7 S7         -3.8890  -14.0681  -43.2590 S.3       23 UNK        -0.2404 
      8 C8         -4.1726  -14.0330  -45.0597 C.3       23 UNK        -0.0205 
      9 C9         -3.8942  -15.3791  -45.7115 C.ar      23 UNK        -0.0193 
     10 C10        -2.8488  -15.5229  -46.6293 C.ar      23 UNK        -0.1150 
     11 C11        -2.5954  -16.7607  -47.2275 C.ar      23 UNK        -0.0193 
     12 C12        -3.3843  -17.8626  -46.8868 C.ar      23 UNK        -0.1150 
     13 C13        -4.4351  -17.7282  -45.9756 C.ar      23 UNK        -0.0193 
     14 C14        -4.6912  -16.4832  -45.3987 C.ar      23 UNK        -0.1150 
     15 C15        -5.2859  -18.9305  -45.6031 C.3       23 UNK        -0.0205 
     16 S16        -4.8480  -19.6044  -43.9656 S.3       23 UNK        -0.2404 
     17 C17        -3.0479  -19.8786  -44.1090 C.3       23 UNK        -0.0398 
     18 CA         -2.6840  -21.0481  -45.0538 C.3       11 UNK         0.1400 
     19 N          -1.3354  -20.9082  -45.6145 N.am      11 UNK        -0.5000 
     20 C          -0.8029  -21.7087  -46.5492 C.2       10 UNK         0.5000 
     21 O          -1.4201  -22.6199  -47.0973 O.2       10 UNK        -0.5000 
     22 CA          0.6785  -21.5018  -46.8949 C.3       10 UNK         0.1400 
     23 CB          0.8537  -20.4342  -47.9822 C.3       10 UNK        -0.1800 
     24 N           1.4586  -21.1635  -45.7049 N.am      10 UNK        -0.5000 
     25 C           1.7967  -22.0590  -44.7648 C.2       9 UNK         0.5000 
     26 O           1.5946  -23.2682  -44.8726 O.2       9 UNK        -0.5000 
     27 CA          2.4143  -21.5115  -43.4653 C.3       9 UNK         0.1400 
     28 CB          3.9468  -21.4857  -43.5505 C.3       9 UNK        -0.1800 
     29 N           1.9069  -20.1792  -43.1264 N.am      9 UNK        -0.5000 
     30 C           0.6682  -19.9578  -42.6605 C.2       8 UNK         0.5000 
     31 O          -0.1467  -20.8572  -42.4565 O.2       8 UNK        -0.5000 
     32 CA          0.2406  -18.4960  -42.4221 C.3       8 UNK         0.1400 
     33 CB          0.5283  -18.0797  -40.9727 C.3       8 UNK        -0.1800 
     34 N           0.8699  -17.5371  -43.3293 N.am      8 UNK        -0.5000 
     35 C           0.7456  -17.5335  -44.6630 C.2       7 UNK         0.5000 
     36 O           0.0694  -18.3581  -45.2803 O.2       7 UNK        -0.5000 
     37 CA          1.5425  -16.4639  -45.4425 C.3       7 UNK         0.1400 
     38 CB          2.3270  -15.4884  -44.5350 C.3       7 UNK        -0.1800 
     39 N           2.4545  -17.0645  -46.4195 N.am      7 UNK        -0.5000 
     40 C           3.4252  -17.9575  -46.1637 C.2       6 UNK         0.5000 
     41 O           3.6315  -18.4303  -45.0448 O.2       6 UNK        -0.5000 
     42 CA          4.3015  -18.4067  -47.3490 C.3       6 UNK         0.1400 
     43 CB          4.7701  -19.8669  -47.2124 C.3       6 UNK        -0.1800 
     44 N           3.5831  -18.2517  -48.6120 N.am      6 UNK        -0.5000 
     45 C           3.9796  -17.5100  -49.6509 C.2       5 UNK         0.5000 
     46 O           5.0542  -16.9094  -49.7005 O.2       5 UNK        -0.5000 
     47 CA          3.0014  -17.4024  -50.8397 C.3       5 UNK         0.1400 
     48 CB          1.8069  -18.3796  -50.7719 C.3       5 UNK        -0.1800 
     49 N           2.5106  -16.0348  -51.0277 N.am      5 UNK        -0.5000 
     50 C           1.9150  -15.2532  -50.1153 C.2       4 UNK         0.5000 
     51 O           1.6999  -15.5832  -48.9451 O.2       4 UNK        -0.5000 
     52 CA          1.4301  -13.8850  -50.6302 C.3       4 UNK         0.1400 
     53 CB         -0.0715  -13.9387  -50.9480 C.3       4 UNK        -0.1800 
     54 N           1.6703  -12.8042  -49.6777 N.am      4 UNK        -0.5000 
     55 C           2.8747  -12.3510  -49.3048 C.2       3 UNK         0.5000 
     56 O           3.9354  -12.7844  -49.7570 O.2       3 UNK        -0.5000 
     57 CA          2.9079  -11.1957  -48.2801 C.3       3 UNK         0.1400 
     58 CB          3.3416   -9.8866  -48.9595 C.3       3 UNK        -0.1800 
     59 N           1.6302  -10.9667  -47.5958 N.am      3 UNK        -0.5000 
     60 C           1.1234  -11.7740  -46.6575 C.2       2 UNK         0.5000 
     61 O           1.6824  -12.8003  -46.2654 O.2       2 UNK        -0.5000 
     62 CA         -0.2426  -11.3850  -46.0759 C.3       2 UNK         0.1400 
     63 CB         -1.3639  -11.5687  -47.1163 C.3       2 UNK        -0.1800 
     64 N          -0.4897  -12.2373  -44.9192 N.am      2 UNK        -0.5000 
     65 C          -1.3062  -11.9668  -43.8951 C.2       1 UNK         0.5000 
     66 O          -1.9854  -10.9432  -43.8108 O.2       1 UNK        -0.5000 
     67 C          -2.8959  -22.4166  -44.3740 C.2       11 UNK         0.5000 
     68 O          -3.9009  -23.0772  -44.6377 O.2       11 UNK        -0.5000 
     69 N          -1.9059  -22.8547  -43.5827 N.am      12 UNK        -0.5000 
     70 CA         -1.8481  -24.1793  -42.9564 C.3       12 UNK         0.1400 
     71 CB         -0.6375  -24.2332  -42.0127 C.3       12 UNK        -0.1800 
     72 C          -1.7979  -25.3438  -43.9687 C.2       12 UNK         0.5000 
     73 O          -2.2209  -26.4517  -43.6387 O.2       12 UNK        -0.5000 
     74 N          -1.3208  -25.0630  -45.1879 N.am      13 UNK        -0.5000 
     75 CA         -1.3072  -25.9687  -46.3348 C.3       13 UNK         0.1400 
     76 CB          0.0096  -25.7657  -47.1062 C.3       13 UNK        -0.1800 
     77 C          -2.5386  -25.7751  -47.2473 C.2       13 UNK         0.5000 
     78 O          -2.4921  -26.1896  -48.4046 O.2       13 UNK        -0.5000 
     79 N          -3.6089  -25.1462  -46.7357 N.am      14 UNK        -0.5000 
     80 CA         -4.8825  -24.8622  -47.4082 C.3       14 UNK         0.1400 
     81 CB         -5.6173  -26.1681  -47.7792 C.3       14 UNK        -0.1800 
     82 C          -4.7182  -23.8994  -48.6007 C.2       14 UNK         0.5000 
     83 O          -5.1879  -24.1852  -49.7025 O.2       14 UNK        -0.5000 
     84 N          -4.0178  -22.7835  -48.3539 N.am      15 UNK        -0.5000 
     85 CA         -3.6308  -21.7466  -49.3187 C.3       15 UNK         0.1400 
     86 CB         -4.8634  -20.9880  -49.8439 C.3       15 UNK        -0.1800 
     87 C          -2.7372  -22.3202  -50.4362 C.2       15 UNK         0.5000 
     88 O          -2.9825  -22.0826  -51.6238 O.2       15 UNK        -0.5000 
     89 N          -1.7376  -23.1017  -49.9986 N.am      16 UNK        -0.5000 
     90 CA         -0.7880  -23.8815  -50.7958 C.3       16 UNK         0.1400 
     91 CB          0.1816  -22.9430  -51.5429 C.3       16 UNK        -0.1800 
     92 C          -1.5084  -24.8753  -51.7287 C.2       16 UNK         0.5000 
     93 O          -1.3330  -24.8184  -52.9448 O.2       16 UNK        -0.5000 
     94 N          -2.3608  -25.7288  -51.1421 N.am      17 UNK        -0.5000 
     95 CA         -3.2492  -26.6934  -51.8047 C.3       17 UNK         0.1400 
     96 CB         -2.4295  -27.8529  -52.4069 C.3       17 UNK        -0.1800 
     97 C          -4.1952  -26.0280  -52.8291 C.2       17 UNK         0.5000 
     98 O          -4.4520  -26.5863  -53.8971 O.2       17 UNK        -0.5000 
     99 N          -4.6535  -24.8161  -52.4864 N.am      18 UNK        -0.5000 
    100 CA        -5.4381  -23.8756  -53.2877 C.3       18 UNK         0.1400 
    101 CB        -6.8408  -24.4459  -53.5795 C.3       18 UNK        -0.1800 
    102 C         -4.7315  -23.3643  -54.5642 C.2       18 UNK         0.5000 
    103 O         -5.3950  -22.7566  -55.4055 O.2       18 UNK        -0.5000 
    104 N         -3.4145  -23.5864  -54.7020 N.am      19 UNK        -0.5000 
    105 CA        -2.6285  -23.1163  -55.8442 C.3       19 UNK         0.1400 
    106 CB        -1.3532  -23.9587  -55.9969 C.3       19 UNK        -0.1800 
    107 C         -2.2806  -21.6242  -55.7242 C.2       19 UNK         0.5000 
    108 O         -2.2405  -20.9350  -56.7444 O.2       19 UNK        -0.5000 
    109 N         -2.0537  -21.1458  -54.4914 N.am      20 UNK        -0.5000 
    110 CA        -1.8718  -19.7229  -54.2061 C.3       20 UNK         0.1400 
    111 CB        -1.0377  -19.5354  -52.9307 C.3       20 UNK        -0.1800 
    112 C         -3.2301  -19.0182  -54.0786 C.2       20 UNK         0.5000 
    113 O         -3.3910  -17.9163  -54.6035 O.2       20 UNK        -0.5000 
    114 N         -4.1767  -19.6794  -53.3905 N.am      21 UNK        -0.5000 
    115 CA        -5.5618  -19.2461  -53.1522 C.3       21 UNK         0.1400 
    116 CB        -6.3600  -19.2319  -54.4721 C.3       21 UNK        -0.1800 
    117 C         -5.6744  -17.9129  -52.3752 C.2       21 UNK         0.5000 
    118 O         -6.6743  -17.2046  -52.5020 O.2       21 UNK        -0.5000 
    119 N         -4.6423  -17.5993  -51.5832 N.am      22 UNK        -0.5000 
    120 CA        -4.5062  -16.3787  -50.7759 C.3       22 UNK         0.1400 
    121 C         -5.4153  -16.3008  -49.5146 C.2       22 UNK         0.5000 
    122 N         -6.0850  -17.3721  -49.1063 N.am      22 UNK        -0.7600 
    123 O         -5.5461  -15.2340  -48.9215 O.2       22 UNK        -0.5000 
    124 C124       -3.0149  -16.0717  -50.4654 C.3       23 UNK        -0.0398 
    125 S125       -2.0475  -17.5029  -49.8549 S.3       23 UNK        -0.2404 
    126 C126       -1.4644  -16.9125  -48.2327 C.3       23 UNK        -0.0205 
    127 H127        2.4938  -13.5821  -41.7164 H         1 UNK         0.0600 
    128 H128        2.1437  -15.0507  -40.8007 H         1 UNK         0.0600 
    129 H129        2.1562  -13.4832  -39.9861 H         1 UNK         0.0600 
    130 H130        0.7614  -12.8536  -42.9184 H         1 UNK         0.3000 
    131 H131       -1.8572  -12.5478  -41.9178 H         1 UNK         0.0600 
    132 H132       -1.6927  -14.7087  -44.1002 H         1 UNK         0.0800 
    133 H133       -1.9143  -15.0806  -42.4232 H         1 UNK         0.0800 
    134 H134       -5.2117  -13.7598  -45.2476 H         1 UNK         0.0800 
    135 H135       -3.5651  -13.2469  -45.5094 H         1 UNK         0.0800 
    136 H136       -2.2352  -14.6709  -46.8808 H         1 UNK         0.1150 
    137 H137       -3.1804  -18.8225  -47.3388 H         1 UNK         0.1150 
    138 H138       -5.4996  -16.3771  -44.6891 H         1 UNK         0.1150 
    139 H139       -6.3367  -18.6379  -45.5909 H         1 UNK         0.0800 
    140 H140       -5.2037  -19.7108  -46.3606 H         1 UNK         0.0800 
    141 H141       -2.6487  -20.0442  -43.1074 H         1 UNK         0.0800 
    142 H142       -2.5842  -18.9518  -44.4470 H         1 UNK         0.0800 
    143 H143       -3.3552  -21.0167  -45.9126 H         1 UNK         0.0600 
    144 H144       -0.7783  -20.1292  -45.2771 H         1 UNK         0.3000 
    145 H145        1.0495  -22.4450  -47.3017 H         1 UNK         0.0600 
    146 H146        1.8604  -20.4730  -48.3942 H         1 UNK         0.0600 
    147 H147        0.1628  -20.5965  -48.8113 H         1 UNK         0.0600 
    148 H148        0.6791  -19.4303  -47.5998 H         1 UNK         0.0600 
    149 H149        1.6103  -20.1826  -45.5144 H         1 UNK         0.3000 
    150 H150        2.1403  -22.1952  -42.6586 H         1 UNK         0.0600 
    151 H151        4.3420  -22.4867  -43.7281 H         1 UNK         0.0600 
    152 H152        4.3882  -21.1216  -42.6228 H         1 UNK         0.0600 
    153 H153        4.2981  -20.8500  -44.3615 H         1 UNK         0.0600 
    154 H154        2.5107  -19.3933  -43.3360 H         1 UNK         0.3000 
    155 H155       -0.8374  -18.4388  -42.5820 H         1 UNK         0.0600 
    156 H156        0.0593  -18.7679  -40.2680 H         1 UNK         0.0600 
    157 H157        0.1344  -17.0853  -40.7623 H         1 UNK         0.0600 
    158 H158        1.5981  -18.0705  -40.7605 H         1 UNK         0.0600 
    159 H159        1.4801  -16.8540  -42.9067 H         1 UNK         0.3000 
    160 H160        0.8145  -15.8848  -46.0128 H         1 UNK         0.0600 
    161 H161        3.0328  -16.0015  -43.8807 H         1 UNK         0.0600 
    162 H162        1.6520  -14.9033  -43.9128 H         1 UNK         0.0600 
    163 H163        2.9049  -14.7835  -45.1316 H         1 UNK         0.0600 
    164 H164        2.3452  -16.7198  -47.3689 H         1 UNK         0.3000 
    165 H165        5.1849  -17.7657  -47.3330 H         1 UNK         0.0600 
    166 H166        5.3525  -20.1759  -48.0804 H         1 UNK         0.0600 
    167 H167        5.4093  -19.9914  -46.3380 H         1 UNK         0.0600 
    168 H168        3.9319  -20.5558  -47.1094 H         1 UNK         0.0600 
    169 H169        2.6701  -18.6789  -48.6579 H         1 UNK         0.3000 
    170 H170        3.5796  -17.6522  -51.7306 H         1 UNK         0.0600 
    171 H171        1.1424  -18.1678  -49.9335 H         1 UNK         0.0600 
    172 H172        1.2128  -18.3076  -51.6806 H         1 UNK         0.0600 
    173 H173        2.1403  -19.4150  -50.6931 H         1 UNK         0.0600 
    174 H174        2.6609  -15.6535  -51.9509 H         1 UNK         0.3000 
    175 H175        1.9676  -13.6430  -51.5495 H         1 UNK         0.0600 
    176 H176       -0.6631  -14.1278  -50.0518 H         1 UNK         0.0600 
    177 H177       -0.4173  -13.0031  -51.3877 H         1 UNK         0.0600 
    178 H178       -0.2901  -14.7337  -51.6621 H         1 UNK         0.0600 
    179 H179        0.8580  -12.4048  -49.2347 H         1 UNK         0.3000 
    180 H180        3.6584  -11.4530  -47.5294 H         1 UNK         0.0600 
    181 H181        2.6250   -9.5713  -49.7190 H         1 UNK         0.0600 
    182 H182        4.3096  -10.0007  -49.4492 H         1 UNK         0.0600 
    183 H183        3.4409   -9.0790  -48.2340 H         1 UNK         0.0600 
    184 H184        1.1153  -10.1419  -47.8696 H         1 UNK         0.3000 
    185 H185       -0.1970  -10.3418  -45.7564 H         1 UNK         0.0600 
    186 H186       -1.3925  -12.5881  -47.5013 H         1 UNK         0.0600 
    187 H187       -2.3418  -11.3430  -46.6912 H         1 UNK         0.0600 
    188 H188       -1.2246  -10.9016  -47.9674 H         1 UNK         0.0600 
    189 H189        0.0844  -13.0709  -44.9184 H         1 UNK         0.3000 
    190 H190       -1.1401  -22.2218  -43.3668 H         1 UNK         0.3000 
    191 H191       -2.7540  -24.3034  -42.3597 H         1 UNK         0.0600 
    192 H192        0.2994  -24.0999  -42.5542 H         1 UNK         0.0600 
    193 H193       -0.6965  -23.4566  -41.2497 H         1 UNK         0.0600 
    194 H194       -0.5853  -25.1928  -41.4967 H         1 UNK         0.0600 
    195 H195       -1.0116  -24.1187  -45.3747 H         1 UNK         0.3000 
    196 H196       -1.3316  -27.0027  -45.9858 H         1 UNK         0.0600 
    197 H197        0.8721  -25.8934  -46.4518 H         1 UNK         0.0600 
    198 H198        0.0720  -24.7713  -47.5468 H         1 UNK         0.0600 
    199 H199        0.1087  -26.4900  -47.9155 H         1 UNK         0.0600 
    200 H200       -3.5353  -24.7740  -45.7959 H         1 UNK         0.3000 
    201 H201       -5.5013  -24.3375  -46.6789 H         1 UNK         0.0600 
    202 H202       -6.6159  -25.9560  -48.1629 H         1 UNK         0.0600 
    203 H203       -5.7347  -26.8147  -46.9097 H         1 UNK         0.0600 
    204 H204       -5.0883  -26.7320  -48.5479 H         1 UNK         0.0600 
    205 H205       -3.5750  -22.7114  -47.4471 H         1 UNK         0.3000 
    206 H206       -3.0160  -21.0281  -48.7747 H         1 UNK         0.0600 
    207 H207       -5.4700  -20.6070  -49.0225 H         1 UNK         0.0600 
    208 H208       -5.4978  -21.6178  -50.4679 H         1 UNK         0.0600 
    209 H209       -4.5522  -20.1339  -50.4416 H         1 UNK         0.0600 
    210 H210       -1.6535  -23.2073  -48.9926 H         1 UNK         0.3000 
    211 H211       -0.2025  -24.4774  -50.0945 H         1 UNK         0.0600 
    212 H212        0.6759  -22.2561  -50.8560 H         1 UNK         0.0600 
    213 H213        0.9599  -23.5132  -52.0509 H         1 UNK         0.0600 
    214 H214       -0.3315  -22.3497  -52.2989 H         1 UNK         0.0600 
    215 H215       -2.4296  -25.7236  -50.1247 H         1 UNK         0.3000 
    216 H216       -3.8877  -27.1069  -51.0227 H         1 UNK         0.0600 
    217 H217       -3.0834  -28.6361  -52.7920 H         1 UNK         0.0600 
    218 H218       -1.7994  -27.5171  -53.2312 H         1 UNK         0.0600 
    219 H219       -1.7849  -28.3098  -51.6561 H         1 UNK         0.0600 
    220 H220       -4.4310  -24.4840  -51.5530 H         1 UNK         0.3000 
    221 H221       -5.5694  -22.9969  -52.6549 H         1 UNK         0.0600 
    222 H222       -6.7992  -25.2927  -54.2649 H         1 UNK         0.0600 
    223 H223       -7.3284  -24.7782  -52.6630 H         1 UNK         0.0600 
    224 H224       -7.4855  -23.6915  -54.0318 H         1 UNK         0.0600 
    225 H225       -2.9082  -24.0838  -53.9759 H         1 UNK         0.3000 
    226 H226       -3.2218  -23.2521  -56.7511 H         1 UNK         0.0600 
    227 H227       -1.5785  -25.0253  -55.9981 H         1 UNK         0.0600 
    228 H228       -0.8505  -23.7293  -56.9371 H         1 UNK         0.0600 
    229 H229       -0.6401  -23.7646  -55.1955 H         1 UNK         0.0600 
    230 H230       -2.1379  -21.7686  -53.6972 H         1 UNK         0.3000 
    231 H231       -1.3246  -19.2552  -55.0276 H         1 UNK         0.0600 
    232 H232       -0.8896  -18.4745  -52.7259 H         1 UNK         0.0600 
    233 H233       -0.0523  -19.9891  -53.0351 H         1 UNK         0.0600 
    234 H234       -1.5163  -19.9681  -52.0533 H         1 UNK         0.0600 
    235 H235       -3.9148  -20.5651  -52.9742 H         1 UNK         0.3000 
    236 H236       -6.0107  -20.0062  -52.5120 H         1 UNK         0.0600 
    237 H237       -6.2723  -20.1831  -54.9965 H         1 UNK         0.0600 
    238 H238       -7.4215  -19.0630  -54.2876 H         1 UNK         0.0600 
    239 H239       -6.0162  -18.4459  -55.1450 H         1 UNK         0.0600 
    240 H240       -3.8573  -18.2316  -51.5388 H         1 UNK         0.3000 
    241 H241       -4.8570  -15.5590  -51.4061 H         1 UNK         0.0600 
    242 H242       -6.6773  -17.2973  -48.2960 H         1 UNK         0.3800 
    243 H243       -6.0096  -18.2431  -49.6017 H         1 UNK         0.3800 
    244 H244       -2.5328  -15.7394  -51.3851 H         1 UNK         0.0800 
    245 H245       -2.9242  -15.2320  -49.7743 H         1 UNK         0.0800 
    246 H246       -0.9270  -15.9728  -48.3640 H         1 UNK         0.0800 
    247 H247       -0.7403  -17.6233  -47.8374 H         1 UNK         0.0800 
@<TRIPOS>BOND
     1    1    2 1    
     2    1  127 1    
     3    1  128 1    
     4    1  129 1    
     5    2    3 2    
     6    2    4 am   BACKBONE|DICT|INTERRES
     7    4    5 1    
     8    4  130 1    
     9    5    6 1    
    10    5   65 1    
    11    5  131 1    
    12    6    7 1    
    13    6  132 1    
    14    6  133 1    
    15    7    8 1    
    16    8    9 1    
    17    8  134 1    
    18    8  135 1    
    19    9   10 ar   
    20    9   14 ar   
    21   10   11 ar   
    22   10  136 1    
    23   11   12 ar   
    24   11  126 1    
    25   12   13 ar   
    26   12  137 1    
    27   13   14 ar   
    28   13   15 1    
    29   14  138 1    
    30   15   16 1    
    31   15  139 1    
    32   15  140 1    
    33   16   17 1    
    34   17   18 1    
    35   17  141 1    
    36   17  142 1    
    37   18   19 1    
    38   18   67 1    
    39   18  143 1    
    40   19   20 am   BACKBONE|DICT|INTERRES
    41   19  144 1    
    42   20   21 2    
    43   20   22 1    
    44   22   23 1    
    45   22   24 1    
    46   22  145 1    
    47   23  146 1    
    48   23  147 1    
    49   23  148 1    
    50   24   25 am   BACKBONE|DICT|INTERRES
    51   24  149 1    
    52   25   26 2    
    53   25   27 1    
    54   27   28 1    
    55   27   29 1    
    56   27  150 1    
    57   28  151 1    
    58   28  152 1    
    59   28  153 1    
    60   29   30 am   BACKBONE|DICT|INTERRES
    61   29  154 1    
    62   30   31 2    
    63   30   32 1    
    64   32   33 1    
    65   32   34 1    
    66   32  155 1    
    67   33  156 1    
    68   33  157 1    
    69   33  158 1    
    70   34   35 am   BACKBONE|DICT|INTERRES
    71   34  159 1    
    72   35   36 2    
    73   35   37 1    
    74   37   38 1    
    75   37   39 1    
    76   37  160 1    
    77   38  161 1    
    78   38  162 1    
    79   38  163 1    
    80   39   40 am   BACKBONE|DICT|INTERRES
    81   39  164 1    
    82   40   41 2    
    83   40   42 1    
    84   42   43 1    
    85   42   44 1    
    86   42  165 1    
    87   43  166 1    
    88   43  167 1    
    89   43  168 1    
    90   44   45 am   BACKBONE|DICT|INTERRES
    91   44  169 1    
    92   45   46 2    
    93   45   47 1    
    94   47   48 1    
    95   47   49 1    
    96   47  170 1    
    97   48  171 1    
    98   48  172 1    
    99   48  173 1    
   100   49   50 am   BACKBONE|DICT|INTERRES
   101   49  174 1    
   102   50   51 2    
   103   50   52 1    
   104   52   53 1    
   105   52   54 1    
   106   52  175 1    
   107   53  176 1    
   108   53  177 1    
   109   53  178 1    
   110   54   55 am   BACKBONE|DICT|INTERRES
   111   54  179 1    
   112   55   56 2    
   113   55   57 1    
   114   57   58 1    
   115   57   59 1    
   116   57  180 1    
   117   58  181 1    
   118   58  182 1    
   119   58  183 1    
   120   59   60 am   BACKBONE|DICT|INTERRES
   121   59  184 1    
   122   60   61 2    
   123   60   62 1    
   124   62   63 1    
   125   62   64 1    
   126   62  185 1    
   127   63  186 1    
   128   63  187 1    
   129   63  188 1    
   130   64   65 am   BACKBONE|DICT|INTERRES
   131   64  189 1    
   132   65   66 2    
   133   67   68 2    
   134   67   69 am   BACKBONE|DICT|INTERRES
   135   69   70 1    
   136   69  190 1    
   137   70   71 1    
   138   70   72 1    
   139   70  191 1    
   140   71  192 1    
   141   71  193 1    
   142   71  194 1    
   143   72   73 2    
   144   72   74 am   BACKBONE|DICT|INTERRES
   145   74   75 1    
   146   74  195 1    
   147   75   76 1    
   148   75   77 1    
   149   75  196 1    
   150   76  197 1    
   151   76  198 1    
   152   76  199 1    
   153   77   78 2    
   154   77   79 am   BACKBONE|DICT|INTERRES
   155   79   80 1    
   156   79  200 1    
   157   80   81 1    
   158   80   82 1    
   159   80  201 1    
   160   81  202 1    
   161   81  203 1    
   162   81  204 1    
   163   82   83 2    
   164   82   84 am   BACKBONE|DICT|INTERRES
   165   84   85 1    
   166   84  205 1    
   167   85   86 1    
   168   85   87 1    
   169   85  206 1    
   170   86  207 1    
   171   86  208 1    
   172   86  209 1    
   173   87   88 2    
   174   87   89 am   BACKBONE|DICT|INTERRES
   175   89   90 1    
   176   89  210 1    
   177   90   91 1    
   178   90   92 1    
   179   90  211 1    
   180   91  212 1    
   181   91  213 1    
   182   91  214 1    
   183   92   93 2    
   184   92   94 am   BACKBONE|DICT|INTERRES
   185   94   95 1    
   186   94  215 1    
   187   95   96 1    
   188   95   97 1    
   189   95  216 1    
   190   96  217 1    
   191   96  218 1    
   192   96  219 1    
   193   97   98 2    
   194   97   99 am   BACKBONE|DICT|INTERRES
   195   99  100 1    
   196   99  220 1    
   197  100  101 1    
   198  100  102 1    
   199  100  221 1    
   200  101  222 1    
   201  101  223 1    
   202  101  224 1    
   203  102  103 2    
   204  102  104 am   BACKBONE|DICT|INTERRES
   205  104  105 1    
   206  104  225 1    
   207  105  106 1    
   208  105  107 1    
   209  105  226 1    
   210  106  227 1    
   211  106  228 1    
   212  106  229 1    
   213  107  108 2    
   214  107  109 am   BACKBONE|DICT|INTERRES
   215  109  110 1    
   216  109  230 1    
   217  110  111 1    
   218  110  112 1    
   219  110  231 1    
   220  111  232 1    
   221  111  233 1    
   222  111  234 1    
   223  112  113 2    
   224  112  114 am   BACKBONE|DICT|INTERRES
   225  114  115 1    
   226  114  235 1    
   227  115  116 1    
   228  115  117 1    
   229  115  236 1    
   230  116  237 1    
   231  116  238 1    
   232  116  239 1    
   233  117  118 2    
   234  117  119 am   BACKBONE|DICT|INTERRES
   235  119  120 1    
   236  119  240 1    
   237  120  121 1    
   238  120  124 1    
   239  120  241 1    
   240  121  122 am   BACKBONE|DICT|INTERRES
   241  121  123 2    
   242  122  242 1    
   243  122  243 1    
   244  124  125 1    
   245  124  244 1    
   246  124  245 1    
   247  125  126 1    
   248  126  246 1    
   249  126  247 1    
@<TRIPOS>SUBSTRUCTURE
     1 UNK         1 GROUP             0       ****    0 ROOT    
