@<TRIPOS>MOLECULE
3R540
247   249    1
SMALL
USER_CHARGES


@<TRIPOS>ATOM
      1 CA          0.3409  -14.5823  -50.3406 C.3       0 UNK        -0.1800 
      2 C           1.8340  -14.6015  -50.0522 C.2       0 UNK         0.5000 
      3 O           2.5459  -13.6706  -50.4290 O.2       0 UNK        -0.5000 
      4 N           2.3087  -15.6682  -49.3981 N.am      1 UNK        -0.5000 
      5 CA          3.7033  -15.8624  -48.9909 C.3       1 UNK         0.1400 
      6 C6          3.9566  -17.2810  -48.4265 C.3       23 UNK        -0.0398 
      7 S7          3.5877  -18.6235  -49.6049 S.3       23 UNK        -0.2404 
      8 C8          2.2117  -19.4758  -48.7695 C.3       23 UNK        -0.0205 
      9 C9          0.8814  -18.7879  -49.0265 C.ar      23 UNK        -0.0193 
     10 C10         0.2135  -19.0046  -50.2342 C.ar      23 UNK        -0.1150 
     11 C11        -1.0164  -18.3955  -50.4897 C.ar      23 UNK        -0.0193 
     12 C12        -1.5794  -17.5613  -49.5204 C.ar      23 UNK        -0.1150 
     13 C13        -0.9116  -17.3172  -48.3173 C.ar      23 UNK        -0.0193 
     14 C14         0.3159  -17.9406  -48.0690 C.ar      23 UNK        -0.1150 
     15 C15        -1.5188  -16.3694  -47.2963 C.3       23 UNK        -0.0205 
     16 S16        -2.9137  -17.1246  -46.4095 S.3       23 UNK        -0.2404 
     17 C17        -2.0474  -18.3768  -45.4105 C.3       23 UNK        -0.0398 
     18 CA         -2.0032  -19.7643  -46.0950 C.3       11 UNK         0.1400 
     19 N          -0.8644  -20.5582  -45.6259 N.am      11 UNK        -0.5000 
     20 C          -0.4906  -21.7542  -46.0998 C.2       10 UNK         0.5000 
     21 O          -1.0577  -22.3272  -47.0284 O.2       10 UNK        -0.5000 
     22 CA          0.6856  -22.4442  -45.3916 C.3       10 UNK         0.1400 
     23 CB          2.0271  -21.9761  -45.9725 C.3       10 UNK        -0.1800 
     24 N           0.6578  -22.1866  -43.9525 N.am      10 UNK        -0.5000 
     25 C          -0.0989  -22.8666  -43.0806 C.2       9 UNK         0.5000 
     26 O          -0.7845  -23.8425  -43.3862 O.2       9 UNK        -0.5000 
     27 CA         -0.1116  -22.3575  -41.6257 C.3       9 UNK         0.1400 
     28 CB          1.0275  -22.9996  -40.8199 C.3       9 UNK        -0.1800 
     29 N          -0.0139  -20.8995  -41.5195 N.am      9 UNK        -0.5000 
     30 C          -0.9529  -20.0426  -41.9436 C.2       8 UNK         0.5000 
     31 O          -2.0102  -20.3924  -42.4683 O.2       8 UNK        -0.5000 
     32 CA         -0.6397  -18.5398  -41.8030 C.3       8 UNK         0.1400 
     33 CB         -1.0597  -18.0351  -40.4152 C.3       8 UNK        -0.1800 
     34 N           0.7575  -18.1679  -42.0557 N.am      8 UNK        -0.5000 
     35 C           1.4673  -18.4742  -43.1531 C.2       7 UNK         0.5000 
     36 O           1.0523  -19.2205  -44.0402 O.2       7 UNK        -0.5000 
     37 CA          2.8620  -17.8380  -43.2885 C.3       7 UNK         0.1400 
     38 CB          3.2847  -17.6872  -44.7597 C.3       7 UNK        -0.1800 
     39 N           2.8834  -16.5174  -42.6668 N.am      7 UNK        -0.5000 
     40 C           3.7253  -16.1138  -41.7072 C.2       6 UNK         0.5000 
     41 O           4.5845  -16.8378  -41.2037 O.2       6 UNK        -0.5000 
     42 CA          3.5981  -14.6520  -41.2280 C.3       6 UNK         0.1400 
     43 CB          4.7670  -13.8115  -41.7660 C.3       6 UNK        -0.1800 
     44 N           2.3412  -14.0145  -41.6267 N.am      6 UNK        -0.5000 
     45 C           1.1351  -14.3010  -41.1175 C.2       5 UNK         0.5000 
     46 O           0.9571  -15.0939  -40.1935 O.2       5 UNK        -0.5000 
     47 CA         -0.0754  -13.6203  -41.7864 C.3       5 UNK         0.1400 
     48 CB         -0.4655  -12.3455  -41.0244 C.3       5 UNK        -0.1800 
     49 N           0.1581  -13.2823  -43.1937 N.am      5 UNK        -0.5000 
     50 C           0.3475  -14.1652  -44.1823 C.2       4 UNK         0.5000 
     51 O           0.3396  -15.3844  -44.0158 O.2       4 UNK        -0.5000 
     52 CA          0.6641  -13.5938  -45.5742 C.3       4 UNK         0.1400 
     53 CB         -0.5607  -12.9150  -46.2181 C.3       4 UNK        -0.1800 
     54 N           1.8514  -12.7315  -45.5815 N.am      4 UNK        -0.5000 
     55 C           2.0159  -11.5082  -45.0539 C.2       3 UNK         0.5000 
     56 O           1.1201  -10.8990  -44.4673 O.2       3 UNK        -0.5000 
     57 CA          3.4179  -10.8666  -45.1471 C.3       3 UNK         0.1400 
     58 CB          3.8991  -10.3977  -43.7633 C.3       3 UNK        -0.1800 
     59 N           4.4280  -11.7681  -45.7063 N.am      3 UNK        -0.5000 
     60 C           4.6982  -11.9167  -47.0092 C.2       2 UNK         0.5000 
     61 O           4.1453  -11.2673  -47.8980 O.2       2 UNK        -0.5000 
     62 CA          5.7476  -12.9841  -47.3950 C.3       2 UNK         0.1400 
     63 CB          6.4835  -13.6155  -46.1893 C.3       2 UNK        -0.1800 
     64 N           5.1698  -14.0355  -48.2397 N.am      2 UNK        -0.5000 
     65 C           4.1174  -14.8110  -47.9409 C.2       1 UNK         0.5000 
     66 O           3.4921  -14.7428  -46.8803 O.2       1 UNK        -0.5000 
     67 C          -3.3432  -20.5123  -45.9519 C.2       11 UNK         0.5000 
     68 O          -4.1600  -20.4776  -46.8718 O.2       11 UNK        -0.5000 
     69 N          -3.5073  -21.2449  -44.8413 N.am      12 UNK        -0.5000 
     70 CA         -4.6492  -22.1189  -44.5586 C.3       12 UNK         0.1400 
     71 CB         -4.4942  -22.6858  -43.1391 C.3       12 UNK        -0.1800 
     72 C          -4.8465  -23.2640  -45.5765 C.2       12 UNK         0.5000 
     73 O          -5.9572  -23.7842  -45.6836 O.2       12 UNK        -0.5000 
     74 N          -3.7817  -23.6265  -46.3033 N.am      13 UNK        -0.5000 
     75 CA         -3.7843  -24.6183  -47.3770 C.3       13 UNK         0.1400 
     76 CB         -2.6615  -25.6312  -47.0945 C.3       13 UNK        -0.1800 
     77 C          -3.5876  -23.9743  -48.7633 C.2       13 UNK         0.5000 
     78 O          -3.4845  -24.7136  -49.7425 O.2       13 UNK        -0.5000 
     79 N          -3.4980  -22.6337  -48.8293 N.am      14 UNK        -0.5000 
     80 CA         -3.1366  -21.8137  -49.9938 C.3       14 UNK         0.1400 
     81 CB         -4.3308  -21.7024  -50.9603 C.3       14 UNK        -0.1800 
     82 C          -1.8478  -22.3197  -50.6766 C.2       14 UNK         0.5000 
     83 O          -1.8474  -22.5998  -51.8779 O.2       14 UNK        -0.5000 
     84 N          -0.8087  -22.5314  -49.8552 N.am      15 UNK        -0.5000 
     85 CA          0.4095  -23.3070  -50.1091 C.3       15 UNK         0.1400 
     86 CB          1.2421  -22.7526  -51.2838 C.3       15 UNK        -0.1800 
     87 C           0.0923  -24.8053  -50.2688 C.2       15 UNK         0.5000 
     88 O           0.4331  -25.5965  -49.3890 O.2       15 UNK        -0.5000 
     89 N          -0.5816  -25.1531  -51.3692 N.am      16 UNK        -0.5000 
     90 CA         -1.1043  -26.4864  -51.6619 C.3       16 UNK         0.1400 
     91 CB          0.0058  -27.3463  -52.2959 C.3       16 UNK        -0.1800 
     92 C          -2.3672  -26.4394  -52.5475 C.2       16 UNK         0.5000 
     93 O          -2.8389  -27.4961  -52.9702 O.2       16 UNK        -0.5000 
     94 N          -2.8951  -25.2399  -52.8368 N.am      17 UNK        -0.5000 
     95 CA         -4.0320  -25.0288  -53.7370 C.3       17 UNK         0.1400 
     96 CB         -3.8628  -23.6586  -54.4085 C.3       17 UNK        -0.1800 
     97 C          -5.4037  -25.1226  -53.0381 C.2       17 UNK         0.5000 
     98 O          -6.4253  -24.9412  -53.7043 O.2       17 UNK        -0.5000 
     99 N          -5.4145  -25.3483  -51.7164 N.am      18 UNK        -0.5000 
    100 CA        -6.5519  -25.3935  -50.7895 C.3       18 UNK         0.1400 
    101 CB        -7.5675  -26.4884  -51.1717 C.3       18 UNK        -0.1800 
    102 C         -7.2200  -24.0195  -50.6030 C.2       18 UNK         0.5000 
    103 O         -7.2152  -23.4837  -49.4952 O.2       18 UNK        -0.5000 
    104 N         -7.7511  -23.4704  -51.6980 N.am      19 UNK        -0.5000 
    105 CA        -8.3585  -22.1448  -51.7917 C.3       19 UNK         0.1400 
    106 CB        -9.8011  -22.1970  -51.2527 C.3       19 UNK        -0.1800 
    107 C         -8.3145  -21.5828  -53.2278 C.2       19 UNK         0.5000 
    108 O         -8.8246  -20.4846  -53.4516 O.2       19 UNK        -0.5000 
    109 N         -7.7364  -22.3252  -54.1870 N.am      20 UNK        -0.5000 
    110 CA        -7.7286  -21.9692  -55.6091 C.3       20 UNK         0.1400 
    111 CB        -7.5886  -23.2548  -56.4412 C.3       20 UNK        -0.1800 
    112 C         -6.6480  -20.9391  -55.9984 C.2       20 UNK         0.5000 
    113 O         -6.6689  -20.4596  -57.1332 O.2       20 UNK        -0.5000 
    114 N         -5.7317  -20.6160  -55.0773 N.am      21 UNK        -0.5000 
    115 CA        -4.6825  -19.6140  -55.2533 C.3       21 UNK         0.1400 
    116 CB        -3.3064  -20.2879  -55.1250 C.3       21 UNK        -0.1800 
    117 C         -4.8274  -18.5157  -54.1921 C.2       21 UNK         0.5000 
    118 O         -5.3273  -18.7786  -53.0958 O.2       21 UNK        -0.5000 
    119 N         -4.3361  -17.3196  -54.5362 N.am      22 UNK        -0.5000 
    120 CA        -4.2127  -16.1335  -53.6667 C.3       22 UNK         0.1400 
    121 C         -5.5599  -15.4459  -53.2856 C.2       22 UNK         0.5000 
    122 N         -6.6736  -15.7643  -53.9335 N.am      22 UNK        -0.7600 
    123 O         -5.5948  -14.5834  -52.4120 O.2       22 UNK        -0.5000 
    124 C124       -3.2970  -16.3638  -52.4293 C.3       23 UNK        -0.0398 
    125 S125       -1.6920  -17.1334  -52.8562 S.3       23 UNK        -0.2404 
    126 C126       -1.7197  -18.6301  -51.8184 C.3       23 UNK        -0.0205 
    127 H127        0.0145  -15.5430  -50.7371 H         1 UNK         0.0600 
    128 H128        0.0983  -13.8168  -51.0779 H         1 UNK         0.0600 
    129 H129       -0.2190  -14.3700  -49.4302 H         1 UNK         0.0600 
    130 H130        1.6742  -16.4111  -49.1398 H         1 UNK         0.3000 
    131 H131        4.3256  -15.7358  -49.8792 H         1 UNK         0.0600 
    132 H132        3.3746  -17.4319  -47.5187 H         1 UNK         0.0800 
    133 H133        5.0022  -17.3891  -48.1325 H         1 UNK         0.0800 
    134 H134        2.4109  -19.5460  -47.7003 H         1 UNK         0.0800 
    135 H135        2.1621  -20.5029  -49.1318 H         1 UNK         0.0800 
    136 H136        0.6583  -19.6437  -50.9825 H         1 UNK         0.1150 
    137 H137       -2.5297  -17.0829  -49.7065 H         1 UNK         0.1150 
    138 H138        0.8278  -17.7680  -47.1321 H         1 UNK         0.1150 
    139 H139       -0.7677  -16.0451  -46.5769 H         1 UNK         0.0800 
    140 H140       -1.8701  -15.4708  -47.8049 H         1 UNK         0.0800 
    141 H141       -2.5310  -18.4354  -44.4348 H         1 UNK         0.0800 
    142 H142       -1.0380  -18.0122  -45.2163 H         1 UNK         0.0800 
    143 H143       -1.8408  -19.6244  -47.1646 H         1 UNK         0.0600 
    144 H144       -0.2871  -20.1341  -44.9041 H         1 UNK         0.3000 
    145 H145        0.5984  -23.5183  -45.5700 H         1 UNK         0.0600 
    146 H146        2.8581  -22.5252  -45.5301 H         1 UNK         0.0600 
    147 H147        2.1966  -20.9150  -45.7919 H         1 UNK         0.0600 
    148 H148        2.0659  -22.1407  -47.0498 H         1 UNK         0.0600 
    149 H149        1.1357  -21.3530  -43.6358 H         1 UNK         0.3000 
    150 H150       -1.0601  -22.6637  -41.1791 H         1 UNK         0.0600 
    151 H151        0.9693  -24.0881  -40.8609 H         1 UNK         0.0600 
    152 H152        0.9784  -22.7124  -39.7694 H         1 UNK         0.0600 
    153 H153        2.0063  -22.7085  -41.2032 H         1 UNK         0.0600 
    154 H154        0.8293  -20.5250  -41.1101 H         1 UNK         0.3000 
    155 H155       -1.2429  -18.0118  -42.5421 H         1 UNK         0.0600 
    156 H156       -2.0903  -18.3140  -40.1909 H         1 UNK         0.0600 
    157 H157       -1.0028  -16.9485  -40.3577 H         1 UNK         0.0600 
    158 H158       -0.4278  -18.4478  -39.6279 H         1 UNK         0.0600 
    159 H159        1.1776  -17.5404  -41.3847 H         1 UNK         0.3000 
    160 H160        3.5634  -18.5127  -42.7945 H         1 UNK         0.0600 
    161 H161        4.2679  -17.2240  -44.8438 H         1 UNK         0.0600 
    162 H162        3.3384  -18.6553  -45.2587 H         1 UNK         0.0600 
    163 H163        2.5762  -17.0661  -45.3096 H         1 UNK         0.0600 
    164 H164        2.1701  -15.8782  -42.9977 H         1 UNK         0.3000 
    165 H165        3.6519  -14.6589  -40.1373 H         1 UNK         0.0600 
    166 H166        4.7430  -12.7997  -41.3614 H         1 UNK         0.0600 
    167 H167        5.7262  -14.2470  -41.4827 H         1 UNK         0.0600 
    168 H168        4.7471  -13.7439  -42.8544 H         1 UNK         0.0600 
    169 H169        2.3887  -13.3498  -42.3836 H         1 UNK         0.3000 
    170 H170       -0.9124  -14.3203  -41.7417 H         1 UNK         0.0600 
    171 H171        0.3273  -11.5971  -41.0605 H         1 UNK         0.0600 
    172 H172       -1.3681  -11.8982  -41.4411 H         1 UNK         0.0600 
    173 H173       -0.6661  -12.5629  -39.9744 H         1 UNK         0.0600 
    174 H174        0.2356  -12.2967  -43.4287 H         1 UNK         0.3000 
    175 H175        0.9244  -14.4445  -46.2050 H         1 UNK         0.0600 
    176 H176       -0.8810  -12.0284  -45.6716 H         1 UNK         0.0600 
    177 H177       -0.3478  -12.6171  -47.2448 H         1 UNK         0.0600 
    178 H178       -1.4129  -13.5940  -46.2456 H         1 UNK         0.0600 
    179 H179        2.6598  -13.1699  -46.0135 H         1 UNK         0.3000 
    180 H180        3.3257   -9.9862  -45.7864 H         1 UNK         0.0600 
    181 H181        4.8846   -9.9355  -43.8236 H         1 UNK         0.0600 
    182 H182        3.9583  -11.2242  -43.0557 H         1 UNK         0.0600 
    183 H183        3.2217   -9.6540  -43.3416 H         1 UNK         0.0600 
    184 H184        4.9212  -12.3540  -45.0487 H         1 UNK         0.3000 
    185 H185        6.4930  -12.4698  -48.0033 H         1 UNK         0.0600 
    186 H186        7.2533  -14.3093  -46.5274 H         1 UNK         0.0600 
    187 H187        6.9851  -12.8550  -45.5894 H         1 UNK         0.0600 
    188 H188        5.8104  -14.1705  -45.5345 H         1 UNK         0.0600 
    189 H189        5.5897  -14.1306  -49.1538 H         1 UNK         0.3000 
    190 H190       -2.8088  -21.1697  -44.1074 H         1 UNK         0.3000 
    191 H191       -5.5499  -21.5025  -44.5861 H         1 UNK         0.0600 
    192 H192       -4.4516  -21.8876  -42.3977 H         1 UNK         0.0600 
    193 H193       -3.5850  -23.2807  -43.0429 H         1 UNK         0.0600 
    194 H194       -5.3369  -23.3269  -42.8772 H         1 UNK         0.0600 
    195 H195       -2.9057  -23.1387  -46.1617 H         1 UNK         0.3000 
    196 H196       -4.7339  -25.1560  -47.4061 H         1 UNK         0.0600 
    197 H197       -2.7939  -26.1064  -46.1225 H         1 UNK         0.0600 
    198 H198       -1.6800  -25.1546  -47.1040 H         1 UNK         0.0600 
    199 H199       -2.6465  -26.4241  -47.8435 H         1 UNK         0.0600 
    200 H200       -3.6436  -22.1101  -47.9738 H         1 UNK         0.3000 
    201 H201       -2.9166  -20.8137  -49.6170 H         1 UNK         0.0600 
    202 H202       -5.2057  -21.2905  -50.4573 H         1 UNK         0.0600 
    203 H203       -4.6071  -22.6726  -51.3678 H         1 UNK         0.0600 
    204 H204       -4.0998  -21.0460  -51.7992 H         1 UNK         0.0600 
    205 H205       -0.9662  -22.3364  -48.8681 H         1 UNK         0.3000 
    206 H206        1.0165  -23.2082  -49.2079 H         1 UNK         0.0600 
    207 H207        0.7021  -22.7675  -52.2300 H         1 UNK         0.0600 
    208 H208        1.5554  -21.7277  -51.0968 H         1 UNK         0.0600 
    209 H209        2.1490  -23.3423  -51.4225 H         1 UNK         0.0600 
    210 H210       -0.8379  -24.4108  -52.0089 H         1 UNK         0.3000 
    211 H211       -1.4145  -26.9527  -50.7244 H         1 UNK         0.0600 
    212 H212        0.3484  -26.9210  -53.2398 H         1 UNK         0.0600 
    213 H213       -0.3442  -28.3593  -52.4977 H         1 UNK         0.0600 
    214 H214        0.8680  -27.4317  -51.6345 H         1 UNK         0.0600 
    215 H215       -2.5195  -24.4029  -52.4046 H         1 UNK         0.3000 
    216 H216       -4.0172  -25.7884  -54.5212 H         1 UNK         0.0600 
    217 H217       -4.6119  -23.4997  -55.1828 H         1 UNK         0.0600 
    218 H218       -2.8860  -23.5678  -54.8837 H         1 UNK         0.0600 
    219 H219       -3.9601  -22.8486  -53.6875 H         1 UNK         0.0600 
    220 H220       -4.5119  -25.3702  -51.2491 H         1 UNK         0.3000 
    221 H221       -6.1321  -25.6717  -49.8218 H         1 UNK         0.0600 
    222 H222       -8.0500  -26.2944  -52.1296 H         1 UNK         0.0600 
    223 H223       -7.0857  -27.4641  -51.2332 H         1 UNK         0.0600 
    224 H224       -8.3559  -26.5619  -50.4218 H         1 UNK         0.0600 
    225 H225       -7.6741  -24.0048  -52.5564 H         1 UNK         0.3000 
    226 H226       -7.7800  -21.4534  -51.1754 H         1 UNK         0.0600 
    227 H227       -9.8255  -22.5190  -50.2116 H         1 UNK         0.0600 
    228 H228      -10.2751  -21.2156  -51.2949 H         1 UNK         0.0600 
    229 H229      -10.4174  -22.8862  -51.8309 H         1 UNK         0.0600 
    230 H230       -7.2982  -23.2107  -53.9610 H         1 UNK         0.3000 
    231 H231       -8.6932  -21.5225  -55.8595 H         1 UNK         0.0600 
    232 H232       -7.6377  -23.0389  -57.5092 H         1 UNK         0.0600 
    233 H233       -8.3915  -23.9574  -56.2172 H         1 UNK         0.0600 
    234 H234       -6.6424  -23.7607  -56.2535 H         1 UNK         0.0600 
    235 H235       -5.8377  -20.9792  -54.1414 H         1 UNK         0.3000 
    236 H236       -4.7513  -19.1506  -56.2396 H         1 UNK         0.0600 
    237 H237       -3.1446  -20.6945  -54.1263 H         1 UNK         0.0600 
    238 H238       -3.1951  -21.0993  -55.8441 H         1 UNK         0.0600 
    239 H239       -2.5038  -19.5742  -55.3150 H         1 UNK         0.0600 
    240 H240       -3.9485  -17.2074  -55.4620 H         1 UNK         0.3000 
    241 H241       -3.7078  -15.3929  -54.2877 H         1 UNK         0.0600 
    242 H242       -7.5385  -15.3079  -53.6891 H         1 UNK         0.3800 
    243 H243       -6.6631  -16.4674  -54.6546 H         1 UNK         0.3800 
    244 H244       -3.8217  -16.9689  -51.6896 H         1 UNK         0.0800 
    245 H245       -3.0810  -15.4143  -51.9369 H         1 UNK         0.0800 
    246 H246       -1.2317  -19.4365  -52.3684 H         1 UNK         0.0800 
    247 H247       -2.7428  -18.9655  -51.6469 H         1 UNK         0.0800 
@<TRIPOS>BOND
     1    1    2 1    
     2    1  127 1    
     3    1  128 1    
     4    1  129 1    
     5    2    3 2    
     6    2    4 am   BACKBONE|DICT|INTERRES
     7    4    5 1    
     8    4  130 1    
     9    5    6 1    
    10    5   65 1    
    11    5  131 1    
    12    6    7 1    
    13    6  132 1    
    14    6  133 1    
    15    7    8 1    
    16    8    9 1    
    17    8  134 1    
    18    8  135 1    
    19    9   10 ar   
    20    9   14 ar   
    21   10   11 ar   
    22   10  136 1    
    23   11   12 ar   
    24   11  126 1    
    25   12   13 ar   
    26   12  137 1    
    27   13   14 ar   
    28   13   15 1    
    29   14  138 1    
    30   15   16 1    
    31   15  139 1    
    32   15  140 1    
    33   16   17 1    
    34   17   18 1    
    35   17  141 1    
    36   17  142 1    
    37   18   19 1    
    38   18   67 1    
    39   18  143 1    
    40   19   20 am   BACKBONE|DICT|INTERRES
    41   19  144 1    
    42   20   21 2    
    43   20   22 1    
    44   22   23 1    
    45   22   24 1    
    46   22  145 1    
    47   23  146 1    
    48   23  147 1    
    49   23  148 1    
    50   24   25 am   BACKBONE|DICT|INTERRES
    51   24  149 1    
    52   25   26 2    
    53   25   27 1    
    54   27   28 1    
    55   27   29 1    
    56   27  150 1    
    57   28  151 1    
    58   28  152 1    
    59   28  153 1    
    60   29   30 am   BACKBONE|DICT|INTERRES
    61   29  154 1    
    62   30   31 2    
    63   30   32 1    
    64   32   33 1    
    65   32   34 1    
    66   32  155 1    
    67   33  156 1    
    68   33  157 1    
    69   33  158 1    
    70   34   35 am   BACKBONE|DICT|INTERRES
    71   34  159 1    
    72   35   36 2    
    73   35   37 1    
    74   37   38 1    
    75   37   39 1    
    76   37  160 1    
    77   38  161 1    
    78   38  162 1    
    79   38  163 1    
    80   39   40 am   BACKBONE|DICT|INTERRES
    81   39  164 1    
    82   40   41 2    
    83   40   42 1    
    84   42   43 1    
    85   42   44 1    
    86   42  165 1    
    87   43  166 1    
    88   43  167 1    
    89   43  168 1    
    90   44   45 am   BACKBONE|DICT|INTERRES
    91   44  169 1    
    92   45   46 2    
    93   45   47 1    
    94   47   48 1    
    95   47   49 1    
    96   47  170 1    
    97   48  171 1    
    98   48  172 1    
    99   48  173 1    
   100   49   50 am   BACKBONE|DICT|INTERRES
   101   49  174 1    
   102   50   51 2    
   103   50   52 1    
   104   52   53 1    
   105   52   54 1    
   106   52  175 1    
   107   53  176 1    
   108   53  177 1    
   109   53  178 1    
   110   54   55 am   BACKBONE|DICT|INTERRES
   111   54  179 1    
   112   55   56 2    
   113   55   57 1    
   114   57   58 1    
   115   57   59 1    
   116   57  180 1    
   117   58  181 1    
   118   58  182 1    
   119   58  183 1    
   120   59   60 am   BACKBONE|DICT|INTERRES
   121   59  184 1    
   122   60   61 2    
   123   60   62 1    
   124   62   63 1    
   125   62   64 1    
   126   62  185 1    
   127   63  186 1    
   128   63  187 1    
   129   63  188 1    
   130   64   65 am   BACKBONE|DICT|INTERRES
   131   64  189 1    
   132   65   66 2    
   133   67   68 2    
   134   67   69 am   BACKBONE|DICT|INTERRES
   135   69   70 1    
   136   69  190 1    
   137   70   71 1    
   138   70   72 1    
   139   70  191 1    
   140   71  192 1    
   141   71  193 1    
   142   71  194 1    
   143   72   73 2    
   144   72   74 am   BACKBONE|DICT|INTERRES
   145   74   75 1    
   146   74  195 1    
   147   75   76 1    
   148   75   77 1    
   149   75  196 1    
   150   76  197 1    
   151   76  198 1    
   152   76  199 1    
   153   77   78 2    
   154   77   79 am   BACKBONE|DICT|INTERRES
   155   79   80 1    
   156   79  200 1    
   157   80   81 1    
   158   80   82 1    
   159   80  201 1    
   160   81  202 1    
   161   81  203 1    
   162   81  204 1    
   163   82   83 2    
   164   82   84 am   BACKBONE|DICT|INTERRES
   165   84   85 1    
   166   84  205 1    
   167   85   86 1    
   168   85   87 1    
   169   85  206 1    
   170   86  207 1    
   171   86  208 1    
   172   86  209 1    
   173   87   88 2    
   174   87   89 am   BACKBONE|DICT|INTERRES
   175   89   90 1    
   176   89  210 1    
   177   90   91 1    
   178   90   92 1    
   179   90  211 1    
   180   91  212 1    
   181   91  213 1    
   182   91  214 1    
   183   92   93 2    
   184   92   94 am   BACKBONE|DICT|INTERRES
   185   94   95 1    
   186   94  215 1    
   187   95   96 1    
   188   95   97 1    
   189   95  216 1    
   190   96  217 1    
   191   96  218 1    
   192   96  219 1    
   193   97   98 2    
   194   97   99 am   BACKBONE|DICT|INTERRES
   195   99  100 1    
   196   99  220 1    
   197  100  101 1    
   198  100  102 1    
   199  100  221 1    
   200  101  222 1    
   201  101  223 1    
   202  101  224 1    
   203  102  103 2    
   204  102  104 am   BACKBONE|DICT|INTERRES
   205  104  105 1    
   206  104  225 1    
   207  105  106 1    
   208  105  107 1    
   209  105  226 1    
   210  106  227 1    
   211  106  228 1    
   212  106  229 1    
   213  107  108 2    
   214  107  109 am   BACKBONE|DICT|INTERRES
   215  109  110 1    
   216  109  230 1    
   217  110  111 1    
   218  110  112 1    
   219  110  231 1    
   220  111  232 1    
   221  111  233 1    
   222  111  234 1    
   223  112  113 2    
   224  112  114 am   BACKBONE|DICT|INTERRES
   225  114  115 1    
   226  114  235 1    
   227  115  116 1    
   228  115  117 1    
   229  115  236 1    
   230  116  237 1    
   231  116  238 1    
   232  116  239 1    
   233  117  118 2    
   234  117  119 am   BACKBONE|DICT|INTERRES
   235  119  120 1    
   236  119  240 1    
   237  120  121 1    
   238  120  124 1    
   239  120  241 1    
   240  121  122 am   BACKBONE|DICT|INTERRES
   241  121  123 2    
   242  122  242 1    
   243  122  243 1    
   244  124  125 1    
   245  124  244 1    
   246  124  245 1    
   247  125  126 1    
   248  126  246 1    
   249  126  247 1    
@<TRIPOS>SUBSTRUCTURE
     1 UNK         1 GROUP             0       ****    0 ROOT    
