@<TRIPOS>MOLECULE
3R540
247   249    1
SMALL
USER_CHARGES


@<TRIPOS>ATOM
      1 CA         -2.5070  -13.7743  -44.5398 C.3       0 UNK        -0.1800 
      2 C          -1.0865  -13.8312  -45.0822 C.2       0 UNK         0.5000 
      3 O          -0.2853  -14.6284  -44.6020 O.2       0 UNK        -0.5000 
      4 N          -0.7714  -12.9804  -46.0696 N.am      1 UNK        -0.5000 
      5 CA          0.5116  -12.9157  -46.7943 C.3       1 UNK         0.1400 
      6 C6          0.8150  -14.2052  -47.6099 C.3       23 UNK        -0.0398 
      7 S7         -0.4493  -14.4627  -48.9044 S.3       23 UNK        -0.2404 
      8 C8          0.5576  -14.8348  -50.3719 C.3       23 UNK        -0.0205 
      9 C9          0.7853  -16.3302  -50.5284 C.ar      23 UNK        -0.0193 
     10 C10        -0.1585  -17.1044  -51.2086 C.ar      23 UNK        -0.1150 
     11 C11         0.0522  -18.4709  -51.4025 C.ar      23 UNK        -0.0193 
     12 C12         1.2222  -19.0604  -50.9184 C.ar      23 UNK        -0.1150 
     13 C13         2.1700  -18.3038  -50.2205 C.ar      23 UNK        -0.0193 
     14 C14         1.9420  -16.9363  -50.0269 C.ar      23 UNK        -0.1150 
     15 C15         3.4694  -18.9367  -49.7292 C.3       23 UNK        -0.0205 
     16 S16         3.2598  -20.5753  -48.9501 S.3       23 UNK        -0.2404 
     17 C17         2.4651  -20.1390  -47.3694 C.3       23 UNK        -0.0398 
     18 CA          1.1771  -20.9550  -47.0914 C.3       11 UNK         0.1400 
     19 N           0.8734  -21.0162  -45.6591 N.am      11 UNK        -0.5000 
     20 C          -0.0386  -21.8235  -45.0983 C.2       10 UNK         0.5000 
     21 O          -0.6631  -22.6852  -45.7161 O.2       10 UNK        -0.5000 
     22 CA         -0.3191  -21.6208  -43.5966 C.3       10 UNK         0.1400 
     23 CB          0.6511  -22.4544  -42.7464 C.3       10 UNK        -0.1800 
     24 N          -0.2453  -20.2176  -43.1856 N.am      10 UNK        -0.5000 
     25 C          -1.0820  -19.2569  -43.6032 C.2       9 UNK         0.5000 
     26 O          -2.0475  -19.4666  -44.3355 O.2       9 UNK        -0.5000 
     27 CA         -0.7508  -17.8126  -43.1847 C.3       9 UNK         0.1400 
     28 CB         -1.2358  -17.5215  -41.7575 C.3       9 UNK        -0.1800 
     29 N           0.6773  -17.5159  -43.2921 N.am      9 UNK        -0.5000 
     30 C           1.3641  -17.5296  -44.4440 C.2       8 UNK         0.5000 
     31 O           0.8650  -17.7792  -45.5402 O.2       8 UNK        -0.5000 
     32 CA          2.8787  -17.2931  -44.3475 C.3       8 UNK         0.1400 
     33 CB          3.1900  -15.7947  -44.2683 C.3       8 UNK        -0.1800 
     34 N           3.4606  -17.9848  -43.1974 N.am      8 UNK        -0.5000 
     35 C           3.5841  -19.3169  -43.1094 C.2       7 UNK         0.5000 
     36 O           3.2576  -20.0934  -44.0063 O.2       7 UNK        -0.5000 
     37 CA          4.1205  -19.8762  -41.7797 C.3       7 UNK         0.1400 
     38 CB          5.6547  -19.8123  -41.7428 C.3       7 UNK        -0.1800 
     39 N           3.5758  -19.1759  -40.6159 N.am      7 UNK        -0.5000 
     40 C           2.2839  -19.1919  -40.2579 C.2       6 UNK         0.5000 
     41 O           1.4178  -19.8289  -40.8555 O.2       6 UNK        -0.5000 
     42 CA          1.8856  -18.3180  -39.0549 C.3       6 UNK         0.1400 
     43 CB          2.0071  -19.1139  -37.7472 C.3       6 UNK        -0.1800 
     44 N           2.6693  -17.0847  -38.9470 N.am      6 UNK        -0.5000 
     45 C           2.6659  -16.0975  -39.8517 C.2       5 UNK         0.5000 
     46 O           2.0193  -16.1300  -40.9014 O.2       5 UNK        -0.5000 
     47 CA          3.5518  -14.8797  -39.5387 C.3       5 UNK         0.1400 
     48 CB          4.6064  -14.6662  -40.6361 C.3       5 UNK        -0.1800 
     49 N           2.7399  -13.6714  -39.3767 N.am      5 UNK        -0.5000 
     50 C           2.0201  -13.4100  -38.2744 C.2       4 UNK         0.5000 
     51 O           1.9877  -14.1709  -37.3053 O.2       4 UNK        -0.5000 
     52 CA          1.2256  -12.0888  -38.2145 C.3       4 UNK         0.1400 
     53 CB          1.3095  -11.4404  -36.8149 C.3       4 UNK        -0.1800 
     54 N           1.6422  -11.1235  -39.2372 N.am      4 UNK        -0.5000 
     55 C           0.8943  -10.0889  -39.6479 C.2       3 UNK         0.5000 
     56 O          -0.2488   -9.8652  -39.2470 O.2       3 UNK        -0.5000 
     57 CA          1.5270   -9.1460  -40.6890 C.3       3 UNK         0.1400 
     58 CB          2.5586   -8.2164  -40.0303 C.3       3 UNK        -0.1800 
     59 N           2.1550   -9.8672  -41.7974 N.am      3 UNK        -0.5000 
     60 C           1.4788  -10.5782  -42.7085 C.2       2 UNK         0.5000 
     61 O           0.2473  -10.6727  -42.7298 O.2       2 UNK        -0.5000 
     62 CA          2.3193  -11.3180  -43.7602 C.3       2 UNK         0.1400 
     63 CB          3.1469  -12.4332  -43.0967 C.3       2 UNK        -0.1800 
     64 N           1.4041  -11.8744  -44.7495 N.am      2 UNK        -0.5000 
     65 C           1.7031  -12.4541  -45.9168 C.2       1 UNK         0.5000 
     66 O           2.8565  -12.5882  -46.3284 O.2       1 UNK        -0.5000 
     67 C          -0.0306  -20.4282  -47.8948 C.2       11 UNK         0.5000 
     68 O          -0.4170  -21.0460  -48.8872 O.2       11 UNK        -0.5000 
     69 N          -0.6230  -19.3214  -47.4221 N.am      12 UNK        -0.5000 
     70 CA         -1.8109  -18.6890  -47.9937 C.3       12 UNK         0.1400 
     71 CB         -2.0937  -17.3741  -47.2507 C.3       12 UNK        -0.1800 
     72 C          -3.0428  -19.6107  -47.9644 C.2       12 UNK         0.5000 
     73 O          -3.7270  -19.7508  -48.9790 O.2       12 UNK        -0.5000 
     74 N          -3.2768  -20.2609  -46.8172 N.am      13 UNK        -0.5000 
     75 CA         -4.3531  -21.2234  -46.5785 C.3       13 UNK         0.1400 
     76 CB         -4.6663  -21.2496  -45.0715 C.3       13 UNK        -0.1800 
     77 C          -4.0396  -22.6279  -47.1420 C.2       13 UNK         0.5000 
     78 O          -4.2365  -23.6299  -46.4506 O.2       13 UNK        -0.5000 
     79 N          -3.5684  -22.6850  -48.3937 N.am      14 UNK        -0.5000 
     80 CA         -3.3550  -23.9153  -49.1538 C.3       14 UNK         0.1400 
     81 CB         -2.5576  -23.5826  -50.4244 C.3       14 UNK        -0.1800 
     82 C          -4.6924  -24.5913  -49.5125 C.2       14 UNK         0.5000 
     83 O          -5.7036  -23.8999  -49.6649 O.2       14 UNK        -0.5000 
     84 N          -4.6654  -25.9225  -49.6670 N.am      15 UNK        -0.5000 
     85 CA         -5.8148  -26.7820  -49.9709 C.3       15 UNK         0.1400 
     86 CB         -5.3410  -28.2427  -50.0411 C.3       15 UNK        -0.1800 
     87 C          -6.5268  -26.3673  -51.2716 C.2       15 UNK         0.5000 
     88 O          -5.9859  -26.5845  -52.3581 O.2       15 UNK        -0.5000 
     89 N          -7.6862  -25.7094  -51.1261 N.am      16 UNK        -0.5000 
     90 CA         -8.4785  -25.0764  -52.1882 C.3       16 UNK         0.1400 
     91 CB         -9.1318  -26.1493  -53.0847 C.3       16 UNK        -0.1800 
     92 C          -7.6716  -24.0321  -52.9925 C.2       16 UNK         0.5000 
     93 O          -7.8170  -23.9515  -54.2120 O.2       16 UNK        -0.5000 
     94 N          -6.7910  -23.2923  -52.2990 N.am      17 UNK        -0.5000 
     95 CA         -5.7941  -22.3654  -52.8479 C.3       17 UNK         0.1400 
     96 CB         -6.4676  -21.1345  -53.4889 C.3       17 UNK        -0.1800 
     97 C          -4.8039  -23.0777  -53.7934 C.2       17 UNK         0.5000 
     98 O          -4.5057  -22.5709  -54.8745 O.2       17 UNK        -0.5000 
     99 N          -4.3452  -24.2655  -53.3708 N.am      18 UNK        -0.5000 
    100 CA        -3.4909  -25.2042  -54.1068 C.3       18 UNK         0.1400 
    101 CB        -2.0954  -24.5973  -54.3635 C.3       18 UNK        -0.1800 
    102 C         -4.1794  -25.7021  -55.3932 C.2       18 UNK         0.5000 
    103 O         -3.5845  -25.6618  -56.4701 O.2       18 UNK        -0.5000 
    104 N         -5.4494  -26.1131  -55.2572 N.am      19 UNK        -0.5000 
    105 CA        -6.3761  -26.4666  -56.3413 C.3       19 UNK         0.1400 
    106 CB        -5.9681  -27.8048  -56.9910 C.3       19 UNK        -0.1800 
    107 C         -6.5366  -25.3165  -57.3618 C.2       19 UNK         0.5000 
    108 O         -6.4039  -25.5224  -58.5692 O.2       19 UNK        -0.5000 
    109 N         -6.7733  -24.1125  -56.8251 N.am      20 UNK        -0.5000 
    110 CA        -6.9120  -22.8095  -57.4813 C.3       20 UNK         0.1400 
    111 CB        -8.0770  -22.8182  -58.4914 C.3       20 UNK        -0.1800 
    112 C         -5.6226  -22.2304  -58.1030 C.2       20 UNK         0.5000 
    113 O         -5.6582  -21.0877  -58.5636 O.2       20 UNK        -0.5000 
    114 N         -4.5031  -22.9702  -58.0930 N.am      21 UNK        -0.5000 
    115 CA        -3.2292  -22.5517  -58.6899 C.3       21 UNK         0.1400 
    116 CB        -2.2607  -23.7425  -58.7275 C.3       21 UNK        -0.1800 
    117 C         -2.5722  -21.3499  -57.9829 C.2       21 UNK         0.5000 
    118 O         -1.8427  -20.5966  -58.6293 O.2       21 UNK        -0.5000 
    119 N         -2.8537  -21.1856  -56.6860 N.am      22 UNK        -0.5000 
    120 CA        -2.4332  -20.0536  -55.8498 C.3       22 UNK         0.1400 
    121 C         -3.5404  -18.9657  -55.6968 C.2       22 UNK         0.5000 
    122 N         -4.6533  -19.0355  -56.4202 N.am      22 UNK        -0.7600 
    123 O         -3.3888  -18.0281  -54.9193 O.2       22 UNK        -0.5000 
    124 C124       -1.8898  -20.5597  -54.4844 C.3       23 UNK        -0.0398 
    125 S125       -0.4915  -19.5653  -53.8682 S.3       23 UNK        -0.2404 
    126 C126       -0.9794  -19.3113  -52.1364 C.3       23 UNK        -0.0205 
    127 H127       -3.1100  -13.0279  -45.0573 H         1 UNK         0.0600 
    128 H128       -2.4926  -13.5260  -43.4785 H         1 UNK         0.0600 
    129 H129       -2.9899  -14.7444  -44.6580 H         1 UNK         0.0600 
    130 H130       -1.4801  -12.3438  -46.4064 H         1 UNK         0.3000 
    131 H131        0.3903  -12.1058  -47.5154 H         1 UNK         0.0600 
    132 H132        1.7960  -14.1433  -48.0819 H         1 UNK         0.0800 
    133 H133        0.8481  -15.0846  -46.9651 H         1 UNK         0.0800 
    134 H134        0.0347  -14.4563  -51.2516 H         1 UNK         0.0800 
    135 H135        1.5066  -14.2981  -50.3405 H         1 UNK         0.0800 
    136 H136       -1.0557  -16.6401  -51.5935 H         1 UNK         0.1150 
    137 H137        1.3898  -20.1152  -51.0851 H         1 UNK         0.1150 
    138 H138        2.6744  -16.3365  -49.5053 H         1 UNK         0.1150 
    139 H139        4.1366  -19.0461  -50.5849 H         1 UNK         0.0800 
    140 H140        3.9800  -18.2765  -49.0262 H         1 UNK         0.0800 
    141 H141        2.2753  -19.0659  -47.3253 H         1 UNK         0.0800 
    142 H142        3.2062  -20.3411  -46.5962 H         1 UNK         0.0800 
    143 H143        1.3560  -21.9843  -47.4103 H         1 UNK         0.0600 
    144 H144        1.3788  -20.3726  -45.0626 H         1 UNK         0.3000 
    145 H145       -1.3337  -21.9735  -43.3998 H         1 UNK         0.0600 
    146 H146        0.4073  -22.3824  -41.6864 H         1 UNK         0.0600 
    147 H147        0.6046  -23.5091  -43.0203 H         1 UNK         0.0600 
    148 H148        1.6829  -22.1257  -42.8750 H         1 UNK         0.0600 
    149 H149        0.4908  -19.9746  -42.5281 H         1 UNK         0.3000 
    150 H150       -1.2786  -17.1409  -43.8649 H         1 UNK         0.0600 
    151 H151       -1.0247  -16.4903  -41.4731 H         1 UNK         0.0600 
    152 H152       -2.3133  -17.6692  -41.6763 H         1 UNK         0.0600 
    153 H153       -0.7596  -18.1755  -41.0277 H         1 UNK         0.0600 
    154 H154        1.1589  -17.2517  -42.4401 H         1 UNK         0.3000 
    155 H155        3.3418  -17.6874  -45.2546 H         1 UNK         0.0600 
    156 H156        2.7006  -15.3360  -43.4103 H         1 UNK         0.0600 
    157 H157        2.8320  -15.2780  -45.1593 H         1 UNK         0.0600 
    158 H158        4.2614  -15.6105  -44.1903 H         1 UNK         0.0600 
    159 H159        3.6973  -17.4183  -42.3967 H         1 UNK         0.3000 
    160 H160        3.8203  -20.9242  -41.7150 H         1 UNK         0.0600 
    161 H161        6.0179  -18.7843  -41.7755 H         1 UNK         0.0600 
    162 H162        6.0872  -20.3407  -42.5935 H         1 UNK         0.0600 
    163 H163        6.0468  -20.2786  -40.8388 H         1 UNK         0.0600 
    164 H164        4.2211  -18.6292  -40.0653 H         1 UNK         0.3000 
    165 H165        0.8390  -18.0358  -39.1848 H         1 UNK         0.0600 
    166 H166        1.6455  -18.5343  -36.8976 H         1 UNK         0.0600 
    167 H167        1.4140  -20.0285  -37.7907 H         1 UNK         0.0600 
    168 H168        3.0394  -19.4013  -37.5440 H         1 UNK         0.0600 
    169 H169        3.2106  -16.9697  -38.1021 H         1 UNK         0.3000 
    170 H170        4.0906  -15.0608  -38.6058 H         1 UNK         0.0600 
    171 H171        5.2865  -15.5172  -40.6883 H         1 UNK         0.0600 
    172 H172        4.1565  -14.5551  -41.6206 H         1 UNK         0.0600 
    173 H173        5.2106  -13.7804  -40.4394 H         1 UNK         0.0600 
    174 H174        2.6545  -13.0703  -40.1804 H         1 UNK         0.3000 
    175 H175        0.1855  -12.3620  -38.4040 H         1 UNK         0.0600 
    176 H176        2.3323  -11.1506  -36.5722 H         1 UNK         0.0600 
    177 H177        0.6852  -10.5500  -36.7447 H         1 UNK         0.0600 
    178 H178        0.9675  -12.1246  -36.0375 H         1 UNK         0.0600 
    179 H179        2.5846  -11.2147  -39.5873 H         1 UNK         0.3000 
    180 H180        0.7293   -8.5231  -41.0998 H         1 UNK         0.0600 
    181 H181        3.4080   -8.7706  -39.6293 H         1 UNK         0.0600 
    182 H182        2.1111   -7.6602  -39.2054 H         1 UNK         0.0600 
    183 H183        2.9413   -7.4854  -40.7428 H         1 UNK         0.0600 
    184 H184        3.1623   -9.8226  -41.8542 H         1 UNK         0.3000 
    185 H185        2.9798  -10.6005  -44.2505 H         1 UNK         0.0600 
    186 H186        3.8319  -12.0319  -42.3496 H         1 UNK         0.0600 
    187 H187        2.4978  -13.1544  -42.5992 H         1 UNK         0.0600 
    188 H188        3.7558  -12.9695  -43.8236 H         1 UNK         0.0600 
    189 H189        0.4298  -11.7804  -44.4866 H         1 UNK         0.3000 
    190 H190       -0.2054  -18.8521  -46.6217 H         1 UNK         0.3000 
    191 H191       -1.5897  -18.4529  -49.0352 H         1 UNK         0.0600 
    192 H192       -1.2109  -16.7362  -47.2308 H         1 UNK         0.0600 
    193 H193       -2.8923  -16.8142  -47.7384 H         1 UNK         0.0600 
    194 H194       -2.3946  -17.5458  -46.2173 H         1 UNK         0.0600 
    195 H195       -2.6693  -20.0716  -46.0236 H         1 UNK         0.3000 
    196 H196       -5.2500  -20.8722  -47.0926 H         1 UNK         0.0600 
    197 H197       -5.5248  -21.8876  -44.8582 H         1 UNK         0.0600 
    198 H198       -4.9043  -20.2527  -44.7001 H         1 UNK         0.0600 
    199 H199       -3.8215  -21.6281  -44.4946 H         1 UNK         0.0600 
    200 H200       -3.4622  -21.8111  -48.8949 H         1 UNK         0.3000 
    201 H201       -2.7678  -24.6011  -48.5397 H         1 UNK         0.0600 
    202 H202       -1.5773  -23.1758  -50.1765 H         1 UNK         0.0600 
    203 H203       -3.0722  -22.8497  -51.0460 H         1 UNK         0.0600 
    204 H204       -2.3917  -24.4741  -51.0301 H         1 UNK         0.0600 
    205 H205       -3.7844  -26.4014  -49.5488 H         1 UNK         0.3000 
    206 H206       -6.5214  -26.6978  -49.1427 H         1 UNK         0.0600 
    207 H207       -4.9159  -28.5665  -49.0909 H         1 UNK         0.0600 
    208 H208       -6.1718  -28.9118  -50.2690 H         1 UNK         0.0600 
    209 H209       -4.5840  -28.3855  -50.8135 H         1 UNK         0.0600 
    210 H210       -8.0163  -25.5392  -50.1860 H         1 UNK         0.3000 
    211 H211       -9.2791  -24.5245  -51.6942 H         1 UNK         0.0600 
    212 H212       -8.3887  -26.7270  -53.6344 H         1 UNK         0.0600 
    213 H213       -9.8016  -25.6959  -53.8164 H         1 UNK         0.0600 
    214 H214       -9.7250  -26.8466  -52.4934 H         1 UNK         0.0600 
    215 H215       -6.7066  -23.4673  -51.3009 H         1 UNK         0.3000 
    216 H216       -5.2058  -22.0102  -52.0010 H         1 UNK         0.0600 
    217 H217       -5.7232  -20.3993  -53.7970 H         1 UNK         0.0600 
    218 H218       -7.1368  -20.6414  -52.7841 H         1 UNK         0.0600 
    219 H219       -7.0479  -21.3989  -54.3723 H         1 UNK         0.0600 
    220 H220       -4.7337  -24.6345  -52.5146 H         1 UNK         0.3000 
    221 H221       -3.3615  -26.0759  -53.4637 H         1 UNK         0.0600 
    222 H222       -2.1336  -23.7888  -55.0932 H         1 UNK         0.0600 
    223 H223       -1.6562  -24.2037  -53.4472 H         1 UNK         0.0600 
    224 H224       -1.4124  -25.3516  -54.7551 H         1 UNK         0.0600 
    225 H225       -5.8328  -26.1370  -54.3170 H         1 UNK         0.3000 
    226 H226       -7.3548  -26.6070  -55.8810 H         1 UNK         0.0600 
    227 H227       -5.8910  -28.5961  -56.2454 H         1 UNK         0.0600 
    228 H228       -6.7083  -28.1224  -57.7262 H         1 UNK         0.0600 
    229 H229       -5.0085  -27.7324  -57.5036 H         1 UNK         0.0600 
    230 H230       -6.9045  -24.0776  -55.8159 H         1 UNK         0.3000 
    231 H231       -7.1836  -22.1189  -56.6825 H         1 UNK         0.0600 
    232 H232       -7.8595  -23.4418  -59.3587 H         1 UNK         0.0600 
    233 H233       -8.2820  -21.8124  -58.8596 H         1 UNK         0.0600 
    234 H234       -8.9943  -23.1869  -58.0322 H         1 UNK         0.0600 
    235 H235       -4.5243  -23.8851  -57.6606 H         1 UNK         0.3000 
    236 H236       -3.4339  -22.2532  -59.7201 H         1 UNK         0.0600 
    237 H237       -2.7143  -24.6103  -59.2068 H         1 UNK         0.0600 
    238 H238       -1.3598  -23.4926  -59.2891 H         1 UNK         0.0600 
    239 H239       -1.9469  -24.0357  -57.7253 H         1 UNK         0.0600 
    240 H240       -3.4910  -21.8373  -56.2312 H         1 UNK         0.3000 
    241 H241       -1.6148  -19.5474  -56.3641 H         1 UNK         0.0600 
    242 H242       -5.3531  -18.3187  -56.3142 H         1 UNK         0.3800 
    243 H243       -4.7956  -19.7774  -57.0934 H         1 UNK         0.3800 
    244 H244       -2.6848  -20.6186  -53.7390 H         1 UNK         0.0800 
    245 H245       -1.5079  -21.5760  -54.5818 H         1 UNK         0.0800 
    246 H246       -1.9583  -18.8301  -52.0998 H         1 UNK         0.0800 
    247 H247       -1.0878  -20.2768  -51.6387 H         1 UNK         0.0800 
@<TRIPOS>BOND
     1    1    2 1    
     2    1  127 1    
     3    1  128 1    
     4    1  129 1    
     5    2    3 2    
     6    2    4 am   BACKBONE|DICT|INTERRES
     7    4    5 1    
     8    4  130 1    
     9    5    6 1    
    10    5   65 1    
    11    5  131 1    
    12    6    7 1    
    13    6  132 1    
    14    6  133 1    
    15    7    8 1    
    16    8    9 1    
    17    8  134 1    
    18    8  135 1    
    19    9   10 ar   
    20    9   14 ar   
    21   10   11 ar   
    22   10  136 1    
    23   11   12 ar   
    24   11  126 1    
    25   12   13 ar   
    26   12  137 1    
    27   13   14 ar   
    28   13   15 1    
    29   14  138 1    
    30   15   16 1    
    31   15  139 1    
    32   15  140 1    
    33   16   17 1    
    34   17   18 1    
    35   17  141 1    
    36   17  142 1    
    37   18   19 1    
    38   18   67 1    
    39   18  143 1    
    40   19   20 am   BACKBONE|DICT|INTERRES
    41   19  144 1    
    42   20   21 2    
    43   20   22 1    
    44   22   23 1    
    45   22   24 1    
    46   22  145 1    
    47   23  146 1    
    48   23  147 1    
    49   23  148 1    
    50   24   25 am   BACKBONE|DICT|INTERRES
    51   24  149 1    
    52   25   26 2    
    53   25   27 1    
    54   27   28 1    
    55   27   29 1    
    56   27  150 1    
    57   28  151 1    
    58   28  152 1    
    59   28  153 1    
    60   29   30 am   BACKBONE|DICT|INTERRES
    61   29  154 1    
    62   30   31 2    
    63   30   32 1    
    64   32   33 1    
    65   32   34 1    
    66   32  155 1    
    67   33  156 1    
    68   33  157 1    
    69   33  158 1    
    70   34   35 am   BACKBONE|DICT|INTERRES
    71   34  159 1    
    72   35   36 2    
    73   35   37 1    
    74   37   38 1    
    75   37   39 1    
    76   37  160 1    
    77   38  161 1    
    78   38  162 1    
    79   38  163 1    
    80   39   40 am   BACKBONE|DICT|INTERRES
    81   39  164 1    
    82   40   41 2    
    83   40   42 1    
    84   42   43 1    
    85   42   44 1    
    86   42  165 1    
    87   43  166 1    
    88   43  167 1    
    89   43  168 1    
    90   44   45 am   BACKBONE|DICT|INTERRES
    91   44  169 1    
    92   45   46 2    
    93   45   47 1    
    94   47   48 1    
    95   47   49 1    
    96   47  170 1    
    97   48  171 1    
    98   48  172 1    
    99   48  173 1    
   100   49   50 am   BACKBONE|DICT|INTERRES
   101   49  174 1    
   102   50   51 2    
   103   50   52 1    
   104   52   53 1    
   105   52   54 1    
   106   52  175 1    
   107   53  176 1    
   108   53  177 1    
   109   53  178 1    
   110   54   55 am   BACKBONE|DICT|INTERRES
   111   54  179 1    
   112   55   56 2    
   113   55   57 1    
   114   57   58 1    
   115   57   59 1    
   116   57  180 1    
   117   58  181 1    
   118   58  182 1    
   119   58  183 1    
   120   59   60 am   BACKBONE|DICT|INTERRES
   121   59  184 1    
   122   60   61 2    
   123   60   62 1    
   124   62   63 1    
   125   62   64 1    
   126   62  185 1    
   127   63  186 1    
   128   63  187 1    
   129   63  188 1    
   130   64   65 am   BACKBONE|DICT|INTERRES
   131   64  189 1    
   132   65   66 2    
   133   67   68 2    
   134   67   69 am   BACKBONE|DICT|INTERRES
   135   69   70 1    
   136   69  190 1    
   137   70   71 1    
   138   70   72 1    
   139   70  191 1    
   140   71  192 1    
   141   71  193 1    
   142   71  194 1    
   143   72   73 2    
   144   72   74 am   BACKBONE|DICT|INTERRES
   145   74   75 1    
   146   74  195 1    
   147   75   76 1    
   148   75   77 1    
   149   75  196 1    
   150   76  197 1    
   151   76  198 1    
   152   76  199 1    
   153   77   78 2    
   154   77   79 am   BACKBONE|DICT|INTERRES
   155   79   80 1    
   156   79  200 1    
   157   80   81 1    
   158   80   82 1    
   159   80  201 1    
   160   81  202 1    
   161   81  203 1    
   162   81  204 1    
   163   82   83 2    
   164   82   84 am   BACKBONE|DICT|INTERRES
   165   84   85 1    
   166   84  205 1    
   167   85   86 1    
   168   85   87 1    
   169   85  206 1    
   170   86  207 1    
   171   86  208 1    
   172   86  209 1    
   173   87   88 2    
   174   87   89 am   BACKBONE|DICT|INTERRES
   175   89   90 1    
   176   89  210 1    
   177   90   91 1    
   178   90   92 1    
   179   90  211 1    
   180   91  212 1    
   181   91  213 1    
   182   91  214 1    
   183   92   93 2    
   184   92   94 am   BACKBONE|DICT|INTERRES
   185   94   95 1    
   186   94  215 1    
   187   95   96 1    
   188   95   97 1    
   189   95  216 1    
   190   96  217 1    
   191   96  218 1    
   192   96  219 1    
   193   97   98 2    
   194   97   99 am   BACKBONE|DICT|INTERRES
   195   99  100 1    
   196   99  220 1    
   197  100  101 1    
   198  100  102 1    
   199  100  221 1    
   200  101  222 1    
   201  101  223 1    
   202  101  224 1    
   203  102  103 2    
   204  102  104 am   BACKBONE|DICT|INTERRES
   205  104  105 1    
   206  104  225 1    
   207  105  106 1    
   208  105  107 1    
   209  105  226 1    
   210  106  227 1    
   211  106  228 1    
   212  106  229 1    
   213  107  108 2    
   214  107  109 am   BACKBONE|DICT|INTERRES
   215  109  110 1    
   216  109  230 1    
   217  110  111 1    
   218  110  112 1    
   219  110  231 1    
   220  111  232 1    
   221  111  233 1    
   222  111  234 1    
   223  112  113 2    
   224  112  114 am   BACKBONE|DICT|INTERRES
   225  114  115 1    
   226  114  235 1    
   227  115  116 1    
   228  115  117 1    
   229  115  236 1    
   230  116  237 1    
   231  116  238 1    
   232  116  239 1    
   233  117  118 2    
   234  117  119 am   BACKBONE|DICT|INTERRES
   235  119  120 1    
   236  119  240 1    
   237  120  121 1    
   238  120  124 1    
   239  120  241 1    
   240  121  122 am   BACKBONE|DICT|INTERRES
   241  121  123 2    
   242  122  242 1    
   243  122  243 1    
   244  124  125 1    
   245  124  244 1    
   246  124  245 1    
   247  125  126 1    
   248  126  246 1    
   249  126  247 1    
@<TRIPOS>SUBSTRUCTURE
     1 UNK         1 GROUP             0       ****    0 ROOT    
