@<TRIPOS>MOLECULE
3R540
247   249    1
SMALL
USER_CHARGES


@<TRIPOS>ATOM
      1 CA         -2.0048  -18.9621  -46.0828 C.3       0 UNK        -0.1800 
      2 C          -1.2435  -18.0456  -47.0277 C.2       0 UNK         0.5000 
      3 O          -1.6067  -17.9213  -48.1954 O.2       0 UNK        -0.5000 
      4 N          -0.1848  -17.3976  -46.5350 N.am      1 UNK        -0.5000 
      5 CA          0.5575  -16.3578  -47.2503 C.3       1 UNK         0.1400 
      6 C6          1.8174  -15.9459  -46.4476 C.3       23 UNK        -0.0398 
      7 S7          2.9291  -14.7843  -47.3155 S.3       23 UNK        -0.2404 
      8 C8          4.1247  -15.9066  -48.1074 C.3       23 UNK        -0.0205 
      9 C9          3.4708  -16.8862  -49.0744 C.ar      23 UNK        -0.0193 
     10 C10         2.7371  -16.4250  -50.1741 C.ar      23 UNK        -0.1150 
     11 C11         2.1341  -17.3247  -51.0598 C.ar      23 UNK        -0.0193 
     12 C12         2.3228  -18.6976  -50.8633 C.ar      23 UNK        -0.1150 
     13 C13         3.0528  -19.1739  -49.7702 C.ar      23 UNK        -0.0193 
     14 C14         3.6144  -18.2616  -48.8738 C.ar      23 UNK        -0.1150 
     15 C15         3.2695  -20.6700  -49.5727 C.3       23 UNK        -0.0205 
     16 S16         1.7179  -21.6238  -49.5903 S.3       23 UNK        -0.2404 
     17 C17         0.8561  -20.9758  -48.1184 C.3       23 UNK        -0.0398 
     18 CA          0.4398  -22.1009  -47.1389 C.3       11 UNK         0.1400 
     19 N           0.2211  -21.5613  -45.7985 N.am      11 UNK        -0.5000 
     20 C          -0.0261  -22.2581  -44.6847 C.2       10 UNK         0.5000 
     21 O          -0.1295  -23.4856  -44.6521 O.2       10 UNK        -0.5000 
     22 CA         -0.0983  -21.4283  -43.3836 C.3       10 UNK         0.1400 
     23 CB         -0.5579  -22.2571  -42.1714 C.3       10 UNK        -0.1800 
     24 N           1.1948  -20.8181  -43.0682 N.am      10 UNK        -0.5000 
     25 C           1.7401  -19.7619  -43.6827 C.2       9 UNK         0.5000 
     26 O           1.1771  -19.1326  -44.5823 O.2       9 UNK        -0.5000 
     27 CA          3.1400  -19.3452  -43.1966 C.3       9 UNK         0.1400 
     28 CB          3.7761  -18.2576  -44.0801 C.3       9 UNK        -0.1800 
     29 N           3.0880  -18.8587  -41.8213 N.am      9 UNK        -0.5000 
     30 C           3.1082  -19.6202  -40.7201 C.2       8 UNK         0.5000 
     31 O           3.1615  -20.8507  -40.7449 O.2       8 UNK        -0.5000 
     32 CA          3.0307  -18.8840  -39.3735 C.3       8 UNK         0.1400 
     33 CB          4.3604  -18.1783  -39.0623 C.3       8 UNK        -0.1800 
     34 N           1.9558  -17.8944  -39.3996 N.am      8 UNK        -0.5000 
     35 C           0.7905  -18.0056  -38.7480 C.2       7 UNK         0.5000 
     36 O           0.5227  -18.9224  -37.9703 O.2       7 UNK        -0.5000 
     37 CA         -0.2669  -16.9135  -39.0161 C.3       7 UNK         0.1400 
     38 CB         -0.1646  -15.7965  -37.9665 C.3       7 UNK        -0.1800 
     39 N          -0.1639  -16.3198  -40.3504 N.am      7 UNK        -0.5000 
     40 C          -0.3519  -16.9818  -41.5006 C.2       6 UNK         0.5000 
     41 O          -0.7349  -18.1500  -41.5602 O.2       6 UNK        -0.5000 
     42 CA         -0.0469  -16.2246  -42.8080 C.3       6 UNK         0.1400 
     43 CB         -1.3590  -15.7269  -43.4259 C.3       6 UNK        -0.1800 
     44 N           0.8841  -15.0941  -42.6972 N.am      6 UNK        -0.5000 
     45 C           2.1153  -15.1121  -42.1597 C.2       5 UNK         0.5000 
     46 O           2.6128  -16.1092  -41.6361 O.2       5 UNK        -0.5000 
     47 CA          2.9392  -13.8084  -42.1954 C.3       5 UNK         0.1400 
     48 CB          4.0561  -13.9266  -43.2442 C.3       5 UNK        -0.1800 
     49 N           2.1564  -12.6052  -42.4811 N.am      5 UNK        -0.5000 
     50 C           1.1687  -12.1035  -41.7261 C.2       4 UNK         0.5000 
     51 O           0.8513  -12.5651  -40.6293 O.2       4 UNK        -0.5000 
     52 CA          0.3768  -10.9111  -42.3088 C.3       4 UNK         0.1400 
     53 CB          0.7383   -9.6149  -41.5672 C.3       4 UNK        -0.1800 
     54 N           0.5536  -10.6941  -43.7526 N.am      4 UNK        -0.5000 
     55 C           0.2427  -11.5673  -44.7208 C.2       3 UNK         0.5000 
     56 O          -0.2100  -12.6941  -44.5010 O.2       3 UNK        -0.5000 
     57 CA          0.5448  -11.1248  -46.1617 C.3       3 UNK         0.1400 
     58 CB          2.0666  -10.9985  -46.3822 C.3       3 UNK        -0.1800 
     59 N          -0.0158  -12.1105  -47.0790 N.am      3 UNK        -0.5000 
     60 C          -0.1680  -11.9935  -48.4024 C.2       2 UNK         0.5000 
     61 O           0.1110  -10.9670  -49.0247 O.2       2 UNK        -0.5000 
     62 CA         -0.6969  -13.2394  -49.1548 C.3       2 UNK         0.1400 
     63 CB         -0.5300  -13.1284  -50.6812 C.3       2 UNK        -0.1800 
     64 N          -0.0399  -14.4707  -48.7093 N.am      2 UNK        -0.5000 
     65 C          -0.3450  -15.1490  -47.5977 C.2       1 UNK         0.5000 
     66 O          -1.2689  -14.8249  -46.8504 O.2       1 UNK        -0.5000 
     67 C          -0.7755  -22.8822  -47.6876 C.2       11 UNK         0.5000 
     68 O          -1.9191  -22.4451  -47.5404 O.2       11 UNK        -0.5000 
     69 N          -0.4855  -23.9814  -48.3971 N.am      12 UNK        -0.5000 
     70 CA         -1.4465  -24.7903  -49.1522 C.3       12 UNK         0.1400 
     71 CB         -0.7419  -26.0763  -49.6110 C.3       12 UNK        -0.1800 
     72 C          -2.0525  -24.0581  -50.3677 C.2       12 UNK         0.5000 
     73 O          -3.0930  -24.4849  -50.8747 O.2       12 UNK        -0.5000 
     74 N          -1.3931  -22.9782  -50.8123 N.am      13 UNK        -0.5000 
     75 CA         -1.7707  -22.1356  -51.9483 C.3       13 UNK         0.1400 
     76 CB         -0.5255  -21.3950  -52.4528 C.3       13 UNK        -0.1800 
     77 C          -2.9192  -21.1474  -51.6592 C.2       13 UNK         0.5000 
     78 O          -3.2959  -20.3912  -52.5571 O.2       13 UNK        -0.5000 
     79 N          -3.4688  -21.1709  -50.4400 N.am      14 UNK        -0.5000 
     80 CA         -4.7034  -20.4778  -50.0664 C.3       14 UNK         0.1400 
     81 CB         -4.3723  -19.4328  -48.9991 C.3       14 UNK        -0.1800 
     82 C          -5.7779  -21.4473  -49.5408 C.2       14 UNK         0.5000 
     83 O          -6.8895  -21.0070  -49.2467 O.2       14 UNK        -0.5000 
     84 N          -5.4352  -22.7339  -49.3977 N.am      15 UNK        -0.5000 
     85 CA         -6.2578  -23.7365  -48.7197 C.3       15 UNK         0.1400 
     86 CB         -5.3163  -24.6874  -47.9614 C.3       15 UNK        -0.1800 
     87 C          -7.1598  -24.5352  -49.6773 C.2       15 UNK         0.5000 
     88 O          -7.9389  -25.3621  -49.2031 O.2       15 UNK        -0.5000 
     89 N          -6.9973  -24.3284  -50.9938 N.am      16 UNK        -0.5000 
     90 CA         -7.5309  -25.1380  -52.0987 C.3       16 UNK         0.1400 
     91 CB         -9.0710  -25.2268  -52.0670 C.3       16 UNK        -0.1800 
     92 C          -6.8472  -26.5193  -52.2078 C.2       16 UNK         0.5000 
     93 O          -7.3297  -27.3820  -52.9427 O.2       16 UNK        -0.5000 
     94 N          -5.7301  -26.7001  -51.4887 N.am      17 UNK        -0.5000 
     95 CA         -4.9196  -27.9128  -51.4791 C.3       17 UNK         0.1400 
     96 CB         -4.2132  -28.0430  -50.1204 C.3       17 UNK        -0.1800 
     97 C          -3.9190  -27.8963  -52.6430 C.2       17 UNK         0.5000 
     98 O          -3.9055  -28.8339  -53.4416 O.2       17 UNK        -0.5000 
     99 N          -3.1314  -26.8160  -52.7379 N.am      18 UNK        -0.5000 
    100 CA        -2.2438  -26.5518  -53.8722 C.3       18 UNK         0.1400 
    101 CB        -0.8892  -26.0329  -53.3650 C.3       18 UNK        -0.1800 
    102 C         -2.8820  -25.5409  -54.8382 C.2       18 UNK         0.5000 
    103 O         -2.7236  -25.6800  -56.0513 O.2       18 UNK        -0.5000 
    104 N         -3.6028  -24.5574  -54.2866 N.am      19 UNK        -0.5000 
    105 CA        -4.3036  -23.4882  -54.9895 C.3       19 UNK         0.1400 
    106 CB        -3.3005  -22.5156  -55.6499 C.3       19 UNK        -0.1800 
    107 C         -5.1895  -22.7530  -53.9731 C.2       19 UNK         0.5000 
    108 O         -5.1482  -23.0648  -52.7795 O.2       19 UNK        -0.5000 
    109 N         -5.9504  -21.7698  -54.4556 N.am      20 UNK        -0.5000 
    110 CA        -6.6964  -20.8097  -53.6459 C.3       20 UNK         0.1400 
    111 CB        -8.1923  -21.1724  -53.6626 C.3       20 UNK        -0.1800 
    112 C         -6.3911  -19.4020  -54.1884 C.2       20 UNK         0.5000 
    113 O         -7.3054  -18.6637  -54.5584 O.2       20 UNK        -0.5000 
    114 N         -5.0922  -19.0963  -54.2968 N.am      21 UNK        -0.5000 
    115 CA        -4.5530  -17.9237  -54.9849 C.3       21 UNK         0.1400 
    116 CB        -3.5610  -18.4078  -56.0555 C.3       21 UNK        -0.1800 
    117 C         -3.8571  -16.9312  -54.0381 C.2       21 UNK         0.5000 
    118 O         -3.8275  -15.7405  -54.3537 O.2       21 UNK        -0.5000 
    119 N         -3.2928  -17.4206  -52.9255 N.am      22 UNK        -0.5000 
    120 CA        -2.5567  -16.6117  -51.9376 C.3       22 UNK         0.1400 
    121 C         -3.5148  -15.9857  -50.8790 C.2       22 UNK         0.5000 
    122 N         -3.2559  -16.1021  -49.5840 N.am      22 UNK        -0.7600 
    123 O         -4.4918  -15.3286  -51.2290 O.2       22 UNK        -0.5000 
    124 C124       -1.3295  -17.3739  -51.3645 C.3       23 UNK        -0.0398 
    125 S125       -0.1331  -17.8035  -52.6772 S.3       23 UNK        -0.2404 
    126 C126        1.3305  -16.7956  -52.2472 C.3       23 UNK        -0.0205 
    127 H127       -1.5673  -18.9670  -45.0849 H         1 UNK         0.0600 
    128 H128       -2.0112  -19.9808  -46.4664 H         1 UNK         0.0600 
    129 H129       -3.0379  -18.6266  -45.9954 H         1 UNK         0.0600 
    130 H130        0.1339  -17.6162  -45.5995 H         1 UNK         0.3000 
    131 H131        0.8740  -16.8108  -48.1896 H         1 UNK         0.0600 
    132 H132        1.5290  -15.4905  -45.4991 H         1 UNK         0.0800 
    133 H133        2.3901  -16.8373  -46.1937 H         1 UNK         0.0800 
    134 H134        4.6789  -16.4346  -47.3297 H         1 UNK         0.0800 
    135 H135        4.8570  -15.3105  -48.6532 H         1 UNK         0.0800 
    136 H136        2.6359  -15.3611  -50.3358 H         1 UNK         0.1150 
    137 H137        1.9004  -19.4044  -51.5626 H         1 UNK         0.1150 
    138 H138        4.1843  -18.6231  -48.0292 H         1 UNK         0.1150 
    139 H139        3.9135  -21.0360  -50.3732 H         1 UNK         0.0800 
    140 H140        3.7964  -20.8703  -48.6384 H         1 UNK         0.0800 
    141 H141       -0.0044  -20.3883  -48.4443 H         1 UNK         0.0800 
    142 H142        1.5183  -20.2709  -47.6130 H         1 UNK         0.0800 
    143 H143        1.2761  -22.7968  -47.0408 H         1 UNK         0.0600 
    144 H144        0.3559  -20.5626  -45.6872 H         1 UNK         0.3000 
    145 H145       -0.8317  -20.6344  -43.5358 H         1 UNK         0.0600 
    146 H146       -0.6612  -21.6299  -41.2854 H         1 UNK         0.0600 
    147 H147       -1.5289  -22.7175  -42.3579 H         1 UNK         0.0600 
    148 H148        0.1473  -23.0554  -41.9365 H         1 UNK         0.0600 
    149 H149        1.7282  -21.2519  -42.3241 H         1 UNK         0.3000 
    150 H150        3.7815  -20.2276  -43.2455 H         1 UNK         0.0600 
    151 H151        3.8336  -18.5803  -45.1204 H         1 UNK         0.0600 
    152 H152        4.7913  -18.0312  -43.7541 H         1 UNK         0.0600 
    153 H153        3.2048  -17.3302  -44.0492 H         1 UNK         0.0600 
    154 H154        2.9992  -17.8502  -41.7170 H         1 UNK         0.3000 
    155 H155        2.8534  -19.6290  -38.5951 H         1 UNK         0.0600 
    156 H156        4.5940  -17.4080  -39.7986 H         1 UNK         0.0600 
    157 H157        5.1876  -18.8891  -39.0547 H         1 UNK         0.0600 
    158 H158        4.3307  -17.7032  -38.0817 H         1 UNK         0.0600 
    159 H159        2.0739  -17.1235  -40.0490 H         1 UNK         0.3000 
    160 H160       -1.2512  -17.3784  -38.9298 H         1 UNK         0.0600 
    161 H161        0.7927  -15.2767  -38.0249 H         1 UNK         0.0600 
    162 H162       -0.2598  -16.1985  -36.9570 H         1 UNK         0.0600 
    163 H163       -0.9559  -15.0581  -38.0974 H         1 UNK         0.0600 
    164 H164        0.1415  -15.3578  -40.3981 H         1 UNK         0.3000 
    165 H165        0.4066  -16.9374  -43.4948 H         1 UNK         0.0600 
    166 H166       -1.1810  -15.2444  -44.3832 H         1 UNK         0.0600 
    167 H167       -2.0514  -16.5511  -43.6025 H         1 UNK         0.0600 
    168 H168       -1.8588  -15.0044  -42.7795 H         1 UNK         0.0600 
    169 H169        0.5655  -14.2262  -43.1129 H         1 UNK         0.3000 
    170 H170        3.3968  -13.6867  -41.2118 H         1 UNK         0.0600 
    171 H171        4.6834  -14.7987  -43.0538 H         1 UNK         0.0600 
    172 H172        3.6520  -14.0284  -44.2524 H         1 UNK         0.0600 
    173 H173        4.7066  -13.0519  -43.2295 H         1 UNK         0.0600 
    174 H174        2.3401  -12.1534  -43.3641 H         1 UNK         0.3000 
    175 H175       -0.6810  -11.1196  -42.1364 H         1 UNK         0.0600 
    176 H176        1.7817   -9.3394  -41.7255 H         1 UNK         0.0600 
    177 H177        0.1162   -8.7831  -41.8984 H         1 UNK         0.0600 
    178 H178        0.5867   -9.7222  -40.4922 H         1 UNK         0.0600 
    179 H179        0.9351   -9.7971  -44.0175 H         1 UNK         0.3000 
    180 H180        0.0607  -10.1621  -46.3368 H         1 UNK         0.0600 
    181 H181        2.5775  -11.9433  -46.1940 H         1 UNK         0.0600 
    182 H182        2.5044  -10.2511  -45.7200 H         1 UNK         0.0600 
    183 H183        2.3014  -10.6924  -47.4015 H         1 UNK         0.0600 
    184 H184       -0.3342  -12.9623  -46.6238 H         1 UNK         0.3000 
    185 H185       -1.7659  -13.3121  -48.9441 H         1 UNK         0.0600 
    186 H186       -1.0662  -12.2633  -51.0730 H         1 UNK         0.0600 
    187 H187        0.5180  -13.0241  -50.9648 H         1 UNK         0.0600 
    188 H188       -0.9276  -14.0080  -51.1860 H         1 UNK         0.0600 
    189 H189        0.7752  -14.7497  -49.2338 H         1 UNK         0.3000 
    190 H190        0.4819  -24.2612  -48.4779 H         1 UNK         0.3000 
    191 H191       -2.2671  -25.0602  -48.4855 H         1 UNK         0.0600 
    192 H192       -1.4011  -26.7054  -50.2085 H         1 UNK         0.0600 
    193 H193       -0.4149  -26.6713  -48.7580 H         1 UNK         0.0600 
    194 H194        0.1345  -25.8572  -50.2224 H         1 UNK         0.0600 
    195 H195       -0.5408  -22.7173  -50.3368 H         1 UNK         0.3000 
    196 H196       -2.1146  -22.7914  -52.7474 H         1 UNK         0.0600 
    197 H197       -0.1637  -20.6815  -51.7130 H         1 UNK         0.0600 
    198 H198        0.2853  -22.0871  -52.6806 H         1 UNK         0.0600 
    199 H199       -0.7415  -20.8384  -53.3657 H         1 UNK         0.0600 
    200 H200       -3.0520  -21.7595  -49.7322 H         1 UNK         0.3000 
    201 H201       -5.1324  -19.9555  -50.9219 H         1 UNK         0.0600 
    202 H202       -3.6624  -18.7154  -49.3978 H         1 UNK         0.0600 
    203 H203       -3.9354  -19.8882  -48.1103 H         1 UNK         0.0600 
    204 H204       -5.2578  -18.8756  -48.6912 H         1 UNK         0.0600 
    205 H205       -4.5486  -23.0503  -49.7640 H         1 UNK         0.3000 
    206 H206       -6.9064  -23.2503  -47.9879 H         1 UNK         0.0600 
    207 H207       -4.6622  -24.1394  -47.2825 H         1 UNK         0.0600 
    208 H208       -5.8802  -25.4021  -47.3607 H         1 UNK         0.0600 
    209 H209       -4.6886  -25.2594  -48.6441 H         1 UNK         0.0600 
    210 H210       -6.3118  -23.6377  -51.2868 H         1 UNK         0.3000 
    211 H211       -7.2700  -24.6088  -53.0144 H         1 UNK         0.0600 
    212 H212       -9.4537  -25.6422  -52.9997 H         1 UNK         0.0600 
    213 H213       -9.5210  -24.2418  -51.9430 H         1 UNK         0.0600 
    214 H214       -9.4291  -25.8665  -51.2605 H         1 UNK         0.0600 
    215 H215       -5.3890  -25.9206  -50.9463 H         1 UNK         0.3000 
    216 H216       -5.5674  -28.7834  -51.6033 H         1 UNK         0.0600 
    217 H217       -3.6349  -27.1534  -49.8756 H         1 UNK         0.0600 
    218 H218       -3.5330  -28.8956  -50.1102 H         1 UNK         0.0600 
    219 H219       -4.9368  -28.1945  -49.3192 H         1 UNK         0.0600 
    220 H220       -3.2090  -26.0849  -52.0390 H         1 UNK         0.3000 
    221 H221       -2.0545  -27.4712  -54.4302 H         1 UNK         0.0600 
    222 H222       -0.4313  -26.7385  -52.6720 H         1 UNK         0.0600 
    223 H223       -0.9820  -25.0734  -52.8590 H         1 UNK         0.0600 
    224 H224       -0.1937  -25.8949  -54.1936 H         1 UNK         0.0600 
    225 H225       -3.7284  -24.5211  -53.2814 H         1 UNK         0.3000 
    226 H226       -4.9488  -23.9309  -55.7505 H         1 UNK         0.0600 
    227 H227       -2.6663  -22.0235  -54.9129 H         1 UNK         0.0600 
    228 H228       -2.6492  -23.0252  -56.3591 H         1 UNK         0.0600 
    229 H229       -3.8147  -21.7325  -56.2075 H         1 UNK         0.0600 
    230 H230       -5.9162  -21.5635  -55.4445 H         1 UNK         0.3000 
    231 H231       -6.3547  -20.8338  -52.6116 H         1 UNK         0.0600 
    232 H232       -8.5989  -21.1593  -54.6744 H         1 UNK         0.0600 
    233 H233       -8.7716  -20.4699  -53.0624 H         1 UNK         0.0600 
    234 H234       -8.3582  -22.1666  -53.2475 H         1 UNK         0.0600 
    235 H235       -4.4112  -19.7331  -53.8893 H         1 UNK         0.3000 
    236 H236       -5.3530  -17.3793  -55.4909 H         1 UNK         0.0600 
    237 H237       -4.0522  -19.0523  -56.7846 H         1 UNK         0.0600 
    238 H238       -3.1319  -17.5671  -56.6022 H         1 UNK         0.0600 
    239 H239       -2.7361  -18.9691  -55.6139 H         1 UNK         0.0600 
    240 H240       -3.3458  -18.4161  -52.7409 H         1 UNK         0.3000 
    241 H241       -2.1417  -15.7451  -52.4553 H         1 UNK         0.0600 
    242 H242       -3.8818  -15.6574  -48.9329 H         1 UNK         0.3800 
    243 H243       -2.5223  -16.7054  -49.2183 H         1 UNK         0.3800 
    244 H244       -1.6450  -18.2946  -50.8721 H         1 UNK         0.0800 
    245 H245       -0.8176  -16.7768  -50.6088 H         1 UNK         0.0800 
    246 H246        1.0091  -15.7682  -52.0698 H         1 UNK         0.0800 
    247 H247        1.9912  -16.7650  -53.1142 H         1 UNK         0.0800 
@<TRIPOS>BOND
     1    1    2 1    
     2    1  127 1    
     3    1  128 1    
     4    1  129 1    
     5    2    3 2    
     6    2    4 am   BACKBONE|DICT|INTERRES
     7    4    5 1    
     8    4  130 1    
     9    5    6 1    
    10    5   65 1    
    11    5  131 1    
    12    6    7 1    
    13    6  132 1    
    14    6  133 1    
    15    7    8 1    
    16    8    9 1    
    17    8  134 1    
    18    8  135 1    
    19    9   10 ar   
    20    9   14 ar   
    21   10   11 ar   
    22   10  136 1    
    23   11   12 ar   
    24   11  126 1    
    25   12   13 ar   
    26   12  137 1    
    27   13   14 ar   
    28   13   15 1    
    29   14  138 1    
    30   15   16 1    
    31   15  139 1    
    32   15  140 1    
    33   16   17 1    
    34   17   18 1    
    35   17  141 1    
    36   17  142 1    
    37   18   19 1    
    38   18   67 1    
    39   18  143 1    
    40   19   20 am   BACKBONE|DICT|INTERRES
    41   19  144 1    
    42   20   21 2    
    43   20   22 1    
    44   22   23 1    
    45   22   24 1    
    46   22  145 1    
    47   23  146 1    
    48   23  147 1    
    49   23  148 1    
    50   24   25 am   BACKBONE|DICT|INTERRES
    51   24  149 1    
    52   25   26 2    
    53   25   27 1    
    54   27   28 1    
    55   27   29 1    
    56   27  150 1    
    57   28  151 1    
    58   28  152 1    
    59   28  153 1    
    60   29   30 am   BACKBONE|DICT|INTERRES
    61   29  154 1    
    62   30   31 2    
    63   30   32 1    
    64   32   33 1    
    65   32   34 1    
    66   32  155 1    
    67   33  156 1    
    68   33  157 1    
    69   33  158 1    
    70   34   35 am   BACKBONE|DICT|INTERRES
    71   34  159 1    
    72   35   36 2    
    73   35   37 1    
    74   37   38 1    
    75   37   39 1    
    76   37  160 1    
    77   38  161 1    
    78   38  162 1    
    79   38  163 1    
    80   39   40 am   BACKBONE|DICT|INTERRES
    81   39  164 1    
    82   40   41 2    
    83   40   42 1    
    84   42   43 1    
    85   42   44 1    
    86   42  165 1    
    87   43  166 1    
    88   43  167 1    
    89   43  168 1    
    90   44   45 am   BACKBONE|DICT|INTERRES
    91   44  169 1    
    92   45   46 2    
    93   45   47 1    
    94   47   48 1    
    95   47   49 1    
    96   47  170 1    
    97   48  171 1    
    98   48  172 1    
    99   48  173 1    
   100   49   50 am   BACKBONE|DICT|INTERRES
   101   49  174 1    
   102   50   51 2    
   103   50   52 1    
   104   52   53 1    
   105   52   54 1    
   106   52  175 1    
   107   53  176 1    
   108   53  177 1    
   109   53  178 1    
   110   54   55 am   BACKBONE|DICT|INTERRES
   111   54  179 1    
   112   55   56 2    
   113   55   57 1    
   114   57   58 1    
   115   57   59 1    
   116   57  180 1    
   117   58  181 1    
   118   58  182 1    
   119   58  183 1    
   120   59   60 am   BACKBONE|DICT|INTERRES
   121   59  184 1    
   122   60   61 2    
   123   60   62 1    
   124   62   63 1    
   125   62   64 1    
   126   62  185 1    
   127   63  186 1    
   128   63  187 1    
   129   63  188 1    
   130   64   65 am   BACKBONE|DICT|INTERRES
   131   64  189 1    
   132   65   66 2    
   133   67   68 2    
   134   67   69 am   BACKBONE|DICT|INTERRES
   135   69   70 1    
   136   69  190 1    
   137   70   71 1    
   138   70   72 1    
   139   70  191 1    
   140   71  192 1    
   141   71  193 1    
   142   71  194 1    
   143   72   73 2    
   144   72   74 am   BACKBONE|DICT|INTERRES
   145   74   75 1    
   146   74  195 1    
   147   75   76 1    
   148   75   77 1    
   149   75  196 1    
   150   76  197 1    
   151   76  198 1    
   152   76  199 1    
   153   77   78 2    
   154   77   79 am   BACKBONE|DICT|INTERRES
   155   79   80 1    
   156   79  200 1    
   157   80   81 1    
   158   80   82 1    
   159   80  201 1    
   160   81  202 1    
   161   81  203 1    
   162   81  204 1    
   163   82   83 2    
   164   82   84 am   BACKBONE|DICT|INTERRES
   165   84   85 1    
   166   84  205 1    
   167   85   86 1    
   168   85   87 1    
   169   85  206 1    
   170   86  207 1    
   171   86  208 1    
   172   86  209 1    
   173   87   88 2    
   174   87   89 am   BACKBONE|DICT|INTERRES
   175   89   90 1    
   176   89  210 1    
   177   90   91 1    
   178   90   92 1    
   179   90  211 1    
   180   91  212 1    
   181   91  213 1    
   182   91  214 1    
   183   92   93 2    
   184   92   94 am   BACKBONE|DICT|INTERRES
   185   94   95 1    
   186   94  215 1    
   187   95   96 1    
   188   95   97 1    
   189   95  216 1    
   190   96  217 1    
   191   96  218 1    
   192   96  219 1    
   193   97   98 2    
   194   97   99 am   BACKBONE|DICT|INTERRES
   195   99  100 1    
   196   99  220 1    
   197  100  101 1    
   198  100  102 1    
   199  100  221 1    
   200  101  222 1    
   201  101  223 1    
   202  101  224 1    
   203  102  103 2    
   204  102  104 am   BACKBONE|DICT|INTERRES
   205  104  105 1    
   206  104  225 1    
   207  105  106 1    
   208  105  107 1    
   209  105  226 1    
   210  106  227 1    
   211  106  228 1    
   212  106  229 1    
   213  107  108 2    
   214  107  109 am   BACKBONE|DICT|INTERRES
   215  109  110 1    
   216  109  230 1    
   217  110  111 1    
   218  110  112 1    
   219  110  231 1    
   220  111  232 1    
   221  111  233 1    
   222  111  234 1    
   223  112  113 2    
   224  112  114 am   BACKBONE|DICT|INTERRES
   225  114  115 1    
   226  114  235 1    
   227  115  116 1    
   228  115  117 1    
   229  115  236 1    
   230  116  237 1    
   231  116  238 1    
   232  116  239 1    
   233  117  118 2    
   234  117  119 am   BACKBONE|DICT|INTERRES
   235  119  120 1    
   236  119  240 1    
   237  120  121 1    
   238  120  124 1    
   239  120  241 1    
   240  121  122 am   BACKBONE|DICT|INTERRES
   241  121  123 2    
   242  122  242 1    
   243  122  243 1    
   244  124  125 1    
   245  124  244 1    
   246  124  245 1    
   247  125  126 1    
   248  126  246 1    
   249  126  247 1    
@<TRIPOS>SUBSTRUCTURE
     1 UNK         1 GROUP             0       ****    0 ROOT    
