@<TRIPOS>MOLECULE
3R540
247   249    1
SMALL
USER_CHARGES


@<TRIPOS>ATOM
      1 CA          1.3482  -11.1857  -48.9362 C.3       0 UNK        -0.1800 
      2 C           1.1111  -12.2564  -47.8807 C.2       0 UNK         0.5000 
      3 O           1.2396  -11.9813  -46.6890 O.2       0 UNK        -0.5000 
      4 N           0.7715  -13.4759  -48.3136 N.am      1 UNK        -0.5000 
      5 CA          0.4212  -14.6106  -47.4539 C.3       1 UNK         0.1400 
      6 C6          0.4740  -15.9547  -48.2225 C.3       23 UNK        -0.0398 
      7 S7         -0.5036  -15.9748  -49.7685 S.3       23 UNK        -0.2404 
      8 C8          0.7847  -16.3062  -51.0102 C.3       23 UNK        -0.0205 
      9 C9          1.1553  -17.7808  -51.0513 C.ar      23 UNK        -0.0193 
     10 C10         0.3764  -18.6670  -51.7990 C.ar      23 UNK        -0.1150 
     11 C11         0.7092  -20.0208  -51.8631 C.ar      23 UNK        -0.0193 
     12 C12         1.8319  -20.4871  -51.1767 C.ar      23 UNK        -0.1150 
     13 C13         2.6215  -19.6146  -50.4223 C.ar      23 UNK        -0.0193 
     14 C14         2.2768  -18.2597  -50.3648 C.ar      23 UNK        -0.1150 
     15 C15         3.8737  -20.1189  -49.7127 C.3       23 UNK        -0.0205 
     16 S16         3.6131  -21.6568  -48.7652 S.3       23 UNK        -0.2404 
     17 C17         2.6075  -21.0629  -47.3677 C.3       23 UNK        -0.0398 
     18 CA          1.4079  -21.9918  -47.0492 C.3       11 UNK         0.1400 
     19 N           1.0476  -21.9387  -45.6284 N.am      11 UNK        -0.5000 
     20 C           0.1298  -22.7102  -45.0271 C.2       10 UNK         0.5000 
     21 O          -0.4958  -23.6059  -45.5951 O.2       10 UNK        -0.5000 
     22 CA         -0.1767  -22.3913  -43.5513 C.3       10 UNK         0.1400 
     23 CB          0.8381  -23.0734  -42.6222 C.3       10 UNK        -0.1800 
     24 N          -0.2109  -20.9525  -43.2788 N.am      10 UNK        -0.5000 
     25 C          -1.0869  -20.0971  -43.8253 C.2       9 UNK         0.5000 
     26 O          -1.9979  -20.4416  -44.5749 O.2       9 UNK        -0.5000 
     27 CA         -0.8747  -18.5985  -43.5517 C.3       9 UNK         0.1400 
     28 CB         -1.4375  -18.1942  -42.1818 C.3       9 UNK        -0.1800 
     29 N           0.5303  -18.2038  -43.6521 N.am      9 UNK        -0.5000 
     30 C           1.2578  -18.2875  -44.7749 C.2       8 UNK         0.5000 
     31 O           0.7928  -18.6181  -45.8654 O.2       8 UNK        -0.5000 
     32 CA          2.7617  -17.9951  -44.6479 C.3       8 UNK         0.1400 
     33 CB          3.0409  -16.4882  -44.7461 C.3       8 UNK        -0.1800 
     34 N           3.3080  -18.5192  -43.3961 N.am      8 UNK        -0.5000 
     35 C           3.4965  -19.8229  -43.1468 C.2       7 UNK         0.5000 
     36 O           3.2573  -20.7129  -43.9621 O.2       7 UNK        -0.5000 
     37 CA          3.9924  -20.1961  -41.7374 C.3       7 UNK         0.1400 
     38 CB          5.5167  -20.0357  -41.6390 C.3       7 UNK        -0.1800 
     39 N           3.3519  -19.4023  -40.6879 N.am      7 UNK        -0.5000 
     40 C           2.0471  -19.4591  -40.3855 C.2       6 UNK         0.5000 
     41 O           1.2564  -20.2293  -40.9273 O.2       6 UNK        -0.5000 
     42 CA          1.5263  -18.4548  -39.3396 C.3       6 UNK         0.1400 
     43 CB          1.5988  -19.0616  -37.9307 C.3       6 UNK        -0.1800 
     44 N           2.2312  -17.1696  -39.3505 N.am      6 UNK        -0.5000 
     45 C           2.3054  -16.3394  -40.3994 C.2       5 UNK         0.5000 
     46 O           1.8111  -16.5845  -41.5036 O.2       5 UNK        -0.5000 
     47 CA          3.1380  -15.0617  -40.1840 C.3       5 UNK         0.1400 
     48 CB          4.6355  -15.3834  -40.3173 C.3       5 UNK        -0.1800 
     49 N           2.8112  -13.9948  -41.1296 N.am      5 UNK        -0.5000 
     50 C           1.6410  -13.3491  -41.2064 C.2       4 UNK         0.5000 
     51 O           0.6910  -13.5642  -40.4495 O.2       4 UNK        -0.5000 
     52 CA          1.5153  -12.2664  -42.2944 C.3       4 UNK         0.1400 
     53 CB          2.4506  -12.4851  -43.5047 C.3       4 UNK        -0.1800 
     54 N           0.1273  -12.1978  -42.7381 N.am      4 UNK        -0.5000 
     55 C          -0.4635  -11.1573  -43.3354 C.2       3 UNK         0.5000 
     56 O           0.1043  -10.0819  -43.5369 O.2       3 UNK        -0.5000 
     57 CA         -1.9242  -11.3648  -43.7984 C.3       3 UNK         0.1400 
     58 CB         -2.3987  -10.2672  -44.7679 C.3       3 UNK        -0.1800 
     59 N          -2.0963  -12.6636  -44.4513 N.am      3 UNK        -0.5000 
     60 C          -2.3344  -13.8286  -43.8408 C.2       2 UNK         0.5000 
     61 O          -2.5227  -13.9279  -42.6289 O.2       2 UNK        -0.5000 
     62 CA         -2.2690  -15.1063  -44.6999 C.3       2 UNK         0.1400 
     63 CB         -3.6074  -15.4020  -45.4027 C.3       2 UNK        -0.1800 
     64 N          -1.1317  -15.1417  -45.6337 N.am      2 UNK        -0.5000 
     65 C          -0.9303  -14.4008  -46.7341 C.2       1 UNK         0.5000 
     66 O          -1.7397  -13.5712  -47.1577 O.2       1 UNK        -0.5000 
     67 C           0.1960  -21.7076  -47.9635 C.2       11 UNK         0.5000 
     68 O          -0.0328  -22.4482  -48.9206 O.2       11 UNK        -0.5000 
     69 N          -0.5903  -20.6788  -47.6129 N.am      12 UNK        -0.5000 
     70 CA         -1.8520  -20.3530  -48.2734 C.3       12 UNK         0.1400 
     71 CB         -2.3340  -18.9651  -47.8271 C.3       12 UNK        -0.1800 
     72 C          -2.9375  -21.4133  -48.0193 C.2       12 UNK         0.5000 
     73 O          -3.5935  -21.8426  -48.9688 O.2       12 UNK        -0.5000 
     74 N          -3.1170  -21.8237  -46.7550 N.am      13 UNK        -0.5000 
     75 CA         -4.1256  -22.7938  -46.3121 C.3       13 UNK         0.1400 
     76 CB         -4.0661  -22.9557  -44.7873 C.3       13 UNK        -0.1800 
     77 C          -4.0117  -24.1641  -47.0022 C.2       13 UNK         0.5000 
     78 O          -5.0368  -24.7536  -47.3462 O.2       13 UNK        -0.5000 
     79 N          -2.7736  -24.6070  -47.2609 N.am      14 UNK        -0.5000 
     80 CA         -2.4476  -25.8128  -48.0283 C.3       14 UNK         0.1400 
     81 CB         -0.9290  -26.0381  -47.9723 C.3       14 UNK        -0.1800 
     82 C          -2.9336  -25.7808  -49.4946 C.2       14 UNK         0.5000 
     83 O          -3.0851  -26.8412  -50.1018 O.2       14 UNK        -0.5000 
     84 N          -3.1874  -24.5784  -50.0251 N.am      15 UNK        -0.5000 
     85 CA         -3.7161  -24.3156  -51.3611 C.3       15 UNK         0.1400 
     86 CB         -2.7527  -23.3560  -52.0714 C.3       15 UNK        -0.1800 
     87 C          -5.1517  -23.7535  -51.2978 C.2       15 UNK         0.5000 
     88 O          -5.5648  -23.0302  -52.2072 O.2       15 UNK        -0.5000 
     89 N          -5.8848  -24.0856  -50.2229 N.am      16 UNK        -0.5000 
     90 CA         -7.2731  -23.7034  -49.9423 C.3       16 UNK         0.1400 
     91 CB         -8.2337  -24.3417  -50.9681 C.3       16 UNK        -0.1800 
     92 C          -7.4486  -22.1773  -49.8070 C.2       16 UNK         0.5000 
     93 O          -8.3317  -21.5936  -50.4353 O.2       16 UNK        -0.5000 
     94 N          -6.5733  -21.5673  -48.9952 N.am      17 UNK        -0.5000 
     95 CA         -6.4317  -20.1247  -48.7596 C.3       17 UNK         0.1400 
     96 CB         -7.7100  -19.5173  -48.1445 C.3       17 UNK        -0.1800 
     97 C          -5.9398  -19.3894  -50.0228 C.2       17 UNK         0.5000 
     98 O          -6.4561  -18.3260  -50.3694 O.2       17 UNK        -0.5000 
     99 N          -4.9427  -19.9985  -50.6823 N.am      18 UNK        -0.5000 
    100 CA        -4.2887  -19.5693  -51.9212 C.3       18 UNK         0.1400 
    101 CB        -3.4524  -18.2951  -51.6814 C.3       18 UNK        -0.1800 
    102 C         -5.2553  -19.4485  -53.1189 C.2       18 UNK         0.5000 
    103 O         -5.0514  -18.5986  -53.9883 O.2       18 UNK        -0.5000 
    104 N         -6.2787  -20.3106  -53.1562 N.am      19 UNK        -0.5000 
    105 CA        -7.2402  -20.4021  -54.2522 C.3       19 UNK         0.1400 
    106 CB        -8.5660  -20.9645  -53.7198 C.3       19 UNK        -0.1800 
    107 C         -6.7068  -21.2726  -55.4020 C.2       19 UNK         0.5000 
    108 O         -6.9376  -20.9457  -56.5671 O.2       19 UNK        -0.5000 
    109 N         -6.0061  -22.3606  -55.0589 N.am      20 UNK        -0.5000 
    110 CA        -5.3628  -23.2631  -56.0098 C.3       20 UNK         0.1400 
    111 CB        -5.3116  -24.6696  -55.3933 C.3       20 UNK        -0.1800 
    112 C         -3.9425  -22.7727  -56.3293 C.2       20 UNK         0.5000 
    113 O         -3.2685  -22.2646  -55.4319 O.2       20 UNK        -0.5000 
    114 N         -3.5013  -22.9735  -57.5800 N.am      21 UNK        -0.5000 
    115 CA        -2.1506  -22.7165  -58.1001 C.3       21 UNK         0.1400 
    116 CB        -1.1883  -23.8228  -57.6114 C.3       21 UNK        -0.1800 
    117 C         -1.6447  -21.2868  -57.8008 C.2       21 UNK         0.5000 
    118 O         -2.0378  -20.3461  -58.4923 O.2       21 UNK        -0.5000 
    119 N         -0.8018  -21.1587  -56.7699 N.am      22 UNK        -0.5000 
    120 CA        -0.3255  -19.9042  -56.1674 C.3       22 UNK         0.1400 
    121 C         -1.4239  -19.0247  -55.4996 C.2       22 UNK         0.5000 
    122 N         -2.6046  -19.5497  -55.2064 N.am      22 UNK        -0.7600 
    123 O         -1.2009  -17.8414  -55.2603 O.2       22 UNK        -0.5000 
    124 C124        0.8666  -20.1549  -55.2002 C.3       23 UNK        -0.0398 
    125 S125        0.6946  -21.6347  -54.1314 S.3       23 UNK        -0.2404 
    126 C126       -0.1513  -20.9881  -52.6549 C.3       23 UNK        -0.0205 
    127 H127        0.6551  -10.3571  -48.7906 H         1 UNK         0.0600 
    128 H128        1.2081  -11.5732  -49.9457 H         1 UNK         0.0600 
    129 H129        2.3645  -10.7997  -48.8576 H         1 UNK         0.0600 
    130 H130        0.6327  -13.6313  -49.3017 H         1 UNK         0.3000 
    131 H131        1.1796  -14.6546  -46.6703 H         1 UNK         0.0600 
    132 H132        1.5149  -16.1812  -48.4510 H         1 UNK         0.0800 
    133 H133        0.1403  -16.7785  -47.5927 H         1 UNK         0.0800 
    134 H134        0.4115  -16.0007  -51.9890 H         1 UNK         0.0800 
    135 H135        1.6633  -15.6889  -50.8169 H         1 UNK         0.0800 
    136 H136       -0.4881  -18.2990  -52.3332 H         1 UNK         0.1150 
    137 H137        2.0901  -21.5352  -51.2342 H         1 UNK         0.1150 
    138 H138        2.8908  -17.5747  -49.7979 H         1 UNK         0.1150 
    139 H139        4.6412  -20.3024  -50.4655 H         1 UNK         0.0800 
    140 H140        4.2765  -19.3565  -49.0440 H         1 UNK         0.0800 
    141 H141        2.2828  -20.0355  -47.5401 H         1 UNK         0.0800 
    142 H142        3.2857  -21.0184  -46.5163 H         1 UNK         0.0800 
    143 H143        1.7151  -23.0233  -47.2355 H         1 UNK         0.0600 
    144 H144        1.5487  -21.2641  -45.0621 H         1 UNK         0.3000 
    145 H145       -1.1635  -22.7945  -43.3200 H         1 UNK         0.0600 
    146 H146        0.5789  -22.9179  -41.5748 H         1 UNK         0.0600 
    147 H147        0.8629  -24.1501  -42.7946 H         1 UNK         0.0600 
    148 H148        1.8476  -22.6927  -42.7760 H         1 UNK         0.0600 
    149 H149        0.4697  -20.6002  -42.6110 H         1 UNK         0.3000 
    150 H150       -1.4239  -18.0563  -44.3226 H         1 UNK         0.0600 
    151 H151       -2.5143  -18.3628  -42.1412 H         1 UNK         0.0600 
    152 H152       -1.2634  -17.1380  -41.9743 H         1 UNK         0.0600 
    153 H153       -0.9880  -18.7718  -41.3752 H         1 UNK         0.0600 
    154 H154        0.9813  -17.8714  -42.8053 H         1 UNK         0.3000 
    155 H155        3.2716  -18.4881  -45.4784 H         1 UNK         0.0600 
    156 H156        2.4954  -15.9211  -43.9915 H         1 UNK         0.0600 
    157 H157        4.1026  -16.2747  -44.6220 H         1 UNK         0.0600 
    158 H158        2.7494  -16.1060  -45.7238 H         1 UNK         0.0600 
    159 H159        3.4549  -17.8528  -42.6517 H         1 UNK         0.3000 
    160 H160        3.7473  -21.2465  -41.5658 H         1 UNK         0.0600 
    161 H161        5.8239  -18.9977  -41.7732 H         1 UNK         0.0600 
    162 H162        6.0212  -20.6291  -42.4027 H         1 UNK         0.0600 
    163 H163        5.8866  -20.3728  -40.6705 H         1 UNK         0.0600 
    164 H164        3.9331  -18.7446  -40.1902 H         1 UNK         0.3000 
    165 H165        0.4784  -18.2547  -39.5692 H         1 UNK         0.0600 
    166 H166        1.1470  -18.3996  -37.1917 H         1 UNK         0.0600 
    167 H167        1.0616  -20.0101  -37.8860 H         1 UNK         0.0600 
    168 H168        2.6287  -19.2530  -37.6266 H         1 UNK         0.0600 
    169 H169        2.6795  -16.9016  -38.4860 H         1 UNK         0.3000 
    170 H170        2.9436  -14.6896  -39.1760 H         1 UNK         0.0600 
    171 H171        4.8805  -15.7539  -41.3138 H         1 UNK         0.0600 
    172 H172        5.2468  -14.5006  -40.1287 H         1 UNK         0.0600 
    173 H173        4.9432  -16.1448  -39.5994 H         1 UNK         0.0600 
    174 H174        3.5240  -13.7700  -41.8072 H         1 UNK         0.3000 
    175 H175        1.7763  -11.3191  -41.8186 H         1 UNK         0.0600 
    176 H176        2.3348  -11.6871  -44.2376 H         1 UNK         0.0600 
    177 H177        2.2403  -13.4283  -44.0099 H         1 UNK         0.0600 
    178 H178        3.5011  -12.4830  -43.2131 H         1 UNK         0.0600 
    179 H179       -0.4356  -13.0099  -42.5141 H         1 UNK         0.3000 
    180 H180       -2.5548  -11.3205  -42.9083 H         1 UNK         0.0600 
    181 H181       -1.7883  -10.2407  -45.6718 H         1 UNK         0.0600 
    182 H182       -2.3462   -9.2817  -44.3036 H         1 UNK         0.0600 
    183 H183       -3.4344  -10.4275  -45.0679 H         1 UNK         0.0600 
    184 H184       -1.9295  -12.6934  -45.4532 H         1 UNK         0.3000 
    185 H185       -2.0950  -15.9200  -43.9980 H         1 UNK         0.0600 
    186 H186       -3.5581  -16.3334  -45.9671 H         1 UNK         0.0600 
    187 H187       -4.4116  -15.5055  -44.6734 H         1 UNK         0.0600 
    188 H188       -3.8962  -14.6070  -46.0902 H         1 UNK         0.0600 
    189 H189       -0.3954  -15.7752  -45.3589 H         1 UNK         0.3000 
    190 H190       -0.3159  -20.0984  -46.8277 H         1 UNK         0.3000 
    191 H191       -1.6699  -20.3157  -49.3499 H         1 UNK         0.0600 
    192 H192       -3.2772  -18.7028  -48.3074 H         1 UNK         0.0600 
    193 H193       -2.4861  -18.9106  -46.7491 H         1 UNK         0.0600 
    194 H194       -1.6121  -18.1990  -48.1005 H         1 UNK         0.0600 
    195 H195       -2.5654  -21.3866  -46.0186 H         1 UNK         0.3000 
    196 H196       -5.1036  -22.3802  -46.5632 H         1 UNK         0.0600 
    197 H197       -4.8424  -23.6368  -44.4364 H         1 UNK         0.0600 
    198 H198       -4.2187  -22.0028  -44.2807 H         1 UNK         0.0600 
    199 H199       -3.1071  -23.3603  -44.4662 H         1 UNK         0.0600 
    200 H200       -1.9866  -24.0745  -46.9017 H         1 UNK         0.3000 
    201 H201       -2.9385  -26.6579  -47.5419 H         1 UNK         0.0600 
    202 H202       -0.5851  -26.1538  -46.9442 H         1 UNK         0.0600 
    203 H203       -0.3844  -25.2030  -48.4148 H         1 UNK         0.0600 
    204 H204       -0.6447  -26.9414  -48.5136 H         1 UNK         0.0600 
    205 H205       -3.0630  -23.7559  -49.4448 H         1 UNK         0.3000 
    206 H206       -3.7674  -25.2371  -51.9437 H         1 UNK         0.0600 
    207 H207       -1.7622  -23.8000  -52.1688 H         1 UNK         0.0600 
    208 H208       -3.0979  -23.1186  -53.0751 H         1 UNK         0.0600 
    209 H209       -2.6508  -22.4199  -51.5233 H         1 UNK         0.0600 
    210 H210       -5.4384  -24.6395  -49.5015 H         1 UNK         0.3000 
    211 H211       -7.5146  -24.1236  -48.9649 H         1 UNK         0.0600 
    212 H212       -8.0666  -23.9625  -51.9762 H         1 UNK         0.0600 
    213 H213       -9.2732  -24.1362  -50.7103 H         1 UNK         0.0600 
    214 H214       -8.1150  -25.4247  -50.9956 H         1 UNK         0.0600 
    215 H215       -5.8360  -22.1388  -48.6066 H         1 UNK         0.3000 
    216 H216       -5.6399  -20.0135  -48.0181 H         1 UNK         0.0600 
    217 H217       -7.5384  -18.4855  -47.8361 H         1 UNK         0.0600 
    218 H218       -8.0242  -20.0720  -47.2604 H         1 UNK         0.0600 
    219 H219       -8.5411  -19.5095  -48.8499 H         1 UNK         0.0600 
    220 H220       -4.5827  -20.8580  -50.2778 H         1 UNK         0.3000 
    221 H221       -3.5944  -20.3655  -52.1894 H         1 UNK         0.0600 
    222 H222       -4.0798  -17.4407  -51.4268 H         1 UNK         0.0600 
    223 H223       -2.7364  -18.4382  -50.8724 H         1 UNK         0.0600 
    224 H224       -2.8812  -18.0254  -52.5702 H         1 UNK         0.0600 
    225 H225       -6.3399  -21.0210  -52.4365 H         1 UNK         0.3000 
    226 H226       -7.4336  -19.4020  -54.6460 H         1 UNK         0.0600 
    227 H227       -8.9764  -20.3277  -52.9359 H         1 UNK         0.0600 
    228 H228       -9.3115  -21.0275  -54.5133 H         1 UNK         0.0600 
    229 H229       -8.4406  -21.9650  -53.3049 H         1 UNK         0.0600 
    230 H230       -5.8194  -22.5358  -54.0755 H         1 UNK         0.3000 
    231 H231       -5.9472  -23.3085  -56.9313 H         1 UNK         0.0600 
    232 H232       -4.7208  -24.6858  -54.4766 H         1 UNK         0.0600 
    233 H233       -4.8638  -25.3840  -56.0852 H         1 UNK         0.0600 
    234 H234       -6.3114  -25.0311  -55.1523 H         1 UNK         0.0600 
    235 H235       -4.1461  -23.3675  -58.2507 H         1 UNK         0.3000 
    236 H236       -2.2140  -22.7951  -59.1865 H         1 UNK         0.0600 
    237 H237       -1.5048  -24.8000  -57.9763 H         1 UNK         0.0600 
    238 H238       -0.1754  -23.6562  -57.9807 H         1 UNK         0.0600 
    239 H239       -1.1418  -23.8806  -56.5232 H         1 UNK         0.0600 
    240 H240       -0.5801  -21.9879  -56.2373 H         1 UNK         0.3000 
    241 H241        0.0548  -19.2966  -56.9906 H         1 UNK         0.0600 
    242 H242       -2.7812  -20.5403  -55.3660 H         1 UNK         0.3800 
    243 H243       -3.3404  -18.9688  -54.8216 H         1 UNK         0.3800 
    244 H244        1.7644  -20.3146  -55.7984 H         1 UNK         0.0800 
    245 H245        1.0893  -19.2762  -54.5926 H         1 UNK         0.0800 
    246 H246       -0.3931  -21.8274  -52.0036 H         1 UNK         0.0800 
    247 H247       -1.1013  -20.5350  -52.9390 H         1 UNK         0.0800 
@<TRIPOS>BOND
     1    1    2 1    
     2    1  127 1    
     3    1  128 1    
     4    1  129 1    
     5    2    3 2    
     6    2    4 am   BACKBONE|DICT|INTERRES
     7    4    5 1    
     8    4  130 1    
     9    5    6 1    
    10    5   65 1    
    11    5  131 1    
    12    6    7 1    
    13    6  132 1    
    14    6  133 1    
    15    7    8 1    
    16    8    9 1    
    17    8  134 1    
    18    8  135 1    
    19    9   10 ar   
    20    9   14 ar   
    21   10   11 ar   
    22   10  136 1    
    23   11   12 ar   
    24   11  126 1    
    25   12   13 ar   
    26   12  137 1    
    27   13   14 ar   
    28   13   15 1    
    29   14  138 1    
    30   15   16 1    
    31   15  139 1    
    32   15  140 1    
    33   16   17 1    
    34   17   18 1    
    35   17  141 1    
    36   17  142 1    
    37   18   19 1    
    38   18   67 1    
    39   18  143 1    
    40   19   20 am   BACKBONE|DICT|INTERRES
    41   19  144 1    
    42   20   21 2    
    43   20   22 1    
    44   22   23 1    
    45   22   24 1    
    46   22  145 1    
    47   23  146 1    
    48   23  147 1    
    49   23  148 1    
    50   24   25 am   BACKBONE|DICT|INTERRES
    51   24  149 1    
    52   25   26 2    
    53   25   27 1    
    54   27   28 1    
    55   27   29 1    
    56   27  150 1    
    57   28  151 1    
    58   28  152 1    
    59   28  153 1    
    60   29   30 am   BACKBONE|DICT|INTERRES
    61   29  154 1    
    62   30   31 2    
    63   30   32 1    
    64   32   33 1    
    65   32   34 1    
    66   32  155 1    
    67   33  156 1    
    68   33  157 1    
    69   33  158 1    
    70   34   35 am   BACKBONE|DICT|INTERRES
    71   34  159 1    
    72   35   36 2    
    73   35   37 1    
    74   37   38 1    
    75   37   39 1    
    76   37  160 1    
    77   38  161 1    
    78   38  162 1    
    79   38  163 1    
    80   39   40 am   BACKBONE|DICT|INTERRES
    81   39  164 1    
    82   40   41 2    
    83   40   42 1    
    84   42   43 1    
    85   42   44 1    
    86   42  165 1    
    87   43  166 1    
    88   43  167 1    
    89   43  168 1    
    90   44   45 am   BACKBONE|DICT|INTERRES
    91   44  169 1    
    92   45   46 2    
    93   45   47 1    
    94   47   48 1    
    95   47   49 1    
    96   47  170 1    
    97   48  171 1    
    98   48  172 1    
    99   48  173 1    
   100   49   50 am   BACKBONE|DICT|INTERRES
   101   49  174 1    
   102   50   51 2    
   103   50   52 1    
   104   52   53 1    
   105   52   54 1    
   106   52  175 1    
   107   53  176 1    
   108   53  177 1    
   109   53  178 1    
   110   54   55 am   BACKBONE|DICT|INTERRES
   111   54  179 1    
   112   55   56 2    
   113   55   57 1    
   114   57   58 1    
   115   57   59 1    
   116   57  180 1    
   117   58  181 1    
   118   58  182 1    
   119   58  183 1    
   120   59   60 am   BACKBONE|DICT|INTERRES
   121   59  184 1    
   122   60   61 2    
   123   60   62 1    
   124   62   63 1    
   125   62   64 1    
   126   62  185 1    
   127   63  186 1    
   128   63  187 1    
   129   63  188 1    
   130   64   65 am   BACKBONE|DICT|INTERRES
   131   64  189 1    
   132   65   66 2    
   133   67   68 2    
   134   67   69 am   BACKBONE|DICT|INTERRES
   135   69   70 1    
   136   69  190 1    
   137   70   71 1    
   138   70   72 1    
   139   70  191 1    
   140   71  192 1    
   141   71  193 1    
   142   71  194 1    
   143   72   73 2    
   144   72   74 am   BACKBONE|DICT|INTERRES
   145   74   75 1    
   146   74  195 1    
   147   75   76 1    
   148   75   77 1    
   149   75  196 1    
   150   76  197 1    
   151   76  198 1    
   152   76  199 1    
   153   77   78 2    
   154   77   79 am   BACKBONE|DICT|INTERRES
   155   79   80 1    
   156   79  200 1    
   157   80   81 1    
   158   80   82 1    
   159   80  201 1    
   160   81  202 1    
   161   81  203 1    
   162   81  204 1    
   163   82   83 2    
   164   82   84 am   BACKBONE|DICT|INTERRES
   165   84   85 1    
   166   84  205 1    
   167   85   86 1    
   168   85   87 1    
   169   85  206 1    
   170   86  207 1    
   171   86  208 1    
   172   86  209 1    
   173   87   88 2    
   174   87   89 am   BACKBONE|DICT|INTERRES
   175   89   90 1    
   176   89  210 1    
   177   90   91 1    
   178   90   92 1    
   179   90  211 1    
   180   91  212 1    
   181   91  213 1    
   182   91  214 1    
   183   92   93 2    
   184   92   94 am   BACKBONE|DICT|INTERRES
   185   94   95 1    
   186   94  215 1    
   187   95   96 1    
   188   95   97 1    
   189   95  216 1    
   190   96  217 1    
   191   96  218 1    
   192   96  219 1    
   193   97   98 2    
   194   97   99 am   BACKBONE|DICT|INTERRES
   195   99  100 1    
   196   99  220 1    
   197  100  101 1    
   198  100  102 1    
   199  100  221 1    
   200  101  222 1    
   201  101  223 1    
   202  101  224 1    
   203  102  103 2    
   204  102  104 am   BACKBONE|DICT|INTERRES
   205  104  105 1    
   206  104  225 1    
   207  105  106 1    
   208  105  107 1    
   209  105  226 1    
   210  106  227 1    
   211  106  228 1    
   212  106  229 1    
   213  107  108 2    
   214  107  109 am   BACKBONE|DICT|INTERRES
   215  109  110 1    
   216  109  230 1    
   217  110  111 1    
   218  110  112 1    
   219  110  231 1    
   220  111  232 1    
   221  111  233 1    
   222  111  234 1    
   223  112  113 2    
   224  112  114 am   BACKBONE|DICT|INTERRES
   225  114  115 1    
   226  114  235 1    
   227  115  116 1    
   228  115  117 1    
   229  115  236 1    
   230  116  237 1    
   231  116  238 1    
   232  116  239 1    
   233  117  118 2    
   234  117  119 am   BACKBONE|DICT|INTERRES
   235  119  120 1    
   236  119  240 1    
   237  120  121 1    
   238  120  124 1    
   239  120  241 1    
   240  121  122 am   BACKBONE|DICT|INTERRES
   241  121  123 2    
   242  122  242 1    
   243  122  243 1    
   244  124  125 1    
   245  124  244 1    
   246  124  245 1    
   247  125  126 1    
   248  126  246 1    
   249  126  247 1    
@<TRIPOS>SUBSTRUCTURE
     1 UNK         1 GROUP             0       ****    0 ROOT    
