@<TRIPOS>MOLECULE
3R540
247   249    1
SMALL
USER_CHARGES


@<TRIPOS>ATOM
      1 CA          3.4991  -12.1111  -51.2272 C.3       0 UNK        -0.1800 
      2 C           2.3426  -13.0064  -51.6702 C.2       0 UNK         0.5000 
      3 O           2.0735  -13.0946  -52.8668 O.2       0 UNK        -0.5000 
      4 N           1.6439  -13.6991  -50.7608 N.am      1 UNK        -0.5000 
      5 CA          1.7748  -13.6369  -49.3007 C.3       1 UNK         0.1400 
      6 C6          1.1561  -14.8854  -48.6222 C.3       23 UNK        -0.0398 
      7 S7         -0.6075  -15.1759  -49.0074 S.3       23 UNK        -0.2404 
      8 C8         -0.9047  -16.7544  -48.1501 C.3       23 UNK        -0.0205 
      9 C9         -0.2628  -17.9269  -48.8770 C.ar      23 UNK        -0.0193 
     10 C10        -0.9416  -18.5680  -49.9154 C.ar      23 UNK        -0.1150 
     11 C11        -0.3496  -19.6304  -50.6062 C.ar      23 UNK        -0.0193 
     12 C12         0.9185  -20.0781  -50.2195 C.ar      23 UNK        -0.1150 
     13 C13         1.5955  -19.4619  -49.1625 C.ar      23 UNK        -0.0193 
     14 C14         1.0016  -18.3838  -48.5019 C.ar      23 UNK        -0.1150 
     15 C15         2.9834  -19.9243  -48.7476 C.3       23 UNK        -0.0205 
     16 S16         3.0021  -20.6190  -47.0637 S.3       23 UNK        -0.2404 
     17 C17         2.6500  -22.3845  -47.3409 C.3       23 UNK        -0.0398 
     18 CA          1.3718  -22.9371  -46.6633 C.3       11 UNK         0.1400 
     19 N           1.2548  -22.6486  -45.2279 N.am      11 UNK        -0.5000 
     20 C           0.4863  -23.3792  -44.4035 C.2       10 UNK         0.5000 
     21 O          -0.1694  -24.3539  -44.7739 O.2       10 UNK        -0.5000 
     22 CA          0.3950  -22.9403  -42.9320 C.3       10 UNK         0.1400 
     23 CB          1.6929  -23.2592  -42.1750 C.3       10 UNK        -0.1800 
     24 N           0.0564  -21.5270  -42.7801 N.am      10 UNK        -0.5000 
     25 C          -1.0868  -20.9686  -43.2043 C.2       9 UNK         0.5000 
     26 O          -1.9943  -21.5968  -43.7484 O.2       9 UNK        -0.5000 
     27 CA         -1.2277  -19.4453  -43.0282 C.3       9 UNK         0.1400 
     28 CB         -1.7575  -19.1024  -41.6284 C.3       9 UNK        -0.1800 
     29 N           0.0241  -18.7284  -43.2647 N.am      9 UNK        -0.5000 
     30 C           0.6925  -18.7254  -44.4257 C.2       8 UNK         0.5000 
     31 O           0.3009  -19.3019  -45.4382 O.2       8 UNK        -0.5000 
     32 CA          2.0449  -17.9947  -44.4364 C.3       8 UNK         0.1400 
     33 CB          1.8540  -16.4771  -44.5908 C.3       8 UNK        -0.1800 
     34 N           2.8213  -18.2806  -43.2295 N.am      8 UNK        -0.5000 
     35 C           3.3862  -19.4661  -42.9555 C.2       7 UNK         0.5000 
     36 O           3.3480  -20.4371  -43.7100 O.2       7 UNK        -0.5000 
     37 CA          4.0831  -19.5997  -41.5888 C.3       7 UNK         0.1400 
     38 CB          5.5093  -19.0323  -41.6487 C.3       7 UNK        -0.1800 
     39 N           3.3436  -18.9401  -40.5120 N.am      7 UNK        -0.5000 
     40 C           2.1463  -19.3403  -40.0612 C.2       6 UNK         0.5000 
     41 O           1.5546  -20.3339  -40.4813 O.2       6 UNK        -0.5000 
     42 CA          1.4759  -18.4502  -38.9963 C.3       6 UNK         0.1400 
     43 CB          1.9427  -18.8491  -37.5885 C.3       6 UNK        -0.1800 
     44 N           1.7036  -17.0143  -39.1963 N.am      6 UNK        -0.5000 
     45 C           1.3520  -16.3344  -40.2955 C.2       5 UNK         0.5000 
     46 O           0.8430  -16.8619  -41.2866 O.2       5 UNK        -0.5000 
     47 CA          1.6747  -14.8287  -40.3101 C.3       5 UNK         0.1400 
     48 CB          3.1527  -14.6059  -40.6681 C.3       5 UNK        -0.1800 
     49 N           0.8520  -14.1019  -41.2765 N.am      5 UNK        -0.5000 
     50 C          -0.4750  -13.9330  -41.1934 C.2       4 UNK         0.5000 
     51 O          -1.1536  -14.3011  -40.2320 O.2       4 UNK        -0.5000 
     52 CA         -1.1359  -13.2226  -42.3942 C.3       4 UNK         0.1400 
     53 CB         -2.5846  -12.7698  -42.1154 C.3       4 UNK        -0.1800 
     54 N          -0.3251  -12.1112  -42.9066 N.am      4 UNK        -0.5000 
     55 C           0.0438  -11.0000  -42.2531 C.2       3 UNK         0.5000 
     56 O          -0.3064  -10.7364  -41.1021 O.2       3 UNK        -0.5000 
     57 CA          0.9497   -9.9956  -42.9975 C.3       3 UNK         0.1400 
     58 CB          2.3961  -10.0692  -42.4684 C.3       3 UNK        -0.1800 
     59 N           0.9211  -10.0682  -44.4684 N.am      3 UNK        -0.5000 
     60 C           1.3794  -11.0372  -45.2721 C.2       2 UNK         0.5000 
     61 O           1.8465  -12.1057  -44.8675 O.2       2 UNK        -0.5000 
     62 CA          1.2782  -10.7675  -46.7812 C.3       2 UNK         0.1400 
     63 CB          2.1985   -9.6096  -47.2122 C.3       2 UNK        -0.1800 
     64 N           1.6493  -11.9772  -47.5076 N.am      2 UNK        -0.5000 
     65 C           1.2143  -12.3166  -48.7242 C.2       1 UNK         0.5000 
     66 O           0.4237  -11.6328  -49.3803 O.2       1 UNK        -0.5000 
     67 C           0.0792  -22.6223  -47.4413 C.2       11 UNK         0.5000 
     68 O          -0.2436  -23.3692  -48.3653 O.2       11 UNK        -0.5000 
     69 N          -0.6784  -21.5964  -47.0217 N.am      12 UNK        -0.5000 
     70 CA         -2.0098  -21.2937  -47.5528 C.3       12 UNK         0.1400 
     71 CB         -2.5555  -20.0026  -46.9257 C.3       12 UNK        -0.1800 
     72 C          -3.0033  -22.4463  -47.3317 C.2       12 UNK         0.5000 
     73 O          -3.6917  -22.8407  -48.2737 O.2       12 UNK        -0.5000 
     74 N          -3.0354  -22.9816  -46.1032 N.am      13 UNK        -0.5000 
     75 CA         -3.8643  -24.1204  -45.7144 C.3       13 UNK         0.1400 
     76 CB         -3.8265  -24.2923  -44.1885 C.3       13 UNK        -0.1800 
     77 C          -3.4503  -25.4212  -46.4219 C.2       13 UNK         0.5000 
     78 O          -4.3203  -26.1381  -46.9166 O.2       13 UNK        -0.5000 
     79 N          -2.1373  -25.6877  -46.4859 N.am      14 UNK        -0.5000 
     80 CA         -1.5610  -26.8664  -47.1379 C.3       14 UNK         0.1400 
     81 CB         -0.0568  -26.9410  -46.8379 C.3       14 UNK        -0.1800 
     82 C          -1.8106  -26.9013  -48.6565 C.2       14 UNK         0.5000 
     83 O          -2.1117  -27.9660  -49.1973 O.2       14 UNK        -0.5000 
     84 N          -1.7059  -25.7374  -49.3119 N.am      15 UNK        -0.5000 
     85 CA         -1.9795  -25.5702  -50.7392 C.3       15 UNK         0.1400 
     86 CB         -1.2700  -24.2991  -51.2355 C.3       15 UNK        -0.1800 
     87 C          -3.4823  -25.4886  -51.0670 C.2       15 UNK         0.5000 
     88 O          -3.8337  -25.5672  -52.2435 O.2       15 UNK        -0.5000 
     89 N          -4.3319  -25.2627  -50.0523 N.am      16 UNK        -0.5000 
     90 CA         -5.7602  -24.9317  -50.1502 C.3       16 UNK         0.1400 
     91 CB         -6.5736  -26.1375  -50.6629 C.3       16 UNK        -0.1800 
     92 C          -5.9746  -23.6516  -50.9858 C.2       16 UNK         0.5000 
     93 O          -6.7358  -23.6484  -51.9560 O.2       16 UNK        -0.5000 
     94 N          -5.1977  -22.6126  -50.6424 N.am      17 UNK        -0.5000 
     95 CA         -5.0428  -21.3320  -51.3444 C.3       17 UNK         0.1400 
     96 CB         -6.3462  -20.5115  -51.2740 C.3       17 UNK        -0.1800 
     97 C          -4.5148  -21.4744  -52.7918 C.2       17 UNK         0.5000 
     98 O          -4.6913  -20.5588  -53.5961 O.2       17 UNK        -0.5000 
     99 N          -3.9082  -22.6300  -53.1070 N.am      18 UNK        -0.5000 
    100 CA        -3.5042  -23.0925  -54.4390 C.3       18 UNK         0.1400 
    101 CB        -2.3385  -22.2467  -54.9875 C.3       18 UNK        -0.1800 
    102 C         -4.7053  -23.1911  -55.4028 C.2       18 UNK         0.5000 
    103 O         -4.5929  -22.8119  -56.5674 O.2       18 UNK        -0.5000 
    104 N         -5.8524  -23.6517  -54.8766 N.am      19 UNK        -0.5000 
    105 CA        -7.1724  -23.6643  -55.5201 C.3       19 UNK         0.1400 
    106 CB        -7.1975  -24.6147  -56.7357 C.3       19 UNK        -0.1800 
    107 C         -7.6656  -22.2366  -55.8434 C.2       19 UNK         0.5000 
    108 O         -8.2169  -21.9907  -56.9173 O.2       19 UNK        -0.5000 
    109 N         -7.4269  -21.3235  -54.8906 N.am      20 UNK        -0.5000 
    110 CA        -7.7039  -19.8833  -54.9204 C.3       20 UNK         0.1400 
    111 CB        -9.2161  -19.6086  -55.0588 C.3       20 UNK        -0.1800 
    112 C         -6.8510  -19.0938  -55.9383 C.2       20 UNK         0.5000 
    113 O         -7.2349  -17.9857  -56.3175 O.2       20 UNK        -0.5000 
    114 N         -5.7028  -19.6505  -56.3509 N.am      21 UNK        -0.5000 
    115 CA        -4.7293  -18.9734  -57.2088 C.3       21 UNK         0.1400 
    116 CB        -3.8855  -20.0081  -57.9664 C.3       21 UNK        -0.1800 
    117 C         -3.8261  -18.0047  -56.4228 C.2       21 UNK         0.5000 
    118 O         -3.3710  -17.0173  -57.0025 O.2       21 UNK        -0.5000 
    119 N         -3.5845  -18.2808  -55.1325 N.am      22 UNK        -0.5000 
    120 CA        -2.8808  -17.3636  -54.2234 C.3       22 UNK         0.1400 
    121 C         -3.7852  -16.1614  -53.8353 C.2       22 UNK         0.5000 
    122 N         -3.2661  -14.9421  -53.8804 N.am      22 UNK        -0.7600 
    123 O         -4.9410  -16.3299  -53.4532 O.2       22 UNK        -0.5000 
    124 C124       -2.3589  -18.0699  -52.9477 C.3       23 UNK        -0.0398 
    125 S125       -1.0711  -19.3193  -53.2853 S.3       23 UNK        -0.2404 
    126 C126       -1.0875  -20.3087  -51.7522 C.3       23 UNK        -0.0205 
    127 H127        3.1363  -11.2643  -50.6452 H         1 UNK         0.0600 
    128 H128        4.0261  -11.7137  -52.0949 H         1 UNK         0.0600 
    129 H129        4.2224  -12.6672  -50.6314 H         1 UNK         0.0600 
    130 H130        0.8678  -14.2609  -51.0800 H         1 UNK         0.3000 
    131 H131        2.8402  -13.6546  -49.0649 H         1 UNK         0.0600 
    132 H132        1.7218  -15.7609  -48.9404 H         1 UNK         0.0800 
    133 H133        1.2750  -14.8351  -47.5389 H         1 UNK         0.0800 
    134 H134       -1.9815  -16.9143  -48.0806 H         1 UNK         0.0800 
    135 H135       -0.5422  -16.6954  -47.1229 H         1 UNK         0.0800 
    136 H136       -1.9309  -18.2309  -50.1857 H         1 UNK         0.1150 
    137 H137        1.3781  -20.9054  -50.7416 H         1 UNK         0.1150 
    138 H138        1.5250  -17.9056  -47.6866 H         1 UNK         0.1150 
    139 H139        3.3932  -20.6427  -49.4588 H         1 UNK         0.0800 
    140 H140        3.6538  -19.0642  -48.7709 H         1 UNK         0.0800 
    141 H141        2.6330  -22.5982  -48.4110 H         1 UNK         0.0800 
    142 H142        3.5105  -22.9334  -46.9563 H         1 UNK         0.0800 
    143 H143        1.4781  -24.0212  -46.7373 H         1 UNK         0.0600 
    144 H144        1.7551  -21.8404  -44.8775 H         1 UNK         0.3000 
    145 H145       -0.4083  -23.5176  -42.4694 H         1 UNK         0.0600 
    146 H146        1.5904  -23.0451  -41.1111 H         1 UNK         0.0600 
    147 H147        2.5362  -22.6816  -42.5521 H         1 UNK         0.0600 
    148 H148        1.9500  -24.3149  -42.2697 H         1 UNK         0.0600 
    149 H149        0.7284  -20.9478  -42.2893 H         1 UNK         0.3000 
    150 H150       -1.9533  -19.0908  -43.7625 H         1 UNK         0.0600 
    151 H151       -2.7219  -19.5793  -41.4493 H         1 UNK         0.0600 
    152 H152       -1.8972  -18.0275  -41.5109 H         1 UNK         0.0600 
    153 H153       -1.0752  -19.4384  -40.8479 H         1 UNK         0.0600 
    154 H154        0.3941  -18.1826  -42.4895 H         1 UNK         0.3000 
    155 H155        2.6129  -18.3472  -45.2982 H         1 UNK         0.0600 
    156 H156        1.3086  -16.2477  -45.5060 H         1 UNK         0.0600 
    157 H157        2.8130  -15.9619  -44.6467 H         1 UNK         0.0600 
    158 H158        1.2913  -16.0482  -43.7617 H         1 UNK         0.0600 
    159 H159        2.8390  -17.5609  -42.5227 H         1 UNK         0.3000 
    160 H160        4.1491  -20.6640  -41.3524 H         1 UNK         0.0600 
    161 H161        5.5102  -17.9611  -41.8543 H         1 UNK         0.0600 
    162 H162        6.0890  -19.5181  -42.4347 H         1 UNK         0.0600 
    163 H163        6.0379  -19.1947  -40.7092 H         1 UNK         0.0600 
    164 H164        3.7577  -18.1122  -40.1102 H         1 UNK         0.3000 
    165 H165        0.3996  -18.6223  -39.0574 H         1 UNK         0.0600 
    166 H166        1.4017  -18.2949  -36.8213 H         1 UNK         0.0600 
    167 H167        1.7670  -19.9101  -37.4051 H         1 UNK         0.0600 
    168 H168        3.0085  -18.6639  -37.4492 H         1 UNK         0.0600 
    169 H169        2.1315  -16.5170  -38.4284 H         1 UNK         0.3000 
    170 H170        1.4807  -14.4196  -39.3165 H         1 UNK         0.0600 
    171 H171        3.3910  -14.9983  -41.6579 H         1 UNK         0.0600 
    172 H172        3.4041  -13.5450  -40.6600 H         1 UNK         0.0600 
    173 H173        3.8116  -15.0983  -39.9519 H         1 UNK         0.0600 
    174 H174        1.3212  -13.7715  -42.1066 H         1 UNK         0.3000 
    175 H175       -1.1750  -13.9635  -43.1941 H         1 UNK         0.0600 
    176 H176       -2.6393  -12.0699  -41.2812 H         1 UNK         0.0600 
    177 H177       -3.0210  -12.2858  -42.9890 H         1 UNK         0.0600 
    178 H178       -3.2183  -13.6221  -41.8674 H         1 UNK         0.0600 
    179 H179        0.0908  -12.2513  -43.8199 H         1 UNK         0.3000 
    180 H180        0.5644   -9.0054  -42.7496 H         1 UNK         0.0600 
    181 H181        2.8439  -11.0490  -42.6363 H         1 UNK         0.0600 
    182 H182        2.4275   -9.8802  -41.3946 H         1 UNK         0.0600 
    183 H183        3.0303   -9.3229  -42.9470 H         1 UNK         0.0600 
    184 H184        0.5171   -9.2547  -44.9121 H         1 UNK         0.3000 
    185 H185        0.2397  -10.5121  -47.0026 H         1 UNK         0.0600 
    186 H186        3.2437   -9.8238  -46.9853 H         1 UNK         0.0600 
    187 H187        2.1220   -9.4214  -48.2833 H         1 UNK         0.0600 
    188 H188        1.9353   -8.6810  -46.7048 H         1 UNK         0.0600 
    189 H189        2.2421  -12.6037  -46.9769 H         1 UNK         0.3000 
    190 H190       -0.3212  -20.9766  -46.3001 H         1 UNK         0.3000 
    191 H191       -1.9075  -21.1378  -48.6280 H         1 UNK         0.0600 
    192 H192       -1.8480  -19.1836  -47.0242 H         1 UNK         0.0600 
    193 H193       -2.7675  -20.1236  -45.8640 H         1 UNK         0.0600 
    194 H194       -3.4817  -19.6956  -47.4124 H         1 UNK         0.0600 
    195 H195       -2.4628  -22.5690  -45.3716 H         1 UNK         0.3000 
    196 H196       -4.8935  -23.8981  -46.0039 H         1 UNK         0.0600 
    197 H197       -4.2092  -23.4051  -43.6839 H         1 UNK         0.0600 
    198 H198       -2.8127  -24.4693  -43.8274 H         1 UNK         0.0600 
    199 H199       -4.4411  -25.1365  -43.8737 H         1 UNK         0.0600 
    200 H200       -1.4870  -25.0656  -46.0130 H         1 UNK         0.3000 
    201 H201       -2.0361  -27.7486  -46.7040 H         1 UNK         0.0600 
    202 H202        0.1317  -26.9734  -45.7647 H         1 UNK         0.0600 
    203 H203        0.4758  -26.0833  -47.2478 H         1 UNK         0.0600 
    204 H204        0.3838  -27.8389  -47.2728 H         1 UNK         0.0600 
    205 H205       -1.3958  -24.9091  -48.8110 H         1 UNK         0.3000 
    206 H206       -1.5680  -26.4239  -51.2815 H         1 UNK         0.0600 
    207 H207       -0.1994  -24.3407  -51.0346 H         1 UNK         0.0600 
    208 H208       -1.6655  -23.4042  -50.7526 H         1 UNK         0.0600 
    209 H209       -1.3902  -24.1738  -52.3121 H         1 UNK         0.0600 
    210 H210       -3.9379  -25.1959  -49.1230 H         1 UNK         0.3000 
    211 H211       -6.0984  -24.7057  -49.1379 H         1 UNK         0.0600 
    212 H212       -6.3161  -26.3989  -51.6896 H         1 UNK         0.0600 
    213 H213       -7.6425  -25.9225  -50.6401 H         1 UNK         0.0600 
    214 H214       -6.4053  -27.0167  -50.0411 H         1 UNK         0.0600 
    215 H215       -4.6081  -22.7282  -49.8176 H         1 UNK         0.3000 
    216 H216       -4.2839  -20.7780  -50.7924 H         1 UNK         0.0600 
    217 H217       -6.2015  -19.5084  -51.6773 H         1 UNK         0.0600 
    218 H218       -6.6813  -20.3970  -50.2432 H         1 UNK         0.0600 
    219 H219       -7.1541  -20.9792  -51.8366 H         1 UNK         0.0600 
    220 H220       -3.8612  -23.3396  -52.3888 H         1 UNK         0.3000 
    221 H221       -3.1339  -24.1111  -54.3217 H         1 UNK         0.0600 
    222 H222       -2.6234  -21.2052  -55.1299 H         1 UNK         0.0600 
    223 H223       -1.4871  -22.2690  -54.3078 H         1 UNK         0.0600 
    224 H224       -1.9931  -22.6276  -55.9490 H         1 UNK         0.0600 
    225 H225       -5.8564  -23.9073  -53.8950 H         1 UNK         0.3000 
    226 H226       -7.8663  -24.0637  -54.7789 H         1 UNK         0.0600 
    227 H227       -6.8387  -25.6080  -56.4665 H         1 UNK         0.0600 
    228 H228       -8.2124  -24.7291  -57.1178 H         1 UNK         0.0600 
    229 H229       -6.5818  -24.2460  -57.5564 H         1 UNK         0.0600 
    230 H230       -6.9367  -21.6427  -54.0672 H         1 UNK         0.3000 
    231 H231       -7.3997  -19.5071  -53.9432 H         1 UNK         0.0600 
    232 H232       -9.4379  -18.5526  -54.9006 H         1 UNK         0.0600 
    233 H233       -9.7886  -20.1714  -54.3216 H         1 UNK         0.0600 
    234 H234       -9.5883  -19.8735  -56.0486 H         1 UNK         0.0600 
    235 H235       -5.4415  -20.5567  -55.9864 H         1 UNK         0.3000 
    236 H236       -5.2707  -18.3870  -57.9543 H         1 UNK         0.0600 
    237 H237       -3.2580  -20.5903  -57.2933 H         1 UNK         0.0600 
    238 H238       -4.5159  -20.7016  -58.5234 H         1 UNK         0.0600 
    239 H239       -3.2253  -19.5196  -58.6839 H         1 UNK         0.0600 
    240 H240       -4.0142  -19.0953  -54.7040 H         1 UNK         0.3000 
    241 H241       -2.0105  -16.9729  -54.7551 H         1 UNK         0.0600 
    242 H242       -3.8403  -14.1565  -53.6165 H         1 UNK         0.3800 
    243 H243       -2.3202  -14.7799  -54.1899 H         1 UNK         0.3800 
    244 H244       -3.1846  -18.5322  -52.4047 H         1 UNK         0.0800 
    245 H245       -1.9180  -17.3298  -52.2781 H         1 UNK         0.0800 
    246 H246       -0.6353  -21.2783  -51.9659 H         1 UNK         0.0800 
    247 H247       -2.1109  -20.5177  -51.4514 H         1 UNK         0.0800 
@<TRIPOS>BOND
     1    1    2 1    
     2    1  127 1    
     3    1  128 1    
     4    1  129 1    
     5    2    3 2    
     6    2    4 am   BACKBONE|DICT|INTERRES
     7    4    5 1    
     8    4  130 1    
     9    5    6 1    
    10    5   65 1    
    11    5  131 1    
    12    6    7 1    
    13    6  132 1    
    14    6  133 1    
    15    7    8 1    
    16    8    9 1    
    17    8  134 1    
    18    8  135 1    
    19    9   10 ar   
    20    9   14 ar   
    21   10   11 ar   
    22   10  136 1    
    23   11   12 ar   
    24   11  126 1    
    25   12   13 ar   
    26   12  137 1    
    27   13   14 ar   
    28   13   15 1    
    29   14  138 1    
    30   15   16 1    
    31   15  139 1    
    32   15  140 1    
    33   16   17 1    
    34   17   18 1    
    35   17  141 1    
    36   17  142 1    
    37   18   19 1    
    38   18   67 1    
    39   18  143 1    
    40   19   20 am   BACKBONE|DICT|INTERRES
    41   19  144 1    
    42   20   21 2    
    43   20   22 1    
    44   22   23 1    
    45   22   24 1    
    46   22  145 1    
    47   23  146 1    
    48   23  147 1    
    49   23  148 1    
    50   24   25 am   BACKBONE|DICT|INTERRES
    51   24  149 1    
    52   25   26 2    
    53   25   27 1    
    54   27   28 1    
    55   27   29 1    
    56   27  150 1    
    57   28  151 1    
    58   28  152 1    
    59   28  153 1    
    60   29   30 am   BACKBONE|DICT|INTERRES
    61   29  154 1    
    62   30   31 2    
    63   30   32 1    
    64   32   33 1    
    65   32   34 1    
    66   32  155 1    
    67   33  156 1    
    68   33  157 1    
    69   33  158 1    
    70   34   35 am   BACKBONE|DICT|INTERRES
    71   34  159 1    
    72   35   36 2    
    73   35   37 1    
    74   37   38 1    
    75   37   39 1    
    76   37  160 1    
    77   38  161 1    
    78   38  162 1    
    79   38  163 1    
    80   39   40 am   BACKBONE|DICT|INTERRES
    81   39  164 1    
    82   40   41 2    
    83   40   42 1    
    84   42   43 1    
    85   42   44 1    
    86   42  165 1    
    87   43  166 1    
    88   43  167 1    
    89   43  168 1    
    90   44   45 am   BACKBONE|DICT|INTERRES
    91   44  169 1    
    92   45   46 2    
    93   45   47 1    
    94   47   48 1    
    95   47   49 1    
    96   47  170 1    
    97   48  171 1    
    98   48  172 1    
    99   48  173 1    
   100   49   50 am   BACKBONE|DICT|INTERRES
   101   49  174 1    
   102   50   51 2    
   103   50   52 1    
   104   52   53 1    
   105   52   54 1    
   106   52  175 1    
   107   53  176 1    
   108   53  177 1    
   109   53  178 1    
   110   54   55 am   BACKBONE|DICT|INTERRES
   111   54  179 1    
   112   55   56 2    
   113   55   57 1    
   114   57   58 1    
   115   57   59 1    
   116   57  180 1    
   117   58  181 1    
   118   58  182 1    
   119   58  183 1    
   120   59   60 am   BACKBONE|DICT|INTERRES
   121   59  184 1    
   122   60   61 2    
   123   60   62 1    
   124   62   63 1    
   125   62   64 1    
   126   62  185 1    
   127   63  186 1    
   128   63  187 1    
   129   63  188 1    
   130   64   65 am   BACKBONE|DICT|INTERRES
   131   64  189 1    
   132   65   66 2    
   133   67   68 2    
   134   67   69 am   BACKBONE|DICT|INTERRES
   135   69   70 1    
   136   69  190 1    
   137   70   71 1    
   138   70   72 1    
   139   70  191 1    
   140   71  192 1    
   141   71  193 1    
   142   71  194 1    
   143   72   73 2    
   144   72   74 am   BACKBONE|DICT|INTERRES
   145   74   75 1    
   146   74  195 1    
   147   75   76 1    
   148   75   77 1    
   149   75  196 1    
   150   76  197 1    
   151   76  198 1    
   152   76  199 1    
   153   77   78 2    
   154   77   79 am   BACKBONE|DICT|INTERRES
   155   79   80 1    
   156   79  200 1    
   157   80   81 1    
   158   80   82 1    
   159   80  201 1    
   160   81  202 1    
   161   81  203 1    
   162   81  204 1    
   163   82   83 2    
   164   82   84 am   BACKBONE|DICT|INTERRES
   165   84   85 1    
   166   84  205 1    
   167   85   86 1    
   168   85   87 1    
   169   85  206 1    
   170   86  207 1    
   171   86  208 1    
   172   86  209 1    
   173   87   88 2    
   174   87   89 am   BACKBONE|DICT|INTERRES
   175   89   90 1    
   176   89  210 1    
   177   90   91 1    
   178   90   92 1    
   179   90  211 1    
   180   91  212 1    
   181   91  213 1    
   182   91  214 1    
   183   92   93 2    
   184   92   94 am   BACKBONE|DICT|INTERRES
   185   94   95 1    
   186   94  215 1    
   187   95   96 1    
   188   95   97 1    
   189   95  216 1    
   190   96  217 1    
   191   96  218 1    
   192   96  219 1    
   193   97   98 2    
   194   97   99 am   BACKBONE|DICT|INTERRES
   195   99  100 1    
   196   99  220 1    
   197  100  101 1    
   198  100  102 1    
   199  100  221 1    
   200  101  222 1    
   201  101  223 1    
   202  101  224 1    
   203  102  103 2    
   204  102  104 am   BACKBONE|DICT|INTERRES
   205  104  105 1    
   206  104  225 1    
   207  105  106 1    
   208  105  107 1    
   209  105  226 1    
   210  106  227 1    
   211  106  228 1    
   212  106  229 1    
   213  107  108 2    
   214  107  109 am   BACKBONE|DICT|INTERRES
   215  109  110 1    
   216  109  230 1    
   217  110  111 1    
   218  110  112 1    
   219  110  231 1    
   220  111  232 1    
   221  111  233 1    
   222  111  234 1    
   223  112  113 2    
   224  112  114 am   BACKBONE|DICT|INTERRES
   225  114  115 1    
   226  114  235 1    
   227  115  116 1    
   228  115  117 1    
   229  115  236 1    
   230  116  237 1    
   231  116  238 1    
   232  116  239 1    
   233  117  118 2    
   234  117  119 am   BACKBONE|DICT|INTERRES
   235  119  120 1    
   236  119  240 1    
   237  120  121 1    
   238  120  124 1    
   239  120  241 1    
   240  121  122 am   BACKBONE|DICT|INTERRES
   241  121  123 2    
   242  122  242 1    
   243  122  243 1    
   244  124  125 1    
   245  124  244 1    
   246  124  245 1    
   247  125  126 1    
   248  126  246 1    
   249  126  247 1    
@<TRIPOS>SUBSTRUCTURE
     1 UNK         1 GROUP             0       ****    0 ROOT    
