@<TRIPOS>MOLECULE
3R540
247   249    1
SMALL
USER_CHARGES


@<TRIPOS>ATOM
      1 CA         -4.9076  -12.8210  -46.7893 C.3       0 UNK        -0.1800 
      2 C          -4.3131  -13.9951  -46.0139 C.2       0 UNK         0.5000 
      3 O          -4.6576  -14.1795  -44.8493 O.2       0 UNK        -0.5000 
      4 N          -3.4342  -14.8210  -46.6028 N.am      1 UNK        -0.5000 
      5 CA         -2.9260  -14.7595  -47.9813 C.3       1 UNK         0.1400 
      6 C6         -2.1416  -16.0384  -48.3837 C.3       23 UNK        -0.0398 
      7 S7         -2.8207  -17.6429  -47.8369 S.3       23 UNK        -0.2404 
      8 C8         -4.5880  -17.5587  -48.2581 C.3       23 UNK        -0.0205 
      9 C9         -5.2943  -18.8231  -47.7940 C.ar      23 UNK        -0.0193 
     10 C10        -5.7925  -19.7462  -48.7173 C.ar      23 UNK        -0.1150 
     11 C11        -6.4184  -20.9193  -48.2834 C.ar      23 UNK        -0.0193 
     12 C12        -6.5497  -21.1624  -46.9128 C.ar      23 UNK        -0.1150 
     13 C13        -6.0652  -20.2409  -45.9798 C.ar      23 UNK        -0.0193 
     14 C14        -5.4434  -19.0726  -46.4272 C.ar      23 UNK        -0.1150 
     15 C15        -6.2225  -20.4969  -44.4882 C.3       23 UNK        -0.0205 
     16 S16        -5.1164  -21.8124  -43.8879 S.3       23 UNK        -0.2404 
     17 C17        -3.4603  -21.1341  -44.2614 C.3       23 UNK        -0.0398 
     18 CA         -2.7597  -21.8467  -45.4456 C.3       11 UNK         0.1400 
     19 N          -1.5483  -21.1425  -45.8716 N.am      11 UNK        -0.5000 
     20 C          -0.8663  -21.4070  -46.9940 C.2       10 UNK         0.5000 
     21 O          -1.2470  -22.2015  -47.8525 O.2       10 UNK        -0.5000 
     22 CA          0.4894  -20.7072  -47.1896 C.3       10 UNK         0.1400 
     23 CB          0.3251  -19.3780  -47.9364 C.3       10 UNK        -0.1800 
     24 N           1.2169  -20.4897  -45.9408 N.am      10 UNK        -0.5000 
     25 C           1.7261  -21.4713  -45.1846 C.2       9 UNK         0.5000 
     26 O           1.6247  -22.6665  -45.4607 O.2       9 UNK        -0.5000 
     27 CA          2.4331  -21.0517  -43.8837 C.3       9 UNK         0.1400 
     28 CB          3.8211  -20.4622  -44.1756 C.3       9 UNK        -0.1800 
     29 N           1.6498  -20.0983  -43.0991 N.am      9 UNK        -0.5000 
     30 C           0.4492  -20.3632  -42.5640 C.2       8 UNK         0.5000 
     31 O          -0.1245  -21.4491  -42.6601 O.2       8 UNK        -0.5000 
     32 CA         -0.2531  -19.1982  -41.8455 C.3       8 UNK         0.1400 
     33 CB          0.3595  -18.9606  -40.4572 C.3       8 UNK        -0.1800 
     34 N          -0.2165  -17.9584  -42.6217 N.am      8 UNK        -0.5000 
     35 C          -0.7638  -17.8143  -43.8373 C.2       7 UNK         0.5000 
     36 O          -1.3823  -18.7017  -44.4194 O.2       7 UNK        -0.5000 
     37 CA         -0.5491  -16.4696  -44.5444 C.3       7 UNK         0.1400 
     38 CB         -1.4574  -15.3918  -43.9363 C.3       7 UNK        -0.1800 
     39 N           0.8390  -16.0243  -44.4898 N.am      7 UNK        -0.5000 
     40 C           1.8946  -16.6818  -44.9864 C.2       6 UNK         0.5000 
     41 O           1.8190  -17.7432  -45.6014 O.2       6 UNK        -0.5000 
     42 CA          3.2741  -16.0684  -44.7022 C.3       6 UNK         0.1400 
     43 CB          3.5820  -14.9275  -45.6843 C.3       6 UNK        -0.1800 
     44 N           3.3746  -15.5754  -43.3293 N.am      6 UNK        -0.5000 
     45 C           3.4020  -16.3571  -42.2414 C.2       5 UNK         0.5000 
     46 O           3.3761  -17.5885  -42.2790 O.2       5 UNK        -0.5000 
     47 CA          3.4305  -15.6322  -40.8832 C.3       5 UNK         0.1400 
     48 CB          4.8543  -15.1651  -40.5452 C.3       5 UNK        -0.1800 
     49 N           2.5175  -14.4870  -40.8341 N.am      5 UNK        -0.5000 
     50 C           1.1823  -14.5968  -40.8446 C.2       4 UNK         0.5000 
     51 O           0.5877  -15.6736  -40.8992 O.2       4 UNK        -0.5000 
     52 CA          0.3703  -13.2859  -40.8225 C.3       4 UNK         0.1400 
     53 CB          0.2755  -12.7384  -39.3902 C.3       4 UNK        -0.1800 
     54 N           0.8456  -12.2216  -41.7177 N.am      4 UNK        -0.5000 
     55 C           1.1100  -12.3594  -43.0237 C.2       3 UNK         0.5000 
     56 O           1.1787  -13.4463  -43.5963 O.2       3 UNK        -0.5000 
     57 CA          1.3524  -11.0723  -43.8353 C.3       3 UNK         0.1400 
     58 CB          2.8317  -10.6661  -43.7573 C.3       3 UNK        -0.1800 
     59 N           0.9877  -11.2597  -45.2437 N.am      3 UNK        -0.5000 
     60 C          -0.2534  -11.5042  -45.6885 C.2       2 UNK         0.5000 
     61 O          -1.2567  -11.4282  -44.9751 O.2       2 UNK        -0.5000 
     62 CA         -0.4143  -11.9427  -47.1569 C.3       2 UNK         0.1400 
     63 CB          0.9104  -12.3390  -47.8487 C.3       2 UNK        -0.1800 
     64 N          -1.3486  -13.0638  -47.1769 N.am      2 UNK        -0.5000 
     65 C          -2.0292  -13.5255  -48.2320 C.2       1 UNK         0.5000 
     66 O          -1.9700  -13.0345  -49.3588 O.2       1 UNK        -0.5000 
     67 C          -2.4477  -23.3233  -45.1234 C.2       11 UNK         0.5000 
     68 O          -3.1242  -24.2113  -45.6428 O.2       11 UNK        -0.5000 
     69 N          -1.4078  -23.5615  -44.3082 N.am      12 UNK        -0.5000 
     70 CA         -0.9587  -24.8954  -43.8991 C.3       12 UNK         0.1400 
     71 CB          0.1425  -24.7624  -42.8364 C.3       12 UNK        -0.1800 
     72 C          -0.4786  -25.7645  -45.0765 C.2       12 UNK         0.5000 
     73 O          -0.7779  -26.9585  -45.1146 O.2       12 UNK        -0.5000 
     74 N           0.2294  -25.1433  -46.0279 N.am      13 UNK        -0.5000 
     75 CA          0.6857  -25.7685  -47.2694 C.3       13 UNK         0.1400 
     76 CB          1.8173  -24.9114  -47.8588 C.3       13 UNK        -0.1800 
     77 C          -0.4327  -25.9558  -48.3152 C.2       13 UNK         0.5000 
     78 O          -0.2347  -26.7143  -49.2650 O.2       13 UNK        -0.5000 
     79 N          -1.5575  -25.2419  -48.1467 N.am      14 UNK        -0.5000 
     80 CA         -2.6648  -25.0782  -49.0972 C.3       14 UNK         0.1400 
     81 CB         -3.4550  -26.3915  -49.2638 C.3       14 UNK        -0.1800 
     82 C          -2.1817  -24.4778  -50.4355 C.2       14 UNK         0.5000 
     83 O          -2.5416  -24.9572  -51.5108 O.2       14 UNK        -0.5000 
     84 N          -1.3202  -23.4608  -50.3276 N.am      15 UNK        -0.5000 
     85 CA         -0.6212  -22.8263  -51.4389 C.3       15 UNK         0.1400 
     86 CB          0.7858  -22.4329  -50.9632 C.3       15 UNK        -0.1800 
     87 C          -1.3706  -21.5946  -51.9678 C.2       15 UNK         0.5000 
     88 O          -1.2685  -21.3050  -53.1605 O.2       15 UNK        -0.5000 
     89 N          -2.0887  -20.8878  -51.0785 N.am      16 UNK        -0.5000 
     90 CA         -2.8609  -19.6629  -51.3301 C.3       16 UNK         0.1400 
     91 CB         -4.1532  -19.9982  -52.0891 C.3       16 UNK        -0.1800 
     92 C          -2.0246  -18.5845  -52.0486 C.2       16 UNK         0.5000 
     93 O          -2.1925  -18.3613  -53.2516 O.2       16 UNK        -0.5000 
     94 N          -1.0629  -18.0219  -51.3010 N.am      17 UNK        -0.5000 
     95 CA         -0.0287  -17.0708  -51.7417 C.3       17 UNK         0.1400 
     96 CB         -0.6629  -15.7591  -52.2543 C.3       17 UNK        -0.1800 
     97 C           0.9681  -17.6648  -52.7638 C.2       17 UNK         0.5000 
     98 O           1.6723  -16.9097  -53.4352 O.2       17 UNK        -0.5000 
     99 N           0.9937  -19.0033  -52.8712 N.am      18 UNK        -0.5000 
    100 CA         1.6894  -19.8052  -53.8845 C.3       18 UNK         0.1400 
    101 CB         3.2197  -19.7026  -53.7193 C.3       18 UNK        -0.1800 
    102 C          1.2023  -19.4966  -55.3160 C.2       18 UNK         0.5000 
    103 O          1.9928  -19.5507  -56.2603 O.2       18 UNK        -0.5000 
    104 N         -0.0891  -19.1639  -55.4421 N.am      19 UNK        -0.5000 
    105 CA        -0.7200  -18.7333  -56.6827 C.3       19 UNK         0.1400 
    106 CB        -1.0562  -17.2345  -56.5882 C.3       19 UNK        -0.1800 
    107 C         -1.9678  -19.5735  -56.9766 C.2       19 UNK         0.5000 
    108 O         -2.0174  -20.2331  -58.0158 O.2       19 UNK        -0.5000 
    109 N         -2.9617  -19.5237  -56.0789 N.am      20 UNK        -0.5000 
    110 CA        -4.2859  -20.1018  -56.3270 C.3       20 UNK         0.1400 
    111 CB        -5.3519  -19.2395  -55.6321 C.3       20 UNK        -0.1800 
    112 C         -4.4145  -21.5829  -55.9249 C.2       20 UNK         0.5000 
    113 O         -5.3855  -22.2222  -56.3342 O.2       20 UNK        -0.5000 
    114 N         -3.4754  -22.1010  -55.1146 N.am      21 UNK        -0.5000 
    115 CA        -3.4142  -23.4828  -54.6055 C.3       21 UNK         0.1400 
    116 CB        -3.0457  -24.4506  -55.7482 C.3       21 UNK        -0.1800 
    117 C         -4.6803  -23.9293  -53.8343 C.2       21 UNK         0.5000 
    118 O         -5.0097  -25.1168  -53.8205 O.2       21 UNK        -0.5000 
    119 N         -5.3880  -22.9538  -53.2469 N.am      22 UNK        -0.5000 
    120 CA        -6.7107  -23.0848  -52.6131 C.3       22 UNK         0.1400 
    121 C         -7.8459  -23.5661  -53.5729 C.2       22 UNK         0.5000 
    122 N         -7.7057  -23.4303  -54.8875 N.am      22 UNK        -0.7600 
    123 O         -8.8889  -24.0358  -53.1259 O.2       22 UNK        -0.5000 
    124 C124       -6.6657  -23.8599  -51.2645 C.3       23 UNK        -0.0398 
    125 S125       -5.6910  -22.9820  -49.9936 S.3       23 UNK        -0.2404 
    126 C126       -6.9817  -21.9039  -49.2961 C.3       23 UNK        -0.0205 
    127 H127       -4.1897  -12.0034  -46.8538 H         1 UNK         0.0600 
    128 H128       -5.7952  -12.4439  -46.2811 H         1 UNK         0.0600 
    129 H129       -5.2079  -13.1087  -47.7960 H         1 UNK         0.0600 
    130 H130       -3.1090  -15.6167  -46.0746 H         1 UNK         0.3000 
    131 H131       -3.7856  -14.6817  -48.6489 H         1 UNK         0.0600 
    132 H132       -2.0477  -16.0764  -49.4681 H         1 UNK         0.0800 
    133 H133       -1.1197  -16.0008  -48.0002 H         1 UNK         0.0800 
    134 H134       -4.7005  -17.4175  -49.3340 H         1 UNK         0.0800 
    135 H135       -5.0549  -16.6997  -47.7764 H         1 UNK         0.0800 
    136 H136       -5.6983  -19.5516  -49.7746 H         1 UNK         0.1150 
    137 H137       -7.0325  -22.0665  -46.5690 H         1 UNK         0.1150 
    138 H138       -5.0597  -18.3579  -45.7125 H         1 UNK         0.1150 
    139 H139       -6.0390  -19.5860  -43.9161 H         1 UNK         0.0800 
    140 H140       -7.2547  -20.7828  -44.2811 H         1 UNK         0.0800 
    141 H141       -2.8487  -21.1874  -43.3594 H         1 UNK         0.0800 
    142 H142       -3.5651  -20.0722  -44.4816 H         1 UNK         0.0800 
    143 H143       -3.4478  -21.8327  -46.2943 H         1 UNK         0.0600 
    144 H144       -1.2180  -20.4027  -45.2576 H         1 UNK         0.3000 
    145 H145        1.0997  -21.3640  -47.8122 H         1 UNK         0.0600 
    146 H146        1.2921  -18.9751  -48.2377 H         1 UNK         0.0600 
    147 H147       -0.2740  -19.5042  -48.8379 H         1 UNK         0.0600 
    148 H148       -0.1628  -18.6322  -47.3094 H         1 UNK         0.0600 
    149 H149        1.3626  -19.5206  -45.6641 H         1 UNK         0.3000 
    150 H150        2.5677  -21.9495  -43.2769 H         1 UNK         0.0600 
    151 H151        4.4308  -21.1626  -44.7477 H         1 UNK         0.0600 
    152 H152        4.3570  -20.2424  -43.2520 H         1 UNK         0.0600 
    153 H153        3.7555  -19.5375  -44.7496 H         1 UNK         0.0600 
    154 H154        2.0518  -19.1770  -42.9681 H         1 UNK         0.3000 
    155 H155       -1.3007  -19.4754  -41.7116 H         1 UNK         0.0600 
    156 H156        1.3938  -18.6214  -40.5249 H         1 UNK         0.0600 
    157 H157        0.3499  -19.8751  -39.8630 H         1 UNK         0.0600 
    158 H158       -0.2021  -18.2077  -39.9040 H         1 UNK         0.0600 
    159 H159        0.2446  -17.1635  -42.1896 H         1 UNK         0.3000 
    160 H160       -0.8156  -16.5980  -45.5945 H         1 UNK         0.0600 
    161 H161       -1.2019  -15.1908  -42.8966 H         1 UNK         0.0600 
    162 H162       -2.5019  -15.7036  -43.9553 H         1 UNK         0.0600 
    163 H163       -1.3804  -14.4512  -44.4802 H         1 UNK         0.0600 
    164 H164        1.0066  -15.1283  -44.0328 H         1 UNK         0.3000 
    165 H165        4.0232  -16.8507  -44.8417 H         1 UNK         0.0600 
    166 H166        4.5912  -14.5432  -45.5364 H         1 UNK         0.0600 
    167 H167        3.5132  -15.2724  -46.7168 H         1 UNK         0.0600 
    168 H168        2.8877  -14.0949  -45.5697 H         1 UNK         0.0600 
    169 H169        3.3142  -14.5755  -43.2029 H         1 UNK         0.3000 
    170 H170        3.1192  -16.3487  -40.1198 H         1 UNK         0.0600 
    171 H171        5.5533  -16.0024  -40.5616 H         1 UNK         0.0600 
    172 H172        5.2159  -14.4214  -41.2564 H         1 UNK         0.0600 
    173 H173        4.8985  -14.7259  -39.5484 H         1 UNK         0.0600 
    174 H174        2.9292  -13.5659  -40.8023 H         1 UNK         0.3000 
    175 H175       -0.6411  -13.5365  -41.1478 H         1 UNK         0.0600 
    176 H176        1.2460  -12.4037  -39.0220 H         1 UNK         0.0600 
    177 H177       -0.4140  -11.8959  -39.3339 H         1 UNK         0.0600 
    178 H178       -0.0914  -13.5016  -38.7023 H         1 UNK         0.0600 
    179 H179        0.8451  -11.2904  -41.3272 H         1 UNK         0.3000 
    180 H180        0.7371  -10.2710  -43.4212 H         1 UNK         0.0600 
    181 H181        3.4838  -11.4407  -44.1636 H         1 UNK         0.0600 
    182 H182        3.1364  -10.4890  -42.7251 H         1 UNK         0.0600 
    183 H183        3.0179   -9.7459  -44.3115 H         1 UNK         0.0600 
    184 H184        1.7551  -11.3745  -45.8884 H         1 UNK         0.3000 
    185 H185       -0.8594  -11.1037  -47.6950 H         1 UNK         0.0600 
    186 H186        1.6112  -11.5041  -47.8784 H         1 UNK         0.0600 
    187 H187        1.3960  -13.1724  -47.3398 H         1 UNK         0.0600 
    188 H188        0.7423  -12.6401  -48.8827 H         1 UNK         0.0600 
    189 H189       -1.5238  -13.4780  -46.2714 H         1 UNK         0.3000 
    190 H190       -0.9001  -22.7762  -43.9103 H         1 UNK         0.3000 
    191 H191       -1.8105  -25.4032  -43.4421 H         1 UNK         0.0600 
    192 H192        1.0082  -24.2209  -43.2192 H         1 UNK         0.0600 
    193 H193        0.4871  -25.7425  -42.5044 H         1 UNK         0.0600 
    194 H194       -0.2213  -24.2306  -41.9571 H         1 UNK         0.0600 
    195 H195        0.5033  -24.1754  -45.8786 H         1 UNK         0.3000 
    196 H196        1.0893  -26.7560  -47.0364 H         1 UNK         0.0600 
    197 H197        2.2076  -25.3506  -48.7777 H         1 UNK         0.0600 
    198 H198        2.6502  -24.8241  -47.1609 H         1 UNK         0.0600 
    199 H199        1.4729  -23.9040  -48.0953 H         1 UNK         0.0600 
    200 H200       -1.6197  -24.6586  -47.3221 H         1 UNK         0.3000 
    201 H201       -3.3358  -24.3419  -48.6530 H         1 UNK         0.0600 
    202 H202       -3.7916  -26.7719  -48.2994 H         1 UNK         0.0600 
    203 H203       -2.8585  -27.1680  -49.7431 H         1 UNK         0.0600 
    204 H204       -4.3420  -26.2337  -49.8786 H         1 UNK         0.0600 
    205 H205       -1.1287  -23.1017  -49.3937 H         1 UNK         0.3000 
    206 H206       -0.5156  -23.5374  -52.2610 H         1 UNK         0.0600 
    207 H207        1.3185  -23.2947  -50.5611 H         1 UNK         0.0600 
    208 H208        1.3870  -22.0439  -51.7831 H         1 UNK         0.0600 
    209 H209        0.7528  -21.6680  -50.1875 H         1 UNK         0.0600 
    210 H210       -2.1147  -21.2317  -50.1282 H         1 UNK         0.3000 
    211 H211       -3.1448  -19.2618  -50.3572 H         1 UNK         0.0600 
    212 H212       -3.9380  -20.4004  -53.0754 H         1 UNK         0.0600 
    213 H213       -4.7715  -19.1090  -52.2153 H         1 UNK         0.0600 
    214 H214       -4.7452  -20.7328  -51.5487 H         1 UNK         0.0600 
    215 H215       -0.9987  -18.3041  -50.3337 H         1 UNK         0.3000 
    216 H216        0.5580  -16.8285  -50.8543 H         1 UNK         0.0600 
    217 H217        0.0980  -14.9946  -52.4147 H         1 UNK         0.0600 
    218 H218       -1.3792  -15.3502  -51.5435 H         1 UNK         0.0600 
    219 H219       -1.1801  -15.9031  -53.2034 H         1 UNK         0.0600 
    220 H220        0.3474  -19.5157  -52.2908 H         1 UNK         0.3000 
    221 H221        1.4110  -20.8431  -53.7067 H         1 UNK         0.0600 
    222 H222        3.5891  -18.7056  -53.9605 H         1 UNK         0.0600 
    223 H223        3.5216  -19.9350  -52.6981 H         1 UNK         0.0600 
    224 H224        3.7315  -20.4071  -54.3758 H         1 UNK         0.0600 
    225 H225       -0.6764  -19.1693  -54.6157 H         1 UNK         0.3000 
    226 H226       -0.0413  -18.8682  -57.5274 H         1 UNK         0.0600 
    227 H227       -0.1496  -16.6385  -56.4810 H         1 UNK         0.0600 
    228 H228       -1.5686  -16.8899  -57.4872 H         1 UNK         0.0600 
    229 H229       -1.6985  -17.0124  -55.7351 H         1 UNK         0.0600 
    230 H230       -2.8414  -18.9868  -55.2269 H         1 UNK         0.3000 
    231 H231       -4.4982  -20.0585  -57.3976 H         1 UNK         0.0600 
    232 H232       -5.3639  -18.2304  -56.0442 H         1 UNK         0.0600 
    233 H233       -5.1799  -19.1542  -54.5619 H         1 UNK         0.0600 
    234 H234       -6.3504  -19.6557  -55.7727 H         1 UNK         0.0600 
    235 H235       -2.7220  -21.4978  -54.8043 H         1 UNK         0.3000 
    236 H236       -2.5999  -23.5135  -53.8831 H         1 UNK         0.0600 
    237 H237       -3.8444  -24.5260  -56.4868 H         1 UNK         0.0600 
    238 H238       -2.1416  -24.1255  -56.2629 H         1 UNK         0.0600 
    239 H239       -2.8560  -25.4543  -55.3661 H         1 UNK         0.0600 
    240 H240       -5.0339  -22.0135  -53.3242 H         1 UNK         0.3000 
    241 H241       -7.0076  -22.0624  -52.3790 H         1 UNK         0.0600 
    242 H242       -8.4501  -23.7336  -55.4949 H         1 UNK         0.3800 
    243 H243       -6.8600  -23.0407  -55.2925 H         1 UNK         0.3800 
    244 H244       -6.2394  -24.8533  -51.4083 H         1 UNK         0.0800 
    245 H245       -7.6680  -24.0211  -50.8650 H         1 UNK         0.0800 
    246 H246       -7.7544  -22.5209  -48.8348 H         1 UNK         0.0800 
    247 H247       -7.4704  -21.3503  -50.0988 H         1 UNK         0.0800 
@<TRIPOS>BOND
     1    1    2 1    
     2    1  127 1    
     3    1  128 1    
     4    1  129 1    
     5    2    3 2    
     6    2    4 am   BACKBONE|DICT|INTERRES
     7    4    5 1    
     8    4  130 1    
     9    5    6 1    
    10    5   65 1    
    11    5  131 1    
    12    6    7 1    
    13    6  132 1    
    14    6  133 1    
    15    7    8 1    
    16    8    9 1    
    17    8  134 1    
    18    8  135 1    
    19    9   10 ar   
    20    9   14 ar   
    21   10   11 ar   
    22   10  136 1    
    23   11   12 ar   
    24   11  126 1    
    25   12   13 ar   
    26   12  137 1    
    27   13   14 ar   
    28   13   15 1    
    29   14  138 1    
    30   15   16 1    
    31   15  139 1    
    32   15  140 1    
    33   16   17 1    
    34   17   18 1    
    35   17  141 1    
    36   17  142 1    
    37   18   19 1    
    38   18   67 1    
    39   18  143 1    
    40   19   20 am   BACKBONE|DICT|INTERRES
    41   19  144 1    
    42   20   21 2    
    43   20   22 1    
    44   22   23 1    
    45   22   24 1    
    46   22  145 1    
    47   23  146 1    
    48   23  147 1    
    49   23  148 1    
    50   24   25 am   BACKBONE|DICT|INTERRES
    51   24  149 1    
    52   25   26 2    
    53   25   27 1    
    54   27   28 1    
    55   27   29 1    
    56   27  150 1    
    57   28  151 1    
    58   28  152 1    
    59   28  153 1    
    60   29   30 am   BACKBONE|DICT|INTERRES
    61   29  154 1    
    62   30   31 2    
    63   30   32 1    
    64   32   33 1    
    65   32   34 1    
    66   32  155 1    
    67   33  156 1    
    68   33  157 1    
    69   33  158 1    
    70   34   35 am   BACKBONE|DICT|INTERRES
    71   34  159 1    
    72   35   36 2    
    73   35   37 1    
    74   37   38 1    
    75   37   39 1    
    76   37  160 1    
    77   38  161 1    
    78   38  162 1    
    79   38  163 1    
    80   39   40 am   BACKBONE|DICT|INTERRES
    81   39  164 1    
    82   40   41 2    
    83   40   42 1    
    84   42   43 1    
    85   42   44 1    
    86   42  165 1    
    87   43  166 1    
    88   43  167 1    
    89   43  168 1    
    90   44   45 am   BACKBONE|DICT|INTERRES
    91   44  169 1    
    92   45   46 2    
    93   45   47 1    
    94   47   48 1    
    95   47   49 1    
    96   47  170 1    
    97   48  171 1    
    98   48  172 1    
    99   48  173 1    
   100   49   50 am   BACKBONE|DICT|INTERRES
   101   49  174 1    
   102   50   51 2    
   103   50   52 1    
   104   52   53 1    
   105   52   54 1    
   106   52  175 1    
   107   53  176 1    
   108   53  177 1    
   109   53  178 1    
   110   54   55 am   BACKBONE|DICT|INTERRES
   111   54  179 1    
   112   55   56 2    
   113   55   57 1    
   114   57   58 1    
   115   57   59 1    
   116   57  180 1    
   117   58  181 1    
   118   58  182 1    
   119   58  183 1    
   120   59   60 am   BACKBONE|DICT|INTERRES
   121   59  184 1    
   122   60   61 2    
   123   60   62 1    
   124   62   63 1    
   125   62   64 1    
   126   62  185 1    
   127   63  186 1    
   128   63  187 1    
   129   63  188 1    
   130   64   65 am   BACKBONE|DICT|INTERRES
   131   64  189 1    
   132   65   66 2    
   133   67   68 2    
   134   67   69 am   BACKBONE|DICT|INTERRES
   135   69   70 1    
   136   69  190 1    
   137   70   71 1    
   138   70   72 1    
   139   70  191 1    
   140   71  192 1    
   141   71  193 1    
   142   71  194 1    
   143   72   73 2    
   144   72   74 am   BACKBONE|DICT|INTERRES
   145   74   75 1    
   146   74  195 1    
   147   75   76 1    
   148   75   77 1    
   149   75  196 1    
   150   76  197 1    
   151   76  198 1    
   152   76  199 1    
   153   77   78 2    
   154   77   79 am   BACKBONE|DICT|INTERRES
   155   79   80 1    
   156   79  200 1    
   157   80   81 1    
   158   80   82 1    
   159   80  201 1    
   160   81  202 1    
   161   81  203 1    
   162   81  204 1    
   163   82   83 2    
   164   82   84 am   BACKBONE|DICT|INTERRES
   165   84   85 1    
   166   84  205 1    
   167   85   86 1    
   168   85   87 1    
   169   85  206 1    
   170   86  207 1    
   171   86  208 1    
   172   86  209 1    
   173   87   88 2    
   174   87   89 am   BACKBONE|DICT|INTERRES
   175   89   90 1    
   176   89  210 1    
   177   90   91 1    
   178   90   92 1    
   179   90  211 1    
   180   91  212 1    
   181   91  213 1    
   182   91  214 1    
   183   92   93 2    
   184   92   94 am   BACKBONE|DICT|INTERRES
   185   94   95 1    
   186   94  215 1    
   187   95   96 1    
   188   95   97 1    
   189   95  216 1    
   190   96  217 1    
   191   96  218 1    
   192   96  219 1    
   193   97   98 2    
   194   97   99 am   BACKBONE|DICT|INTERRES
   195   99  100 1    
   196   99  220 1    
   197  100  101 1    
   198  100  102 1    
   199  100  221 1    
   200  101  222 1    
   201  101  223 1    
   202  101  224 1    
   203  102  103 2    
   204  102  104 am   BACKBONE|DICT|INTERRES
   205  104  105 1    
   206  104  225 1    
   207  105  106 1    
   208  105  107 1    
   209  105  226 1    
   210  106  227 1    
   211  106  228 1    
   212  106  229 1    
   213  107  108 2    
   214  107  109 am   BACKBONE|DICT|INTERRES
   215  109  110 1    
   216  109  230 1    
   217  110  111 1    
   218  110  112 1    
   219  110  231 1    
   220  111  232 1    
   221  111  233 1    
   222  111  234 1    
   223  112  113 2    
   224  112  114 am   BACKBONE|DICT|INTERRES
   225  114  115 1    
   226  114  235 1    
   227  115  116 1    
   228  115  117 1    
   229  115  236 1    
   230  116  237 1    
   231  116  238 1    
   232  116  239 1    
   233  117  118 2    
   234  117  119 am   BACKBONE|DICT|INTERRES
   235  119  120 1    
   236  119  240 1    
   237  120  121 1    
   238  120  124 1    
   239  120  241 1    
   240  121  122 am   BACKBONE|DICT|INTERRES
   241  121  123 2    
   242  122  242 1    
   243  122  243 1    
   244  124  125 1    
   245  124  244 1    
   246  124  245 1    
   247  125  126 1    
   248  126  246 1    
   249  126  247 1    
@<TRIPOS>SUBSTRUCTURE
     1 UNK         1 GROUP             0       ****    0 ROOT    
