@<TRIPOS>MOLECULE
3R540
247   249    1
SMALL
USER_CHARGES


@<TRIPOS>ATOM
      1 CA         -5.1354  -15.5083  -40.8037 C.3       0 UNK        -0.1800 
      2 C          -5.0627  -15.5326  -42.3236 C.2       0 UNK         0.5000 
      3 O          -6.0239  -15.1482  -42.9908 O.2       0 UNK        -0.5000 
      4 N          -3.9241  -15.9692  -42.8766 N.am      1 UNK        -0.5000 
      5 CA         -3.6534  -16.0758  -44.3147 C.3       1 UNK         0.1400 
      6 C6         -2.5748  -17.1517  -44.5929 C.3       23 UNK        -0.0398 
      7 S7         -2.4930  -17.6327  -46.3485 S.3       23 UNK        -0.2404 
      8 C8         -1.2850  -18.9867  -46.2624 C.3       23 UNK        -0.0205 
      9 C9         -0.6230  -19.2528  -47.6016 C.ar      23 UNK        -0.0193 
     10 C10        -1.3938  -19.5757  -48.7207 C.ar      23 UNK        -0.1150 
     11 C11        -0.7863  -19.8476  -49.9482 C.ar      23 UNK        -0.0193 
     12 C12         0.6072  -19.7935  -50.0496 C.ar      23 UNK        -0.1150 
     13 C13         1.3922  -19.4866  -48.9343 C.ar      23 UNK        -0.0193 
     14 C14         0.7676  -19.2056  -47.7151 C.ar      23 UNK        -0.1150 
     15 C15         2.9124  -19.4715  -49.0570 C.3       23 UNK        -0.0205 
     16 S16         3.7510  -20.4057  -47.7330 S.3       23 UNK        -0.2404 
     17 C17         2.9102  -22.0224  -47.8455 C.3       23 UNK        -0.0398 
     18 CA          3.8022  -23.1918  -47.3683 C.3       11 UNK         0.1400 
     19 N           4.1962  -23.0326  -45.9645 N.am      11 UNK        -0.5000 
     20 C           5.2231  -23.6669  -45.3840 C.2       10 UNK         0.5000 
     21 O           5.9749  -24.4432  -45.9743 O.2       10 UNK        -0.5000 
     22 CA          5.4208  -23.4083  -43.8819 C.3       10 UNK         0.1400 
     23 CB          6.1722  -22.0886  -43.6508 C.3       10 UNK        -0.1800 
     24 N           4.1399  -23.3800  -43.1738 N.am      10 UNK        -0.5000 
     25 C           3.4447  -24.4764  -42.8375 C.2       9 UNK         0.5000 
     26 O           3.8329  -25.6239  -43.0562 O.2       9 UNK        -0.5000 
     27 CA          2.0814  -24.2641  -42.1521 C.3       9 UNK         0.1400 
     28 CB          2.2444  -24.2550  -40.6247 C.3       9 UNK        -0.1800 
     29 N           1.4079  -23.0336  -42.5672 N.am      9 UNK        -0.5000 
     30 C           0.8911  -22.8206  -43.7848 C.2       8 UNK         0.5000 
     31 O           0.9260  -23.6409  -44.6999 O.2       8 UNK        -0.5000 
     32 CA          0.2685  -21.4368  -44.0345 C.3       8 UNK         0.1400 
     33 CB         -1.1934  -21.4240  -43.5609 C.3       8 UNK        -0.1800 
     34 N           0.9982  -20.3413  -43.3898 N.am      8 UNK        -0.5000 
     35 C           2.2861  -20.0425  -43.6070 C.2       7 UNK         0.5000 
     36 O           3.0272  -20.6946  -44.3458 O.2       7 UNK        -0.5000 
     37 CA          2.8447  -18.8259  -42.8495 C.3       7 UNK         0.1400 
     38 CB          4.0888  -19.2049  -42.0302 C.3       7 UNK        -0.1800 
     39 N           3.1832  -17.7418  -43.7689 N.am      7 UNK        -0.5000 
     40 C           2.2832  -16.9853  -44.4074 C.2       6 UNK         0.5000 
     41 O           1.0639  -17.1084  -44.2672 O.2       6 UNK        -0.5000 
     42 CA          2.8390  -15.9052  -45.3467 C.3       6 UNK         0.1400 
     43 CB          3.3443  -16.5086  -46.6677 C.3       6 UNK        -0.1800 
     44 N           1.7835  -14.9421  -45.6361 N.am      6 UNK        -0.5000 
     45 C           1.9460  -13.6292  -45.8259 C.2       5 UNK         0.5000 
     46 O           3.0387  -13.0602  -45.7819 O.2       5 UNK        -0.5000 
     47 CA          0.6563  -12.8360  -46.1236 C.3       5 UNK         0.1400 
     48 CB          0.9107  -11.3663  -46.5197 C.3       5 UNK        -0.1800 
     49 N          -0.1948  -13.5111  -47.1101 N.am      5 UNK        -0.5000 
     50 C           0.1121  -13.7878  -48.3883 C.2       4 UNK         0.5000 
     51 O           1.1734  -13.4650  -48.9229 O.2       4 UNK        -0.5000 
     52 CA         -0.9347  -14.5343  -49.2315 C.3       4 UNK         0.1400 
     53 CB         -0.6515  -16.0438  -49.2486 C.3       4 UNK        -0.1800 
     54 N          -2.3062  -14.2822  -48.7830 N.am      4 UNK        -0.5000 
     55 C          -3.3369  -14.0512  -49.6084 C.2       3 UNK         0.5000 
     56 O          -3.2526  -14.1438  -50.8357 O.2       3 UNK        -0.5000 
     57 CA         -4.6930  -13.6518  -48.9821 C.3       3 UNK         0.1400 
     58 CB         -5.7748  -14.7036  -49.2720 C.3       3 UNK        -0.1800 
     59 N          -4.6410  -13.4418  -47.5361 N.am      3 UNK        -0.5000 
     60 C          -4.1498  -12.3610  -46.9152 C.2       2 UNK         0.5000 
     61 O          -3.6897  -11.3840  -47.5054 O.2       2 UNK        -0.5000 
     62 CA         -4.1561  -12.3895  -45.3718 C.3       2 UNK         0.1400 
     63 CB         -5.3115  -11.5411  -44.8202 C.3       2 UNK        -0.1800 
     64 N          -4.2529  -13.7420  -44.8115 N.am      2 UNK        -0.5000 
     65 C          -3.3199  -14.6946  -44.9308 C.2       1 UNK         0.5000 
     66 O          -2.2503  -14.5035  -45.5123 O.2       1 UNK        -0.5000 
     67 C           3.0940  -24.5394  -47.6359 C.2       11 UNK         0.5000 
     68 O           3.0398  -24.9643  -48.7904 O.2       11 UNK        -0.5000 
     69 N           2.5494  -25.1641  -46.5791 N.am      12 UNK        -0.5000 
     70 CA          1.6615  -26.3331  -46.5858 C.3       12 UNK         0.1400 
     71 CB          2.3875  -27.5892  -47.1107 C.3       12 UNK        -0.1800 
     72 C           0.3390  -26.0272  -47.3215 C.2       12 UNK         0.5000 
     73 O          -0.1258  -26.8226  -48.1406 O.2       12 UNK        -0.5000 
     74 N          -0.2156  -24.8466  -47.0279 N.am      13 UNK        -0.5000 
     75 CA         -1.4008  -24.2781  -47.6583 C.3       13 UNK         0.1400 
     76 CB         -1.1136  -22.8015  -47.9608 C.3       13 UNK        -0.1800 
     77 C          -2.6343  -24.4038  -46.7495 C.2       13 UNK         0.5000 
     78 O          -2.5092  -24.6491  -45.5477 O.2       13 UNK        -0.5000 
     79 N          -3.8131  -24.1996  -47.3501 N.am      14 UNK        -0.5000 
     80 CA         -5.1225  -24.2957  -46.6985 C.3       14 UNK         0.1400 
     81 CB         -6.1782  -24.5723  -47.7827 C.3       14 UNK        -0.1800 
     82 C          -5.5185  -23.0489  -45.8796 C.2       14 UNK         0.5000 
     83 O          -6.5642  -23.0731  -45.2308 O.2       14 UNK        -0.5000 
     84 N          -4.7301  -21.9662  -45.9673 N.am      15 UNK        -0.5000 
     85 CA         -4.9045  -20.6408  -45.3449 C.3       15 UNK         0.1400 
     86 CB         -4.9870  -20.7319  -43.8094 C.3       15 UNK        -0.1800 
     87 C          -6.0641  -19.8008  -45.9195 C.2       15 UNK         0.5000 
     88 O          -5.9511  -18.5771  -45.9758 O.2       15 UNK        -0.5000 
     89 N          -7.1390  -20.4596  -46.3672 N.am      16 UNK        -0.5000 
     90 CA         -8.2380  -19.8578  -47.1240 C.3       16 UNK         0.1400 
     91 CB         -9.4557  -20.7921  -47.0529 C.3       16 UNK        -0.1800 
     92 C          -7.8568  -19.5788  -48.5927 C.2       16 UNK         0.5000 
     93 O          -8.4848  -18.7351  -49.2336 O.2       16 UNK        -0.5000 
     94 N          -6.8472  -20.2994  -49.1002 N.am      17 UNK        -0.5000 
     95 CA         -6.2778  -20.1341  -50.4346 C.3       17 UNK         0.1400 
     96 CB         -5.3892  -21.3505  -50.7438 C.3       17 UNK        -0.1800 
     97 C          -5.4635  -18.8325  -50.5407 C.2       17 UNK         0.5000 
     98 O          -4.7242  -18.4992  -49.6132 O.2       17 UNK        -0.5000 
     99 N          -5.5870  -18.1465  -51.6814 N.am      18 UNK        -0.5000 
    100 CA        -4.7788  -16.9793  -52.0295 C.3       18 UNK         0.1400 
    101 CB        -5.5864  -16.0853  -52.9836 C.3       18 UNK        -0.1800 
    102 C         -3.4639  -17.4100  -52.6927 C.2       18 UNK         0.5000 
    103 O         -3.3950  -18.5125  -53.2402 O.2       18 UNK        -0.5000 
    104 N         -2.4620  -16.5184  -52.6876 N.am      19 UNK        -0.5000 
    105 CA        -1.1283  -16.7323  -53.2727 C.3       19 UNK         0.1400 
    106 CB        -0.3076  -15.4392  -53.1667 C.3       19 UNK        -0.1800 
    107 C         -1.1416  -17.2325  -54.7320 C.2       19 UNK         0.5000 
    108 O         -0.3390  -18.0948  -55.0921 O.2       19 UNK        -0.5000 
    109 N         -2.0918  -16.7191  -55.5244 N.am      20 UNK        -0.5000 
    110 CA        -2.3275  -17.1013  -56.9166 C.3       20 UNK         0.1400 
    111 CB        -3.3213  -16.1077  -57.5379 C.3       20 UNK        -0.1800 
    112 C         -2.8300  -18.5485  -57.1008 C.2       20 UNK         0.5000 
    113 O         -2.6437  -19.1072  -58.1827 O.2       20 UNK        -0.5000 
    114 N         -3.4560  -19.1305  -56.0670 N.am      21 UNK        -0.5000 
    115 CA        -3.9271  -20.5153  -56.0746 C.3       21 UNK         0.1400 
    116 CB        -5.0797  -20.6836  -55.0712 C.3       21 UNK        -0.1800 
    117 C         -2.7859  -21.5006  -55.7716 C.2       21 UNK         0.5000 
    118 O         -2.7215  -22.5571  -56.4023 O.2       21 UNK        -0.5000 
    119 N         -1.9051  -21.1395  -54.8278 N.am      22 UNK        -0.5000 
    120 CA        -0.7092  -21.9289  -54.4850 C.3       22 UNK         0.1400 
    121 C          0.4286  -21.7911  -55.5343 C.2       22 UNK         0.5000 
    122 N          0.6430  -20.6173  -56.1169 N.am      22 UNK        -0.7600 
    123 O          1.1226  -22.7613  -55.8253 O.2       22 UNK        -0.5000 
    124 C124       -0.1663  -21.6223  -53.0674 C.3       23 UNK        -0.0398 
    125 S125       -1.4095  -21.8807  -51.7524 S.3       23 UNK        -0.2404 
    126 C126       -1.6459  -20.1783  -51.1577 C.3       23 UNK        -0.0205 
    127 H127       -4.2147  -15.8727  -40.3474 H         1 UNK         0.0600 
    128 H128       -5.9574  -16.1350  -40.4579 H         1 UNK         0.0600 
    129 H129       -5.3098  -14.4911  -40.4530 H         1 UNK         0.0600 
    130 H130       -3.1593  -16.2314  -42.2710 H         1 UNK         0.3000 
    131 H131       -4.5731  -16.4152  -44.7968 H         1 UNK         0.0600 
    132 H132       -1.5914  -16.8126  -44.2639 H         1 UNK         0.0800 
    133 H133       -2.7966  -18.0525  -44.0190 H         1 UNK         0.0800 
    134 H134       -0.5344  -18.7544  -45.5072 H         1 UNK         0.0800 
    135 H135       -1.7824  -19.8988  -45.9407 H         1 UNK         0.0800 
    136 H136       -2.4707  -19.6109  -48.6321 H         1 UNK         0.1150 
    137 H137        1.0843  -20.0025  -50.9950 H         1 UNK         0.1150 
    138 H138        1.3680  -18.9716  -46.8473 H         1 UNK         0.1150 
    139 H139        3.2244  -19.8837  -50.0178 H         1 UNK         0.0800 
    140 H140        3.2598  -18.4384  -49.0392 H         1 UNK         0.0800 
    141 H141        1.9919  -21.9742  -47.2568 H         1 UNK         0.0800 
    142 H142        2.6038  -22.1784  -48.8818 H         1 UNK         0.0800 
    143 H143        4.7101  -23.1880  -47.9755 H         1 UNK         0.0600 
    144 H144        3.6729  -22.3521  -45.4230 H         1 UNK         0.3000 
    145 H145        6.0301  -24.2179  -43.4739 H         1 UNK         0.0600 
    146 H146        6.2915  -21.8802  -42.5875 H         1 UNK         0.0600 
    147 H147        5.6550  -21.2436  -44.1055 H         1 UNK         0.0600 
    148 H148        7.1701  -22.1307  -44.0887 H         1 UNK         0.0600 
    149 H149        3.7267  -22.4710  -43.0200 H         1 UNK         0.3000 
    150 H150        1.4421  -25.1074  -42.4223 H         1 UNK         0.0600 
    151 H151        2.7218  -25.1724  -40.2774 H         1 UNK         0.0600 
    152 H152        1.2781  -24.1843  -40.1251 H         1 UNK         0.0600 
    153 H153        2.8588  -23.4182  -40.2899 H         1 UNK         0.0600 
    154 H154        1.3370  -22.2983  -41.8796 H         1 UNK         0.3000 
    155 H155        0.2907  -21.2544  -45.1105 H         1 UNK         0.0600 
    156 H156       -1.7898  -22.1433  -44.1243 H         1 UNK         0.0600 
    157 H157       -1.6523  -20.4447  -43.6907 H         1 UNK         0.0600 
    158 H158       -1.2771  -21.6857  -42.5053 H         1 UNK         0.0600 
    159 H159        0.4619  -19.7459  -42.7755 H         1 UNK         0.3000 
    160 H160        2.0857  -18.4648  -42.1521 H         1 UNK         0.0600 
    161 H161        4.9252  -19.4849  -42.6704 H         1 UNK         0.0600 
    162 H162        3.8829  -20.0476  -41.3689 H         1 UNK         0.0600 
    163 H163        4.4140  -18.3736  -41.4046 H         1 UNK         0.0600 
    164 H164        4.1651  -17.6088  -43.9616 H         1 UNK         0.3000 
    165 H165        3.6651  -15.4103  -44.8317 H         1 UNK         0.0600 
    166 H166        3.8362  -15.7525  -47.2797 H         1 UNK         0.0600 
    167 H167        4.0656  -17.3082  -46.4949 H         1 UNK         0.0600 
    168 H168        2.5236  -16.9219  -47.2532 H         1 UNK         0.0600 
    169 H169        0.8489  -15.3309  -45.6182 H         1 UNK         0.3000 
    170 H170        0.0878  -12.8256  -45.1924 H         1 UNK         0.0600 
    171 H171        1.4274  -10.8324  -45.7214 H         1 UNK         0.0600 
    172 H172        1.5255  -11.2851  -47.4163 H         1 UNK         0.0600 
    173 H173       -0.0266  -10.8421  -46.7066 H         1 UNK         0.0600 
    174 H174       -1.0511  -13.8876  -46.7116 H         1 UNK         0.3000 
    175 H175       -0.8189  -14.1515  -50.2462 H         1 UNK         0.0600 
    176 H176       -0.6431  -16.4534  -48.2398 H         1 UNK         0.0600 
    177 H177       -1.3986  -16.5877  -49.8271 H         1 UNK         0.0600 
    178 H178        0.3224  -16.2561  -49.6908 H         1 UNK         0.0600 
    179 H179       -2.4601  -14.2127  -47.7870 H         1 UNK         0.3000 
    180 H180       -4.9997  -12.7150  -49.4518 H         1 UNK         0.0600 
    181 H181       -5.9730  -14.7700  -50.3410 H         1 UNK         0.0600 
    182 H182       -6.7191  -14.4445  -48.7929 H         1 UNK         0.0600 
    183 H183       -5.4812  -15.6943  -48.9210 H         1 UNK         0.0600 
    184 H184       -4.9976  -14.1920  -46.9628 H         1 UNK         0.3000 
    185 H185       -3.2149  -11.9507  -45.0339 H         1 UNK         0.0600 
    186 H186       -5.2576  -10.5168  -45.1914 H         1 UNK         0.0600 
    187 H187       -6.2816  -11.9462  -45.1111 H         1 UNK         0.0600 
    188 H188       -5.2807  -11.4932  -43.7314 H         1 UNK         0.0600 
    189 H189       -5.0966  -13.9730  -44.2951 H         1 UNK         0.3000 
    190 H190        2.6042  -24.6831  -45.6906 H         1 UNK         0.3000 
    191 H191        1.3958  -26.5187  -45.5440 H         1 UNK         0.0600 
    192 H192        1.7664  -28.4767  -46.9852 H         1 UNK         0.0600 
    193 H193        3.3157  -27.7628  -46.5663 H         1 UNK         0.0600 
    194 H194        2.6295  -27.5096  -48.1706 H         1 UNK         0.0600 
    195 H195        0.1832  -24.3133  -46.2586 H         1 UNK         0.3000 
    196 H196       -1.6096  -24.7914  -48.5993 H         1 UNK         0.0600 
    197 H197       -0.9273  -22.2307  -47.0509 H         1 UNK         0.0600 
    198 H198       -0.2420  -22.6924  -48.6070 H         1 UNK         0.0600 
    199 H199       -1.9534  -22.3380  -48.4788 H         1 UNK         0.0600 
    200 H200       -3.8252  -24.0036  -48.3408 H         1 UNK         0.3000 
    201 H201       -5.1104  -25.1433  -46.0101 H         1 UNK         0.0600 
    202 H202       -7.1684  -24.7053  -47.3447 H         1 UNK         0.0600 
    203 H203       -5.9474  -25.4839  -48.3343 H         1 UNK         0.0600 
    204 H204       -6.2447  -23.7535  -48.5001 H         1 UNK         0.0600 
    205 H205       -3.9152  -22.0555  -46.5557 H         1 UNK         0.3000 
    206 H206       -3.9964  -20.0916  -45.5831 H         1 UNK         0.0600 
    207 H207       -4.1552  -21.3043  -43.4004 H         1 UNK         0.0600 
    208 H208       -4.9506  -19.7380  -43.3615 H         1 UNK         0.0600 
    209 H209       -5.9126  -21.2023  -43.4772 H         1 UNK         0.0600 
    210 H210       -7.1817  -21.4583  -46.1945 H         1 UNK         0.3000 
    211 H211       -8.5062  -18.9056  -46.6614 H         1 UNK         0.0600 
    212 H212       -9.2418  -21.7663  -47.4947 H         1 UNK         0.0600 
    213 H213      -10.3061  -20.3675  -47.5880 H         1 UNK         0.0600 
    214 H214       -9.7691  -20.9531  -46.0213 H         1 UNK         0.0600 
    215 H215       -6.3661  -20.9324  -48.4816 H         1 UNK         0.3000 
    216 H216       -7.0949  -20.1056  -51.1587 H         1 UNK         0.0600 
    217 H217       -5.9684  -22.2740  -50.7403 H         1 UNK         0.0600 
    218 H218       -4.5832  -21.4566  -50.0164 H         1 UNK         0.0600 
    219 H219       -4.9286  -21.2605  -51.7282 H         1 UNK         0.0600 
    220 H220       -6.1718  -18.5154  -52.4165 H         1 UNK         0.3000 
    221 H221       -4.5374  -16.4230  -51.1252 H         1 UNK         0.0600 
    222 H222       -5.0444  -15.1664  -53.2108 H         1 UNK         0.0600 
    223 H223       -5.7946  -16.5881  -53.9292 H         1 UNK         0.0600 
    224 H224       -6.5402  -15.7964  -52.5421 H         1 UNK         0.0600 
    225 H225       -2.6115  -15.6329  -52.2146 H         1 UNK         0.3000 
    226 H226       -0.6229  -17.4917  -52.6753 H         1 UNK         0.0600 
    227 H227       -0.1063  -15.1864  -52.1279 H         1 UNK         0.0600 
    228 H228        0.6600  -15.5454  -53.6594 H         1 UNK         0.0600 
    229 H229       -0.8213  -14.5950  -53.6280 H         1 UNK         0.0600 
    230 H230       -2.7152  -16.0285  -55.1334 H         1 UNK         0.3000 
    231 H231       -1.3792  -17.0162  -57.4515 H         1 UNK         0.0600 
    232 H232       -3.5015  -16.3394  -58.5886 H         1 UNK         0.0600 
    233 H233       -2.9402  -15.0872  -57.4932 H         1 UNK         0.0600 
    234 H234       -4.2847  -16.1305  -57.0268 H         1 UNK         0.0600 
    235 H235       -3.5207  -18.6406  -55.1806 H         1 UNK         0.3000 
    236 H236       -4.3191  -20.7487  -57.0671 H         1 UNK         0.0600 
    237 H237       -5.8804  -19.9697  -55.2643 H         1 UNK         0.0600 
    238 H238       -5.5097  -21.6833  -55.1417 H         1 UNK         0.0600 
    239 H239       -4.7478  -20.5474  -54.0427 H         1 UNK         0.0600 
    240 H240       -2.0338  -20.2609  -54.3460 H         1 UNK         0.3000 
    241 H241       -1.0023  -22.9809  -54.4840 H         1 UNK         0.0600 
    242 H242        0.1368  -19.7850  -55.8260 H         1 UNK         0.3800 
    243 H243        1.3779  -20.5341  -56.8006 H         1 UNK         0.3800 
    244 H244        0.2205  -20.6034  -53.0318 H         1 UNK         0.0800 
    245 H245        0.6814  -22.2714  -52.8409 H         1 UNK         0.0800 
    246 H246       -2.7010  -20.0406  -50.9232 H         1 UNK         0.0800 
    247 H247       -1.4222  -19.4743  -51.9540 H         1 UNK         0.0800 
@<TRIPOS>BOND
     1    1    2 1    
     2    1  127 1    
     3    1  128 1    
     4    1  129 1    
     5    2    3 2    
     6    2    4 am   BACKBONE|DICT|INTERRES
     7    4    5 1    
     8    4  130 1    
     9    5    6 1    
    10    5   65 1    
    11    5  131 1    
    12    6    7 1    
    13    6  132 1    
    14    6  133 1    
    15    7    8 1    
    16    8    9 1    
    17    8  134 1    
    18    8  135 1    
    19    9   10 ar   
    20    9   14 ar   
    21   10   11 ar   
    22   10  136 1    
    23   11   12 ar   
    24   11  126 1    
    25   12   13 ar   
    26   12  137 1    
    27   13   14 ar   
    28   13   15 1    
    29   14  138 1    
    30   15   16 1    
    31   15  139 1    
    32   15  140 1    
    33   16   17 1    
    34   17   18 1    
    35   17  141 1    
    36   17  142 1    
    37   18   19 1    
    38   18   67 1    
    39   18  143 1    
    40   19   20 am   BACKBONE|DICT|INTERRES
    41   19  144 1    
    42   20   21 2    
    43   20   22 1    
    44   22   23 1    
    45   22   24 1    
    46   22  145 1    
    47   23  146 1    
    48   23  147 1    
    49   23  148 1    
    50   24   25 am   BACKBONE|DICT|INTERRES
    51   24  149 1    
    52   25   26 2    
    53   25   27 1    
    54   27   28 1    
    55   27   29 1    
    56   27  150 1    
    57   28  151 1    
    58   28  152 1    
    59   28  153 1    
    60   29   30 am   BACKBONE|DICT|INTERRES
    61   29  154 1    
    62   30   31 2    
    63   30   32 1    
    64   32   33 1    
    65   32   34 1    
    66   32  155 1    
    67   33  156 1    
    68   33  157 1    
    69   33  158 1    
    70   34   35 am   BACKBONE|DICT|INTERRES
    71   34  159 1    
    72   35   36 2    
    73   35   37 1    
    74   37   38 1    
    75   37   39 1    
    76   37  160 1    
    77   38  161 1    
    78   38  162 1    
    79   38  163 1    
    80   39   40 am   BACKBONE|DICT|INTERRES
    81   39  164 1    
    82   40   41 2    
    83   40   42 1    
    84   42   43 1    
    85   42   44 1    
    86   42  165 1    
    87   43  166 1    
    88   43  167 1    
    89   43  168 1    
    90   44   45 am   BACKBONE|DICT|INTERRES
    91   44  169 1    
    92   45   46 2    
    93   45   47 1    
    94   47   48 1    
    95   47   49 1    
    96   47  170 1    
    97   48  171 1    
    98   48  172 1    
    99   48  173 1    
   100   49   50 am   BACKBONE|DICT|INTERRES
   101   49  174 1    
   102   50   51 2    
   103   50   52 1    
   104   52   53 1    
   105   52   54 1    
   106   52  175 1    
   107   53  176 1    
   108   53  177 1    
   109   53  178 1    
   110   54   55 am   BACKBONE|DICT|INTERRES
   111   54  179 1    
   112   55   56 2    
   113   55   57 1    
   114   57   58 1    
   115   57   59 1    
   116   57  180 1    
   117   58  181 1    
   118   58  182 1    
   119   58  183 1    
   120   59   60 am   BACKBONE|DICT|INTERRES
   121   59  184 1    
   122   60   61 2    
   123   60   62 1    
   124   62   63 1    
   125   62   64 1    
   126   62  185 1    
   127   63  186 1    
   128   63  187 1    
   129   63  188 1    
   130   64   65 am   BACKBONE|DICT|INTERRES
   131   64  189 1    
   132   65   66 2    
   133   67   68 2    
   134   67   69 am   BACKBONE|DICT|INTERRES
   135   69   70 1    
   136   69  190 1    
   137   70   71 1    
   138   70   72 1    
   139   70  191 1    
   140   71  192 1    
   141   71  193 1    
   142   71  194 1    
   143   72   73 2    
   144   72   74 am   BACKBONE|DICT|INTERRES
   145   74   75 1    
   146   74  195 1    
   147   75   76 1    
   148   75   77 1    
   149   75  196 1    
   150   76  197 1    
   151   76  198 1    
   152   76  199 1    
   153   77   78 2    
   154   77   79 am   BACKBONE|DICT|INTERRES
   155   79   80 1    
   156   79  200 1    
   157   80   81 1    
   158   80   82 1    
   159   80  201 1    
   160   81  202 1    
   161   81  203 1    
   162   81  204 1    
   163   82   83 2    
   164   82   84 am   BACKBONE|DICT|INTERRES
   165   84   85 1    
   166   84  205 1    
   167   85   86 1    
   168   85   87 1    
   169   85  206 1    
   170   86  207 1    
   171   86  208 1    
   172   86  209 1    
   173   87   88 2    
   174   87   89 am   BACKBONE|DICT|INTERRES
   175   89   90 1    
   176   89  210 1    
   177   90   91 1    
   178   90   92 1    
   179   90  211 1    
   180   91  212 1    
   181   91  213 1    
   182   91  214 1    
   183   92   93 2    
   184   92   94 am   BACKBONE|DICT|INTERRES
   185   94   95 1    
   186   94  215 1    
   187   95   96 1    
   188   95   97 1    
   189   95  216 1    
   190   96  217 1    
   191   96  218 1    
   192   96  219 1    
   193   97   98 2    
   194   97   99 am   BACKBONE|DICT|INTERRES
   195   99  100 1    
   196   99  220 1    
   197  100  101 1    
   198  100  102 1    
   199  100  221 1    
   200  101  222 1    
   201  101  223 1    
   202  101  224 1    
   203  102  103 2    
   204  102  104 am   BACKBONE|DICT|INTERRES
   205  104  105 1    
   206  104  225 1    
   207  105  106 1    
   208  105  107 1    
   209  105  226 1    
   210  106  227 1    
   211  106  228 1    
   212  106  229 1    
   213  107  108 2    
   214  107  109 am   BACKBONE|DICT|INTERRES
   215  109  110 1    
   216  109  230 1    
   217  110  111 1    
   218  110  112 1    
   219  110  231 1    
   220  111  232 1    
   221  111  233 1    
   222  111  234 1    
   223  112  113 2    
   224  112  114 am   BACKBONE|DICT|INTERRES
   225  114  115 1    
   226  114  235 1    
   227  115  116 1    
   228  115  117 1    
   229  115  236 1    
   230  116  237 1    
   231  116  238 1    
   232  116  239 1    
   233  117  118 2    
   234  117  119 am   BACKBONE|DICT|INTERRES
   235  119  120 1    
   236  119  240 1    
   237  120  121 1    
   238  120  124 1    
   239  120  241 1    
   240  121  122 am   BACKBONE|DICT|INTERRES
   241  121  123 2    
   242  122  242 1    
   243  122  243 1    
   244  124  125 1    
   245  124  244 1    
   246  124  245 1    
   247  125  126 1    
   248  126  246 1    
   249  126  247 1    
@<TRIPOS>SUBSTRUCTURE
     1 UNK         1 GROUP             0       ****    0 ROOT    
