@<TRIPOS>MOLECULE
3R540
247   249    1
SMALL
USER_CHARGES


@<TRIPOS>ATOM
      1 CA          3.5698  -17.0427  -52.0785 C.3       0 UNK        -0.1800 
      2 C           3.2270  -16.3557  -50.7648 C.2       0 UNK         0.5000 
      3 O           3.0088  -17.0300  -49.7583 O.2       0 UNK        -0.5000 
      4 N           3.1846  -15.0173  -50.7645 N.am      1 UNK        -0.5000 
      5 CA          2.8432  -14.1781  -49.6117 C.3       1 UNK         0.1400 
      6 C6          2.2165  -12.8364  -50.0692 C.3       23 UNK        -0.0398 
      7 S7          1.3099  -11.8957  -48.7831 S.3       23 UNK        -0.2404 
      8 C8          0.1810  -13.1099  -48.0041 C.3       23 UNK        -0.0205 
      9 C9         -0.7738  -13.8494  -48.9449 C.ar      23 UNK        -0.0193 
     10 C10        -1.1425  -13.3447  -50.1977 C.ar      23 UNK        -0.1150 
     11 C11        -2.0223  -14.0482  -51.0238 C.ar      23 UNK        -0.0193 
     12 C12        -2.5521  -15.2645  -50.5851 C.ar      23 UNK        -0.1150 
     13 C13        -2.2147  -15.7788  -49.3300 C.ar      23 UNK        -0.0193 
     14 C14        -1.3325  -15.0570  -48.5159 C.ar      23 UNK        -0.1150 
     15 C15        -2.8769  -17.0717  -48.8563 C.3       23 UNK        -0.0205 
     16 S16        -1.8704  -18.0798  -47.7168 S.3       23 UNK        -0.2404 
     17 C17        -0.7154  -18.9447  -48.8493 C.3       23 UNK        -0.0398 
     18 CA         -0.3540  -20.3831  -48.3855 C.3       11 UNK         0.1400 
     19 N          -0.0057  -20.4105  -46.9624 N.am      11 UNK        -0.5000 
     20 C           0.3673  -21.4743  -46.2404 C.2       10 UNK         0.5000 
     21 O           0.5937  -22.5827  -46.7203 O.2       10 UNK        -0.5000 
     22 CA          0.4450  -21.2770  -44.7115 C.3       10 UNK         0.1400 
     23 CB          1.8905  -20.9875  -44.2856 C.3       10 UNK        -0.1800 
     24 N          -0.4386  -20.2218  -44.1978 N.am      10 UNK        -0.5000 
     25 C          -1.7740  -20.1971  -44.3419 C.2       9 UNK         0.5000 
     26 O          -2.4046  -21.0780  -44.9309 O.2       9 UNK        -0.5000 
     27 CA         -2.5111  -18.9654  -43.7737 C.3       9 UNK         0.1400 
     28 CB         -4.0199  -19.2127  -43.5646 C.3       9 UNK        -0.1800 
     29 N          -1.8871  -18.4181  -42.5611 N.am      9 UNK        -0.5000 
     30 C          -1.7493  -19.0460  -41.3832 C.2       8 UNK         0.5000 
     31 O          -2.1533  -20.1904  -41.1720 O.2       8 UNK        -0.5000 
     32 CA         -1.0525  -18.2869  -40.2399 C.3       8 UNK         0.1400 
     33 CB          0.0913  -19.1220  -39.6348 C.3       8 UNK        -0.1800 
     34 N          -0.5115  -16.9829  -40.6405 N.am      8 UNK        -0.5000 
     35 C          -0.8047  -15.8308  -40.0218 C.2       7 UNK         0.5000 
     36 O          -1.7144  -15.7077  -39.2002 O.2       7 UNK        -0.5000 
     37 CA          0.0967  -14.6192  -40.3144 C.3       7 UNK         0.1400 
     38 CB          1.3959  -14.7242  -39.5000 C.3       7 UNK        -0.1800 
     39 N           0.4230  -14.4436  -41.7291 N.am      7 UNK        -0.5000 
     40 C          -0.3909  -13.8512  -42.6139 C.2       6 UNK         0.5000 
     41 O          -1.5354  -13.4817  -42.3485 O.2       6 UNK        -0.5000 
     42 CA          0.1678  -13.6192  -44.0321 C.3       6 UNK         0.1400 
     43 CB          1.1012  -12.3995  -44.0666 C.3       6 UNK        -0.1800 
     44 N           0.8791  -14.7801  -44.5586 N.am      6 UNK        -0.5000 
     45 C           0.2935  -15.9449  -44.8588 C.2       5 UNK         0.5000 
     46 O          -0.9133  -16.1542  -44.7575 O.2       5 UNK        -0.5000 
     47 CA          1.2244  -17.0833  -45.2984 C.3       5 UNK         0.1400 
     48 CB          1.6449  -16.9307  -46.7633 C.3       5 UNK        -0.1800 
     49 N           2.4060  -17.1697  -44.4434 N.am      5 UNK        -0.5000 
     50 C           2.3728  -17.5740  -43.1670 C.2       4 UNK         0.5000 
     51 O           1.3527  -17.9942  -42.6215 O.2       4 UNK        -0.5000 
     52 CA          3.6840  -17.4829  -42.3649 C.3       4 UNK         0.1400 
     53 CB          4.4515  -18.8100  -42.4458 C.3       4 UNK        -0.1800 
     54 N           4.5546  -16.3929  -42.8127 N.am      4 UNK        -0.5000 
     55 C           4.2858  -15.0906  -42.6400 C.2       3 UNK         0.5000 
     56 O           3.2802  -14.6722  -42.0692 O.2       3 UNK        -0.5000 
     57 CA          5.2700  -14.0914  -43.2788 C.3       3 UNK         0.1400 
     58 CB          6.5089  -13.9025  -42.3910 C.3       3 UNK        -0.1800 
     59 N           5.6863  -14.4871  -44.6288 N.am      3 UNK        -0.5000 
     60 C           4.8405  -14.6555  -45.6536 C.2       2 UNK         0.5000 
     61 O           3.6244  -14.4697  -45.5570 O.2       2 UNK        -0.5000 
     62 CA          5.4461  -15.1841  -46.9707 C.3       2 UNK         0.1400 
     63 CB          5.8896  -16.6477  -46.8074 C.3       2 UNK        -0.1800 
     64 N           4.4828  -15.1247  -48.0684 N.am      2 UNK        -0.5000 
     65 C           4.0562  -14.0085  -48.6682 C.2       1 UNK         0.5000 
     66 O           4.5888  -12.9080  -48.5119 O.2       1 UNK        -0.5000 
     67 C          -1.4752  -21.3872  -48.7307 C.2       11 UNK         0.5000 
     68 O          -1.3057  -22.2170  -49.6244 O.2       11 UNK        -0.5000 
     69 N          -2.5852  -21.3159  -47.9837 N.am      12 UNK        -0.5000 
     70 CA         -3.7489  -22.1833  -48.1451 C.3       12 UNK         0.1400 
     71 CB         -4.9527  -21.5688  -47.4166 C.3       12 UNK        -0.1800 
     72 C          -3.4786  -23.6149  -47.6601 C.2       12 UNK         0.5000 
     73 O          -4.0070  -24.5579  -48.2461 O.2       12 UNK        -0.5000 
     74 N          -2.6356  -23.7601  -46.6278 N.am      13 UNK        -0.5000 
     75 CA         -2.1733  -25.0548  -46.1266 C.3       13 UNK         0.1400 
     76 CB         -1.4261  -24.8655  -44.7984 C.3       13 UNK        -0.1800 
     77 C          -1.2971  -25.7960  -47.1547 C.2       13 UNK         0.5000 
     78 O          -1.5060  -26.9882  -47.3780 O.2       13 UNK        -0.5000 
     79 N          -0.3630  -25.0707  -47.7874 N.am      14 UNK        -0.5000 
     80 CA          0.5182  -25.5765  -48.8414 C.3       14 UNK         0.1400 
     81 CB          1.6236  -24.5478  -49.1242 C.3       14 UNK        -0.1800 
     82 C          -0.2387  -25.9289  -50.1342 C.2       14 UNK         0.5000 
     83 O           0.0477  -26.9607  -50.7427 O.2       14 UNK        -0.5000 
     84 N          -1.2049  -25.0824  -50.5172 N.am      15 UNK        -0.5000 
     85 CA         -2.0889  -25.2998  -51.6658 C.3       15 UNK         0.1400 
     86 CB         -2.7551  -23.9667  -52.0352 C.3       15 UNK        -0.1800 
     87 C          -3.1525  -26.3925  -51.4276 C.2       15 UNK         0.5000 
     88 O          -3.7179  -26.9009  -52.3961 O.2       15 UNK        -0.5000 
     89 N          -3.4066  -26.7205  -50.1520 N.am      16 UNK        -0.5000 
     90 CA         -4.4077  -27.6604  -49.6346 C.3       16 UNK         0.1400 
     91 CB         -4.1252  -29.0976  -50.1192 C.3       16 UNK        -0.1800 
     92 C          -5.8643  -27.2119  -49.8888 C.2       16 UNK         0.5000 
     93 O          -6.7741  -28.0432  -49.8798 O.2       16 UNK        -0.5000 
     94 N          -6.0602  -25.9046  -50.0873 N.am      17 UNK        -0.5000 
     95 CA         -7.3211  -25.2223  -50.3490 C.3       17 UNK         0.1400 
     96 CB         -7.8986  -25.6371  -51.7174 C.3       17 UNK        -0.1800 
     97 C          -7.0478  -23.7133  -50.3359 C.2       17 UNK         0.5000 
     98 O          -5.9315  -23.2934  -50.6455 O.2       17 UNK        -0.5000 
     99 N          -8.0759  -22.9186  -50.0154 N.am      18 UNK        -0.5000 
    100 CA        -8.0257  -21.4552  -50.0933 C.3       18 UNK         0.1400 
    101 CB        -9.1757  -20.8658  -49.2635 C.3       18 UNK        -0.1800 
    102 C         -8.0836  -20.9383  -51.5453 C.2       18 UNK         0.5000 
    103 O         -7.5685  -19.8558  -51.8287 O.2       18 UNK        -0.5000 
    104 N         -8.7031  -21.7220  -52.4394 N.am      19 UNK        -0.5000 
    105 CA        -8.7967  -21.4557  -53.8723 C.3       19 UNK         0.1400 
    106 CB        -9.7507  -22.4761  -54.5133 C.3       19 UNK        -0.1800 
    107 C         -7.4085  -21.5029  -54.5353 C.2       19 UNK         0.5000 
    108 O         -6.7468  -22.5413  -54.4837 O.2       19 UNK        -0.5000 
    109 N         -7.0004  -20.3705  -55.1253 N.am      20 UNK        -0.5000 
    110 CA        -5.7188  -20.1343  -55.8032 C.3       20 UNK         0.1400 
    111 CB        -5.5945  -21.0125  -57.0662 C.3       20 UNK        -0.1800 
    112 C         -4.4838  -20.2431  -54.8799 C.2       20 UNK         0.5000 
    113 O         -3.3743  -20.4627  -55.3706 O.2       20 UNK        -0.5000 
    114 N         -4.6794  -20.0475  -53.5656 N.am      21 UNK        -0.5000 
    115 CA        -3.6441  -20.1451  -52.5295 C.3       21 UNK         0.1400 
    116 CB        -4.2935  -19.9611  -51.1514 C.3       21 UNK        -0.1800 
    117 C         -2.4710  -19.1616  -52.7078 C.2       21 UNK         0.5000 
    118 O         -1.3533  -19.4700  -52.2975 O.2       21 UNK        -0.5000 
    119 N         -2.7425  -18.0143  -53.3423 N.am      22 UNK        -0.5000 
    120 CA        -1.7428  -17.0132  -53.7465 C.3       22 UNK         0.1400 
    121 C         -0.7492  -17.4939  -54.8515 C.2       22 UNK         0.5000 
    122 N         -1.0102  -18.5881  -55.5598 N.am      22 UNK        -0.7600 
    123 O          0.2847  -16.8683  -55.0667 O.2       22 UNK        -0.5000 
    124 C124       -2.4381  -15.6834  -54.1466 C.3       23 UNK        -0.0398 
    125 S125       -1.4605  -14.1947  -53.7401 S.3       23 UNK        -0.2404 
    126 C126       -2.4209  -13.4687  -52.3731 C.3       23 UNK        -0.0205 
    127 H127        3.7591  -16.3234  -52.8756 H         1 UNK         0.0600 
    128 H128        2.7461  -17.6853  -52.3899 H         1 UNK         0.0600 
    129 H129        4.4597  -17.6605  -51.9579 H         1 UNK         0.0600 
    130 H130        3.4130  -14.5202  -51.6137 H         1 UNK         0.3000 
    131 H131        2.0820  -14.7192  -49.0499 H         1 UNK         0.0600 
    132 H132        1.5167  -13.0245  -50.8836 H         1 UNK         0.0800 
    133 H133        2.9782  -12.1830  -50.4979 H         1 UNK         0.0800 
    134 H134       -0.4235  -12.5765  -47.2697 H         1 UNK         0.0800 
    135 H135        0.7748  -13.8238  -47.4318 H         1 UNK         0.0800 
    136 H136       -0.7552  -12.3952  -50.5368 H         1 UNK         0.1150 
    137 H137       -3.2471  -15.8016  -51.2145 H         1 UNK         0.1150 
    138 H138       -1.0920  -15.4246  -47.5295 H         1 UNK         0.1150 
    139 H139       -3.1674  -17.6827  -49.7103 H         1 UNK         0.0800 
    140 H140       -3.8015  -16.8046  -48.3435 H         1 UNK         0.0800 
    141 H141        0.1952  -18.3529  -48.9357 H         1 UNK         0.0800 
    142 H142       -1.1355  -18.9566  -49.8529 H         1 UNK         0.0800 
    143 H143        0.5328  -20.6998  -48.9383 H         1 UNK         0.0600 
    144 H144       -0.2022  -19.5568  -46.4639 H         1 UNK         0.3000 
    145 H145        0.1344  -22.2104  -44.2405 H         1 UNK         0.0600 
    146 H146        1.9665  -20.8601  -43.2057 H         1 UNK         0.0600 
    147 H147        2.5492  -21.8117  -44.5622 H         1 UNK         0.0600 
    148 H148        2.2784  -20.0880  -44.7635 H         1 UNK         0.0600 
    149 H149       -0.0001  -19.4843  -43.6594 H         1 UNK         0.3000 
    150 H150       -2.4247  -18.1954  -44.5391 H         1 UNK         0.0600 
    151 H151       -4.5079  -19.4621  -44.5076 H         1 UNK         0.0600 
    152 H152       -4.5141  -18.3247  -43.1709 H         1 UNK         0.0600 
    153 H153       -4.2067  -20.0363  -42.8751 H         1 UNK         0.0600 
    154 H154       -1.5161  -17.4813  -42.6456 H         1 UNK         0.3000 
    155 H155       -1.8128  -18.1642  -39.4664 H         1 UNK         0.0600 
    156 H156        0.8648  -19.3415  -40.3712 H         1 UNK         0.0600 
    157 H157       -0.2750  -20.0751  -39.2515 H         1 UNK         0.0600 
    158 H158        0.5616  -18.6001  -38.8013 H         1 UNK         0.0600 
    159 H159        0.2380  -17.0159  -41.3244 H         1 UNK         0.3000 
    160 H160       -0.4307  -13.7270  -39.9694 H         1 UNK         0.0600 
    161 H161        1.9869  -15.5927  -39.7933 H         1 UNK         0.0600 
    162 H162        1.1838  -14.8166  -38.4341 H         1 UNK         0.0600 
    163 H163        2.0162  -13.8375  -39.6317 H         1 UNK         0.0600 
    164 H164        1.3767  -14.6626  -42.0054 H         1 UNK         0.3000 
    165 H165       -0.6777  -13.4155  -44.6927 H         1 UNK         0.0600 
    166 H166        1.4366  -12.1897  -45.0828 H         1 UNK         0.0600 
    167 H167        0.5928  -11.5071  -43.6997 H         1 UNK         0.0600 
    168 H168        1.9871  -12.5524  -43.4492 H         1 UNK         0.0600 
    169 H169        1.8800  -14.6811  -44.7037 H         1 UNK         0.3000 
    170 H170        0.6661  -18.0141  -45.2140 H         1 UNK         0.0600 
    171 H171        0.7771  -16.8293  -47.4096 H         1 UNK         0.0600 
    172 H172        2.2456  -16.0415  -46.9219 H         1 UNK         0.0600 
    173 H173        2.2151  -17.7938  -47.1073 H         1 UNK         0.0600 
    174 H174        3.2646  -16.7873  -44.8089 H         1 UNK         0.3000 
    175 H175        3.4193  -17.3034  -41.3206 H         1 UNK         0.0600 
    176 H176        4.7362  -19.0508  -43.4709 H         1 UNK         0.0600 
    177 H177        3.8443  -19.6346  -42.0704 H         1 UNK         0.0600 
    178 H178        5.3592  -18.7782  -41.8429 H         1 UNK         0.0600 
    179 H179        5.4013  -16.6525  -43.2969 H         1 UNK         0.3000 
    180 H180        4.7573  -13.1302  -43.3571 H         1 UNK         0.0600 
    181 H181        7.0875  -14.8228  -42.3018 H         1 UNK         0.0600 
    182 H182        6.2235  -13.5951  -41.3839 H         1 UNK         0.0600 
    183 H183        7.1660  -13.1300  -42.7907 H         1 UNK         0.0600 
    184 H184        6.6718  -14.6590  -44.7670 H         1 UNK         0.3000 
    185 H185        6.3128  -14.5712  -47.2259 H         1 UNK         0.0600 
    186 H186        5.0541  -17.2947  -46.5360 H         1 UNK         0.0600 
    187 H187        6.3203  -17.0323  -47.7322 H         1 UNK         0.0600 
    188 H188        6.6510  -16.7504  -46.0334 H         1 UNK         0.0600 
    189 H189        4.0089  -15.9888  -48.3082 H         1 UNK         0.3000 
    190 H190       -2.6189  -20.6522  -47.2216 H         1 UNK         0.3000 
    191 H191       -3.9861  -22.2367  -49.2082 H         1 UNK         0.0600 
    192 H192       -5.8438  -22.1830  -47.5535 H         1 UNK         0.0600 
    193 H193       -5.1804  -20.5750  -47.8026 H         1 UNK         0.0600 
    194 H194       -4.7742  -21.4811  -46.3443 H         1 UNK         0.0600 
    195 H195       -2.2778  -22.9275  -46.1760 H         1 UNK         0.3000 
    196 H196       -3.0552  -25.6688  -45.9317 H         1 UNK         0.0600 
    197 H197       -1.1993  -25.8302  -44.3431 H         1 UNK         0.0600 
    198 H198       -2.0225  -24.2987  -44.0830 H         1 UNK         0.0600 
    199 H199       -0.4800  -24.3445  -44.9378 H         1 UNK         0.0600 
    200 H200       -0.2165  -24.1045  -47.5062 H         1 UNK         0.3000 
    201 H201        0.9911  -26.4896  -48.4740 H         1 UNK         0.0600 
    202 H202        2.2253  -24.3629  -48.2342 H         1 UNK         0.0600 
    203 H203        1.2105  -23.5929  -49.4515 H         1 UNK         0.0600 
    204 H204        2.2979  -24.9012  -49.9052 H         1 UNK         0.0600 
    205 H205       -1.3332  -24.2168  -50.0019 H         1 UNK         0.3000 
    206 H206       -1.4801  -25.6195  -52.5140 H         1 UNK         0.0600 
    207 H207       -2.0089  -23.2239  -52.3172 H         1 UNK         0.0600 
    208 H208       -3.4371  -24.0820  -52.8788 H         1 UNK         0.0600 
    209 H209       -3.3293  -23.5627  -51.2016 H         1 UNK         0.0600 
    210 H210       -2.9178  -26.1953  -49.4386 H         1 UNK         0.3000 
    211 H211       -4.2816  -27.6519  -48.5511 H         1 UNK         0.0600 
    212 H212       -4.3117  -29.2105  -51.1873 H         1 UNK         0.0600 
    213 H213       -4.7600  -29.8167  -49.6005 H         1 UNK         0.0600 
    214 H214       -3.0907  -29.3816  -49.9258 H         1 UNK         0.0600 
    215 H215       -5.2639  -25.2790  -50.0145 H         1 UNK         0.3000 
    216 H216       -8.0266  -25.4678  -49.5532 H         1 UNK         0.0600 
    217 H217       -8.8179  -25.0936  -51.9376 H         1 UNK         0.0600 
    218 H218       -8.1422  -26.6987  -51.7491 H         1 UNK         0.0600 
    219 H219       -7.1949  -25.4313  -52.5256 H         1 UNK         0.0600 
    220 H220       -8.9613  -23.3301  -49.7564 H         1 UNK         0.3000 
    221 H221       -7.0853  -21.1123  -49.6574 H         1 UNK         0.0600 
    222 H222      -10.1493  -21.1794  -49.6421 H         1 UNK         0.0600 
    223 H223       -9.1053  -21.1721  -48.2196 H         1 UNK         0.0600 
    224 H224       -9.1513  -19.7753  -49.2831 H         1 UNK         0.0600 
    225 H225       -9.0689  -22.6064  -52.1231 H         1 UNK         0.3000 
    226 H226       -9.2258  -20.4602  -54.0042 H         1 UNK         0.0600 
    227 H227       -9.3959  -23.4992  -54.3813 H         1 UNK         0.0600 
    228 H228      -10.7493  -22.4089  -54.0812 H         1 UNK         0.0600 
    229 H229       -9.8479  -22.2982  -55.5850 H         1 UNK         0.0600 
    230 H230       -7.6158  -19.5695  -55.0853 H         1 UNK         0.3000 
    231 H231       -5.7448  -19.0953  -56.1344 H         1 UNK         0.0600 
    232 H232       -5.4811  -22.0679  -56.8171 H         1 UNK         0.0600 
    233 H233       -4.7269  -20.7240  -57.6608 H         1 UNK         0.0600 
    234 H234       -6.4710  -20.9106  -57.7060 H         1 UNK         0.0600 
    235 H235       -5.6226  -19.8777  -53.2410 H         1 UNK         0.3000 
    236 H236       -3.2277  -21.1520  -52.5769 H         1 UNK         0.0600 
    237 H237       -5.0057  -20.7591  -50.9488 H         1 UNK         0.0600 
    238 H238       -3.5476  -19.9880  -50.3582 H         1 UNK         0.0600 
    239 H239       -4.8226  -19.0105  -51.0768 H         1 UNK         0.0600 
    240 H240       -3.6878  -17.8622  -53.6596 H         1 UNK         0.3000 
    241 H241       -1.1359  -16.8241  -52.8585 H         1 UNK         0.0600 
    242 H242       -0.3532  -18.8835  -56.2640 H         1 UNK         0.3800 
    243 H243       -1.8413  -19.1448  -55.3920 H         1 UNK         0.3800 
    244 H244       -2.6706  -15.6672  -55.2131 H         1 UNK         0.0800 
    245 H245       -3.4052  -15.5978  -53.6508 H         1 UNK         0.0800 
    246 H246       -2.2533  -12.3906  -52.3754 H         1 UNK         0.0800 
    247 H247       -3.4909  -13.5984  -52.5404 H         1 UNK         0.0800 
@<TRIPOS>BOND
     1    1    2 1    
     2    1  127 1    
     3    1  128 1    
     4    1  129 1    
     5    2    3 2    
     6    2    4 am   BACKBONE|DICT|INTERRES
     7    4    5 1    
     8    4  130 1    
     9    5    6 1    
    10    5   65 1    
    11    5  131 1    
    12    6    7 1    
    13    6  132 1    
    14    6  133 1    
    15    7    8 1    
    16    8    9 1    
    17    8  134 1    
    18    8  135 1    
    19    9   10 ar   
    20    9   14 ar   
    21   10   11 ar   
    22   10  136 1    
    23   11   12 ar   
    24   11  126 1    
    25   12   13 ar   
    26   12  137 1    
    27   13   14 ar   
    28   13   15 1    
    29   14  138 1    
    30   15   16 1    
    31   15  139 1    
    32   15  140 1    
    33   16   17 1    
    34   17   18 1    
    35   17  141 1    
    36   17  142 1    
    37   18   19 1    
    38   18   67 1    
    39   18  143 1    
    40   19   20 am   BACKBONE|DICT|INTERRES
    41   19  144 1    
    42   20   21 2    
    43   20   22 1    
    44   22   23 1    
    45   22   24 1    
    46   22  145 1    
    47   23  146 1    
    48   23  147 1    
    49   23  148 1    
    50   24   25 am   BACKBONE|DICT|INTERRES
    51   24  149 1    
    52   25   26 2    
    53   25   27 1    
    54   27   28 1    
    55   27   29 1    
    56   27  150 1    
    57   28  151 1    
    58   28  152 1    
    59   28  153 1    
    60   29   30 am   BACKBONE|DICT|INTERRES
    61   29  154 1    
    62   30   31 2    
    63   30   32 1    
    64   32   33 1    
    65   32   34 1    
    66   32  155 1    
    67   33  156 1    
    68   33  157 1    
    69   33  158 1    
    70   34   35 am   BACKBONE|DICT|INTERRES
    71   34  159 1    
    72   35   36 2    
    73   35   37 1    
    74   37   38 1    
    75   37   39 1    
    76   37  160 1    
    77   38  161 1    
    78   38  162 1    
    79   38  163 1    
    80   39   40 am   BACKBONE|DICT|INTERRES
    81   39  164 1    
    82   40   41 2    
    83   40   42 1    
    84   42   43 1    
    85   42   44 1    
    86   42  165 1    
    87   43  166 1    
    88   43  167 1    
    89   43  168 1    
    90   44   45 am   BACKBONE|DICT|INTERRES
    91   44  169 1    
    92   45   46 2    
    93   45   47 1    
    94   47   48 1    
    95   47   49 1    
    96   47  170 1    
    97   48  171 1    
    98   48  172 1    
    99   48  173 1    
   100   49   50 am   BACKBONE|DICT|INTERRES
   101   49  174 1    
   102   50   51 2    
   103   50   52 1    
   104   52   53 1    
   105   52   54 1    
   106   52  175 1    
   107   53  176 1    
   108   53  177 1    
   109   53  178 1    
   110   54   55 am   BACKBONE|DICT|INTERRES
   111   54  179 1    
   112   55   56 2    
   113   55   57 1    
   114   57   58 1    
   115   57   59 1    
   116   57  180 1    
   117   58  181 1    
   118   58  182 1    
   119   58  183 1    
   120   59   60 am   BACKBONE|DICT|INTERRES
   121   59  184 1    
   122   60   61 2    
   123   60   62 1    
   124   62   63 1    
   125   62   64 1    
   126   62  185 1    
   127   63  186 1    
   128   63  187 1    
   129   63  188 1    
   130   64   65 am   BACKBONE|DICT|INTERRES
   131   64  189 1    
   132   65   66 2    
   133   67   68 2    
   134   67   69 am   BACKBONE|DICT|INTERRES
   135   69   70 1    
   136   69  190 1    
   137   70   71 1    
   138   70   72 1    
   139   70  191 1    
   140   71  192 1    
   141   71  193 1    
   142   71  194 1    
   143   72   73 2    
   144   72   74 am   BACKBONE|DICT|INTERRES
   145   74   75 1    
   146   74  195 1    
   147   75   76 1    
   148   75   77 1    
   149   75  196 1    
   150   76  197 1    
   151   76  198 1    
   152   76  199 1    
   153   77   78 2    
   154   77   79 am   BACKBONE|DICT|INTERRES
   155   79   80 1    
   156   79  200 1    
   157   80   81 1    
   158   80   82 1    
   159   80  201 1    
   160   81  202 1    
   161   81  203 1    
   162   81  204 1    
   163   82   83 2    
   164   82   84 am   BACKBONE|DICT|INTERRES
   165   84   85 1    
   166   84  205 1    
   167   85   86 1    
   168   85   87 1    
   169   85  206 1    
   170   86  207 1    
   171   86  208 1    
   172   86  209 1    
   173   87   88 2    
   174   87   89 am   BACKBONE|DICT|INTERRES
   175   89   90 1    
   176   89  210 1    
   177   90   91 1    
   178   90   92 1    
   179   90  211 1    
   180   91  212 1    
   181   91  213 1    
   182   91  214 1    
   183   92   93 2    
   184   92   94 am   BACKBONE|DICT|INTERRES
   185   94   95 1    
   186   94  215 1    
   187   95   96 1    
   188   95   97 1    
   189   95  216 1    
   190   96  217 1    
   191   96  218 1    
   192   96  219 1    
   193   97   98 2    
   194   97   99 am   BACKBONE|DICT|INTERRES
   195   99  100 1    
   196   99  220 1    
   197  100  101 1    
   198  100  102 1    
   199  100  221 1    
   200  101  222 1    
   201  101  223 1    
   202  101  224 1    
   203  102  103 2    
   204  102  104 am   BACKBONE|DICT|INTERRES
   205  104  105 1    
   206  104  225 1    
   207  105  106 1    
   208  105  107 1    
   209  105  226 1    
   210  106  227 1    
   211  106  228 1    
   212  106  229 1    
   213  107  108 2    
   214  107  109 am   BACKBONE|DICT|INTERRES
   215  109  110 1    
   216  109  230 1    
   217  110  111 1    
   218  110  112 1    
   219  110  231 1    
   220  111  232 1    
   221  111  233 1    
   222  111  234 1    
   223  112  113 2    
   224  112  114 am   BACKBONE|DICT|INTERRES
   225  114  115 1    
   226  114  235 1    
   227  115  116 1    
   228  115  117 1    
   229  115  236 1    
   230  116  237 1    
   231  116  238 1    
   232  116  239 1    
   233  117  118 2    
   234  117  119 am   BACKBONE|DICT|INTERRES
   235  119  120 1    
   236  119  240 1    
   237  120  121 1    
   238  120  124 1    
   239  120  241 1    
   240  121  122 am   BACKBONE|DICT|INTERRES
   241  121  123 2    
   242  122  242 1    
   243  122  243 1    
   244  124  125 1    
   245  124  244 1    
   246  124  245 1    
   247  125  126 1    
   248  126  246 1    
   249  126  247 1    
@<TRIPOS>SUBSTRUCTURE
     1 UNK         1 GROUP             0       ****    0 ROOT    
