@<TRIPOS>MOLECULE
3R540
247   249    1
SMALL
USER_CHARGES


@<TRIPOS>ATOM
      1 CA         -6.1233   -9.9228  -44.7218 C.3       0 UNK        -0.1800 
      2 C          -5.0539  -10.8356  -45.3041 C.2       0 UNK         0.5000 
      3 O          -4.1956  -10.3744  -46.0578 O.2       0 UNK        -0.5000 
      4 N          -5.0918  -12.1279  -44.9544 N.am      1 UNK        -0.5000 
      5 CA         -4.1433  -13.1583  -45.3901 C.3       1 UNK         0.1400 
      6 C6         -4.8045  -14.5591  -45.3830 C.3       23 UNK        -0.0398 
      7 S7         -3.8600  -15.8069  -46.3201 S.3       23 UNK        -0.2404 
      8 C8         -4.4355  -15.5159  -48.0176 C.3       23 UNK        -0.0205 
      9 C9         -3.9772  -16.6383  -48.9333 C.ar      23 UNK        -0.0193 
     10 C10        -2.6935  -16.6229  -49.4848 C.ar      23 UNK        -0.1150 
     11 C11        -2.2762  -17.6525  -50.3311 C.ar      23 UNK        -0.0193 
     12 C12        -3.1459  -18.7129  -50.6002 C.ar      23 UNK        -0.1150 
     13 C13        -4.4337  -18.7466  -50.0590 C.ar      23 UNK        -0.0193 
     14 C14        -4.8439  -17.6928  -49.2320 C.ar      23 UNK        -0.1150 
     15 C15        -5.3374  -19.9233  -50.4343 C.3       23 UNK        -0.0205 
     16 S16        -6.9335  -20.0542  -49.5514 S.3       23 UNK        -0.2404 
     17 C17        -6.4919  -20.3635  -47.8041 C.3       23 UNK        -0.0398 
     18 CA         -5.6129  -21.6186  -47.5771 C.3       11 UNK         0.1400 
     19 N          -4.1859  -21.3287  -47.7649 N.am      11 UNK        -0.5000 
     20 C          -3.2058  -22.2402  -47.7369 C.2       10 UNK         0.5000 
     21 O          -3.4044  -23.4470  -47.6164 O.2       10 UNK        -0.5000 
     22 CA         -1.7589  -21.7347  -47.8238 C.3       10 UNK         0.1400 
     23 CB         -1.2631  -21.8255  -49.2696 C.3       10 UNK        -0.1800 
     24 N          -1.5485  -20.3753  -47.3224 N.am      10 UNK        -0.5000 
     25 C          -1.8330  -19.9300  -46.0919 C.2       9 UNK         0.5000 
     26 O          -2.4320  -20.6022  -45.2486 O.2       9 UNK        -0.5000 
     27 CA         -1.3264  -18.5136  -45.7515 C.3       9 UNK         0.1400 
     28 CB         -1.8693  -18.0120  -44.4021 C.3       9 UNK        -0.1800 
     29 N           0.1368  -18.4665  -45.7207 N.am      9 UNK        -0.5000 
     30 C           0.9445  -18.5044  -46.7913 C.2       8 UNK         0.5000 
     31 O           0.5237  -18.5129  -47.9491 O.2       8 UNK        -0.5000 
     32 CA          2.4621  -18.5670  -46.5330 C.3       8 UNK         0.1400 
     33 CB          3.2599  -17.7690  -47.5795 C.3       8 UNK        -0.1800 
     34 N           2.7985  -18.0789  -45.1952 N.am      8 UNK        -0.5000 
     35 C           3.2067  -18.8393  -44.1699 C.2       7 UNK         0.5000 
     36 O           3.3664  -20.0578  -44.2440 O.2       7 UNK        -0.5000 
     37 CA          3.4695  -18.1287  -42.8275 C.3       7 UNK         0.1400 
     38 CB          4.9695  -17.8493  -42.6566 C.3       7 UNK        -0.1800 
     39 N           2.7147  -16.8800  -42.6894 N.am      7 UNK        -0.5000 
     40 C           1.3964  -16.8286  -42.4445 C.2       6 UNK         0.5000 
     41 O           0.7174  -17.8378  -42.2544 O.2       6 UNK        -0.5000 
     42 CA          0.7015  -15.4504  -42.4636 C.3       6 UNK         0.1400 
     43 CB         -0.3307  -15.2851  -41.3301 C.3       6 UNK        -0.1800 
     44 N           1.6241  -14.3139  -42.5338 N.am      6 UNK        -0.5000 
     45 C           2.4305  -13.8181  -41.5849 C.2       5 UNK         0.5000 
     46 O           2.4863  -14.2414  -40.4301 O.2       5 UNK        -0.5000 
     47 CA          3.3384  -12.6536  -42.0406 C.3       5 UNK         0.1400 
     48 CB          4.5262  -12.3957  -41.0896 C.3       5 UNK        -0.1800 
     49 N           3.7877  -12.8114  -43.4316 N.am      5 UNK        -0.5000 
     50 C           4.5556  -13.7986  -43.9191 C.2       4 UNK         0.5000 
     51 O           5.0565  -14.6764  -43.2179 O.2       4 UNK        -0.5000 
     52 CA          4.7285  -13.8398  -45.4539 C.3       4 UNK         0.1400 
     53 CB          5.3653  -15.1550  -45.9494 C.3       4 UNK        -0.1800 
     54 N           3.4730  -13.5724  -46.1680 N.am      4 UNK        -0.5000 
     55 C           2.3250  -14.2565  -46.0602 C.2       3 UNK         0.5000 
     56 O           2.1808  -15.2627  -45.3636 O.2       3 UNK        -0.5000 
     57 CA          1.1098  -13.6738  -46.8030 C.3       3 UNK         0.1400 
     58 CB          0.3962  -14.7550  -47.6320 C.3       3 UNK        -0.1800 
     59 N           0.1395  -13.0766  -45.8832 N.am      3 UNK        -0.5000 
     60 C           0.3701  -12.1205  -44.9706 C.2       2 UNK         0.5000 
     61 O           1.4761  -11.6097  -44.7879 O.2       2 UNK        -0.5000 
     62 CA         -0.8287  -11.6548  -44.1171 C.3       2 UNK         0.1400 
     63 CB         -0.7718  -10.1447  -43.8296 C.3       2 UNK        -0.1800 
     64 N          -2.1136  -11.9592  -44.7478 N.am      2 UNK        -0.5000 
     65 C          -2.8318  -13.0737  -44.5739 C.2       1 UNK         0.5000 
     66 O          -2.4953  -13.9835  -43.8158 O.2       1 UNK        -0.5000 
     67 C          -5.9011  -22.2432  -46.1936 C.2       11 UNK         0.5000 
     68 O          -6.7818  -23.0975  -46.0933 O.2       11 UNK        -0.5000 
     69 N          -5.1435  -21.8300  -45.1692 N.am      12 UNK        -0.5000 
     70 CA         -5.2120  -22.3814  -43.8193 C.3       12 UNK         0.1400 
     71 CB         -5.0427  -21.2416  -42.8017 C.3       12 UNK        -0.1800 
     72 C          -4.1345  -23.4568  -43.6093 C.2       12 UNK         0.5000 
     73 O          -4.4300  -24.5114  -43.0471 O.2       12 UNK        -0.5000 
     74 N          -2.9032  -23.1670  -44.0516 N.am      13 UNK        -0.5000 
     75 CA         -1.7165  -23.9767  -43.7748 C.3       13 UNK         0.1400 
     76 CB         -0.4636  -23.1188  -44.0136 C.3       13 UNK        -0.1800 
     77 C          -1.6315  -25.2891  -44.5769 C.2       13 UNK         0.5000 
     78 O          -1.0058  -26.2361  -44.0981 O.2       13 UNK        -0.5000 
     79 N          -2.2257  -25.3254  -45.7764 N.am      14 UNK        -0.5000 
     80 CA         -2.0971  -26.4310  -46.7296 C.3       14 UNK         0.1400 
     81 CB         -0.9730  -26.0907  -47.7264 C.3       14 UNK        -0.1800 
     82 C          -3.4162  -26.7449  -47.4584 C.2       14 UNK         0.5000 
     83 O          -3.3851  -27.4286  -48.4815 O.2       14 UNK        -0.5000 
     84 N          -4.5469  -26.2158  -46.9646 N.am      15 UNK        -0.5000 
     85 CA         -5.8938  -26.3306  -47.5466 C.3       15 UNK         0.1400 
     86 CB         -6.4297  -27.7670  -47.3739 C.3       15 UNK        -0.1800 
     87 C          -5.9810  -25.8336  -49.0109 C.2       15 UNK         0.5000 
     88 O          -6.7477  -26.3781  -49.8064 O.2       15 UNK        -0.5000 
     89 N          -5.1645  -24.8199  -49.3337 N.am      16 UNK        -0.5000 
     90 CA         -4.9646  -24.1784  -50.6371 C.3       16 UNK         0.1400 
     91 CB         -6.2816  -23.6053  -51.1994 C.3       16 UNK        -0.1800 
     92 C          -4.2150  -25.0422  -51.6730 C.2       16 UNK         0.5000 
     93 O          -4.0872  -24.6133  -52.8200 O.2       16 UNK        -0.5000 
     94 N          -3.6839  -26.2088  -51.2745 N.am      17 UNK        -0.5000 
     95 CA         -2.9298  -27.1044  -52.1600 C.3       17 UNK         0.1400 
     96 CB         -2.7903  -28.4828  -51.4975 C.3       17 UNK        -0.1800 
     97 C          -1.5425  -26.5529  -52.5452 C.2       17 UNK         0.5000 
     98 O          -1.0231  -26.9052  -53.6044 O.2       17 UNK        -0.5000 
     99 N          -0.9789  -25.6939  -51.6861 N.am      18 UNK        -0.5000 
    100 CA         0.3299  -25.0583  -51.8518 C.3       18 UNK         0.1400 
    101 CB         1.1503  -25.2879  -50.5695 C.3       18 UNK        -0.1800 
    102 C          0.2054  -23.5564  -52.1810 C.2       18 UNK         0.5000 
    103 O          1.1583  -22.8112  -51.9512 O.2       18 UNK        -0.5000 
    104 N         -0.9638  -23.1235  -52.6819 N.am      19 UNK        -0.5000 
    105 CA        -1.2739  -21.7235  -52.9918 C.3       19 UNK         0.1400 
    106 CB        -2.7544  -21.5979  -53.3834 C.3       19 UNK        -0.1800 
    107 C         -0.3626  -21.1023  -54.0647 C.2       19 UNK         0.5000 
    108 O          0.0357  -19.9471  -53.9129 O.2       19 UNK        -0.5000 
    109 N         -0.0319  -21.8880  -55.1017 N.am      20 UNK        -0.5000 
    110 CA         0.8931  -21.5679  -56.1947 C.3       20 UNK         0.1400 
    111 CB         2.3493  -21.6710  -55.6886 C.3       20 UNK        -0.1800 
    112 C          0.5598  -20.2193  -56.8700 C.2       20 UNK         0.5000 
    113 O         -0.4631  -20.1233  -57.5507 O.2       20 UNK        -0.5000 
    114 N          1.3943  -19.1970  -56.6339 N.am      21 UNK        -0.5000 
    115 CA         1.2364  -17.8239  -57.1199 C.3       21 UNK         0.1400 
    116 CB         2.4734  -17.0090  -56.7119 C.3       21 UNK        -0.1800 
    117 C         -0.0523  -17.1208  -56.6445 C.2       21 UNK         0.5000 
    118 O         -0.5167  -16.2046  -57.3248 O.2       21 UNK        -0.5000 
    119 N         -0.6199  -17.5648  -55.5148 N.am      22 UNK        -0.5000 
    120 CA        -1.9386  -17.1315  -55.0262 C.3       22 UNK         0.1400 
    121 C         -3.1377  -17.7393  -55.8166 C.2       22 UNK         0.5000 
    122 N         -2.9462  -18.7151  -56.6982 N.am      22 UNK        -0.7600 
    123 O         -4.2723  -17.3086  -55.6302 O.2       22 UNK        -0.5000 
    124 C124       -2.1149  -17.3868  -53.5084 C.3       23 UNK        -0.0398 
    125 S125       -0.8729  -16.5536  -52.4618 S.3       23 UNK        -0.2404 
    126 C126       -0.8968  -17.6099  -50.9747 C.3       23 UNK        -0.0205 
    127 H127       -6.6999   -9.4618  -45.5237 H         1 UNK         0.0600 
    128 H128       -5.6600   -9.1301  -44.1343 H         1 UNK         0.0600 
    129 H129       -6.8132  -10.4665  -44.0759 H         1 UNK         0.0600 
    130 H130       -5.8012  -12.4366  -44.3045 H         1 UNK         0.3000 
    131 H131       -3.8783  -12.9406  -46.4271 H         1 UNK         0.0600 
    132 H132       -4.9425  -14.9193  -44.3621 H         1 UNK         0.0800 
    133 H133       -5.8057  -14.5031  -45.8125 H         1 UNK         0.0800 
    134 H134       -4.0518  -14.5602  -48.3773 H         1 UNK         0.0800 
    135 H135       -5.5239  -15.4401  -48.0317 H         1 UNK         0.0800 
    136 H136       -2.0241  -15.8034  -49.2673 H         1 UNK         0.1150 
    137 H137       -2.8271  -19.5067  -51.2587 H         1 UNK         0.1150 
    138 H138       -5.8403  -17.6741  -48.8175 H         1 UNK         0.1150 
    139 H139       -5.5630  -19.8381  -51.4981 H         1 UNK         0.0800 
    140 H140       -4.7912  -20.8597  -50.3256 H         1 UNK         0.0800 
    141 H141       -7.4488  -20.4624  -47.2871 H         1 UNK         0.0800 
    142 H142       -6.0255  -19.4788  -47.3698 H         1 UNK         0.0800 
    143 H143       -5.8971  -22.3713  -48.3126 H         1 UNK         0.0600 
    144 H144       -3.9299  -20.3577  -47.8692 H         1 UNK         0.3000 
    145 H145       -1.1485  -22.4044  -47.2169 H         1 UNK         0.0600 
    146 H146       -1.3648  -22.8406  -49.6549 H         1 UNK         0.0600 
    147 H147       -0.2113  -21.5497  -49.3507 H         1 UNK         0.0600 
    148 H148       -1.8362  -21.1677  -49.9196 H         1 UNK         0.0600 
    149 H149       -1.0013  -19.7553  -47.9128 H         1 UNK         0.3000 
    150 H150       -1.6819  -17.8400  -46.5337 H         1 UNK         0.0600 
    151 H151       -2.9596  -18.0359  -44.3855 H         1 UNK         0.0600 
    152 H152       -1.5680  -16.9817  -44.2138 H         1 UNK         0.0600 
    153 H153       -1.5183  -18.6253  -43.5716 H         1 UNK         0.0600 
    154 H154        0.5630  -18.4864  -44.8052 H         1 UNK         0.3000 
    155 H155        2.7459  -19.6159  -46.6358 H         1 UNK         0.0600 
    156 H156        2.9866  -16.7149  -47.5797 H         1 UNK         0.0600 
    157 H157        3.0843  -18.1524  -48.5853 H         1 UNK         0.0600 
    158 H158        4.3314  -17.8379  -47.3926 H         1 UNK         0.0600 
    159 H159        2.6573  -17.0817  -45.0487 H         1 UNK         0.3000 
    160 H160        3.1626  -18.8052  -42.0270 H         1 UNK         0.0600 
    161 H161        5.3679  -17.2657  -43.4866 H         1 UNK         0.0600 
    162 H162        5.5347  -18.7811  -42.6161 H         1 UNK         0.0600 
    163 H163        5.1709  -17.3051  -41.7336 H         1 UNK         0.0600 
    164 H164        3.2222  -16.0199  -42.8535 H         1 UNK         0.3000 
    165 H165        0.1470  -15.4204  -43.4026 H         1 UNK         0.0600 
    166 H166       -0.8089  -14.3064  -41.3720 H         1 UNK         0.0600 
    167 H167        0.1212  -15.4011  -40.3451 H         1 UNK         0.0600 
    168 H168       -1.1213  -16.0316  -41.4146 H         1 UNK         0.0600 
    169 H169        1.7390  -13.9346  -43.4633 H         1 UNK         0.3000 
    170 H170        2.7105  -11.7614  -42.0268 H         1 UNK         0.0600 
    171 H171        4.1748  -12.1251  -40.0934 H         1 UNK         0.0600 
    172 H172        5.1617  -13.2749  -40.9812 H         1 UNK         0.0600 
    173 H173        5.1468  -11.5745  -41.4479 H         1 UNK         0.0600 
    174 H174        3.3520  -12.1771  -44.0938 H         1 UNK         0.3000 
    175 H175        5.4100  -13.0264  -45.7067 H         1 UNK         0.0600 
    176 H176        4.7753  -16.0241  -45.6607 H         1 UNK         0.0600 
    177 H177        5.4647  -15.1627  -47.0347 H         1 UNK         0.0600 
    178 H178        6.3634  -15.2873  -45.5306 H         1 UNK         0.0600 
    179 H179        3.4717  -12.7334  -46.7316 H         1 UNK         0.3000 
    180 H180        1.4520  -12.8922  -47.4839 H         1 UNK         0.0600 
    181 H181       -0.0367  -15.5313  -46.9991 H         1 UNK         0.0600 
    182 H182        1.0852  -15.2421  -48.3230 H         1 UNK         0.0600 
    183 H183       -0.4080  -14.3241  -48.2280 H         1 UNK         0.0600 
    184 H184       -0.7967  -13.4479  -45.9320 H         1 UNK         0.3000 
    185 H185       -0.7594  -12.1792  -43.1617 H         1 UNK         0.0600 
    186 H186        0.1358   -9.8790  -43.2859 H         1 UNK         0.0600 
    187 H187       -0.7883   -9.5601  -44.7503 H         1 UNK         0.0600 
    188 H188       -1.6166   -9.8287  -43.2173 H         1 UNK         0.0600 
    189 H189       -2.4947  -11.2497  -45.3663 H         1 UNK         0.3000 
    190 H190       -4.3959  -21.1677  -45.3441 H         1 UNK         0.3000 
    191 H191       -6.1872  -22.8416  -43.6458 H         1 UNK         0.0600 
    192 H192       -5.0840  -21.6209  -41.7799 H         1 UNK         0.0600 
    193 H193       -5.8365  -20.5020  -42.9062 H         1 UNK         0.0600 
    194 H194       -4.0890  -20.7260  -42.9232 H         1 UNK         0.0600 
    195 H195       -2.7403  -22.2622  -44.4868 H         1 UNK         0.3000 
    196 H196       -1.7353  -24.2473  -42.7168 H         1 UNK         0.0600 
    197 H197       -0.3786  -22.8076  -45.0541 H         1 UNK         0.0600 
    198 H198       -0.4772  -22.2195  -43.3972 H         1 UNK         0.0600 
    199 H199        0.4429  -23.6708  -43.7621 H         1 UNK         0.0600 
    200 H200       -2.7090  -24.5031  -46.1232 H         1 UNK         0.3000 
    201 H201       -1.8263  -27.3494  -46.2055 H         1 UNK         0.0600 
    202 H202       -1.2160  -25.1989  -48.3046 H         1 UNK         0.0600 
    203 H203       -0.8024  -26.9062  -48.4305 H         1 UNK         0.0600 
    204 H204       -0.0295  -25.9091  -47.2118 H         1 UNK         0.0600 
    205 H205       -4.4776  -25.6611  -46.1237 H         1 UNK         0.3000 
    206 H206       -6.5366  -25.6687  -46.9656 H         1 UNK         0.0600 
    207 H207       -6.3730  -28.0860  -46.3332 H         1 UNK         0.0600 
    208 H208       -7.4755  -27.8348  -47.6754 H         1 UNK         0.0600 
    209 H209       -5.8685  -28.4830  -47.9752 H         1 UNK         0.0600 
    210 H210       -4.5550  -24.4695  -48.5972 H         1 UNK         0.3000 
    211 H211       -4.3065  -23.3318  -50.4402 H         1 UNK         0.0600 
    212 H212       -6.0888  -22.9445  -52.0454 H         1 UNK         0.0600 
    213 H213       -6.8164  -23.0223  -50.4509 H         1 UNK         0.0600 
    214 H214       -6.9496  -24.3923  -51.5498 H         1 UNK         0.0600 
    215 H215       -3.8076  -26.5166  -50.3156 H         1 UNK         0.3000 
    216 H216       -3.5027  -27.2305  -53.0812 H         1 UNK         0.0600 
    217 H217       -2.1626  -28.4399  -50.6068 H         1 UNK         0.0600 
    218 H218       -2.3345  -29.1990  -52.1823 H         1 UNK         0.0600 
    219 H219       -3.7614  -28.8832  -51.2057 H         1 UNK         0.0600 
    220 H220       -1.4913  -25.4605  -50.8488 H         1 UNK         0.3000 
    221 H221        0.8718  -25.5177  -52.6807 H         1 UNK         0.0600 
    222 H222        1.1877  -26.3452  -50.3063 H         1 UNK         0.0600 
    223 H223        0.7336  -24.7435  -49.7219 H         1 UNK         0.0600 
    224 H224        2.1801  -24.9521  -50.6976 H         1 UNK         0.0600 
    225 H225       -1.6963  -23.7990  -52.8519 H         1 UNK         0.3000 
    226 H226       -1.1147  -21.1419  -52.0838 H         1 UNK         0.0600 
    227 H227       -3.0031  -22.2443  -54.2258 H         1 UNK         0.0600 
    228 H228       -3.4051  -21.8678  -52.5517 H         1 UNK         0.0600 
    229 H229       -3.0072  -20.5777  -53.6725 H         1 UNK         0.0600 
    230 H230       -0.4416  -22.8102  -55.1355 H         1 UNK         0.3000 
    231 H231        0.7538  -22.3336  -56.9592 H         1 UNK         0.0600 
    232 H232        2.5507  -20.9838  -54.8659 H         1 UNK         0.0600 
    233 H233        3.0622  -21.4599  -56.4868 H         1 UNK         0.0600 
    234 H234        2.5621  -22.6778  -55.3288 H         1 UNK         0.0600 
    235 H235        2.1820  -19.3649  -56.0254 H         1 UNK         0.3000 
    236 H236        1.1981  -17.8652  -58.2103 H         1 UNK         0.0600 
    237 H237        3.3861  -17.4439  -57.1196 H         1 UNK         0.0600 
    238 H238        2.4084  -15.9858  -57.0844 H         1 UNK         0.0600 
    239 H239        2.5792  -16.9573  -55.6274 H         1 UNK         0.0600 
    240 H240       -0.1876  -18.3305  -55.0057 H         1 UNK         0.3000 
    241 H241       -2.0048  -16.0522  -55.1760 H         1 UNK         0.0600 
    242 H242       -2.0215  -19.0847  -56.8929 H         1 UNK         0.3800 
    243 H243       -3.7387  -19.0834  -57.1994 H         1 UNK         0.3800 
    244 H244       -3.0973  -17.0477  -53.1744 H         1 UNK         0.0800 
    245 H245       -2.0785  -18.4567  -53.3106 H         1 UNK         0.0800 
    246 H246       -0.5622  -18.6151  -51.2367 H         1 UNK         0.0800 
    247 H247       -0.1705  -17.2256  -50.2570 H         1 UNK         0.0800 
@<TRIPOS>BOND
     1    1    2 1    
     2    1  127 1    
     3    1  128 1    
     4    1  129 1    
     5    2    3 2    
     6    2    4 am   BACKBONE|DICT|INTERRES
     7    4    5 1    
     8    4  130 1    
     9    5    6 1    
    10    5   65 1    
    11    5  131 1    
    12    6    7 1    
    13    6  132 1    
    14    6  133 1    
    15    7    8 1    
    16    8    9 1    
    17    8  134 1    
    18    8  135 1    
    19    9   10 ar   
    20    9   14 ar   
    21   10   11 ar   
    22   10  136 1    
    23   11   12 ar   
    24   11  126 1    
    25   12   13 ar   
    26   12  137 1    
    27   13   14 ar   
    28   13   15 1    
    29   14  138 1    
    30   15   16 1    
    31   15  139 1    
    32   15  140 1    
    33   16   17 1    
    34   17   18 1    
    35   17  141 1    
    36   17  142 1    
    37   18   19 1    
    38   18   67 1    
    39   18  143 1    
    40   19   20 am   BACKBONE|DICT|INTERRES
    41   19  144 1    
    42   20   21 2    
    43   20   22 1    
    44   22   23 1    
    45   22   24 1    
    46   22  145 1    
    47   23  146 1    
    48   23  147 1    
    49   23  148 1    
    50   24   25 am   BACKBONE|DICT|INTERRES
    51   24  149 1    
    52   25   26 2    
    53   25   27 1    
    54   27   28 1    
    55   27   29 1    
    56   27  150 1    
    57   28  151 1    
    58   28  152 1    
    59   28  153 1    
    60   29   30 am   BACKBONE|DICT|INTERRES
    61   29  154 1    
    62   30   31 2    
    63   30   32 1    
    64   32   33 1    
    65   32   34 1    
    66   32  155 1    
    67   33  156 1    
    68   33  157 1    
    69   33  158 1    
    70   34   35 am   BACKBONE|DICT|INTERRES
    71   34  159 1    
    72   35   36 2    
    73   35   37 1    
    74   37   38 1    
    75   37   39 1    
    76   37  160 1    
    77   38  161 1    
    78   38  162 1    
    79   38  163 1    
    80   39   40 am   BACKBONE|DICT|INTERRES
    81   39  164 1    
    82   40   41 2    
    83   40   42 1    
    84   42   43 1    
    85   42   44 1    
    86   42  165 1    
    87   43  166 1    
    88   43  167 1    
    89   43  168 1    
    90   44   45 am   BACKBONE|DICT|INTERRES
    91   44  169 1    
    92   45   46 2    
    93   45   47 1    
    94   47   48 1    
    95   47   49 1    
    96   47  170 1    
    97   48  171 1    
    98   48  172 1    
    99   48  173 1    
   100   49   50 am   BACKBONE|DICT|INTERRES
   101   49  174 1    
   102   50   51 2    
   103   50   52 1    
   104   52   53 1    
   105   52   54 1    
   106   52  175 1    
   107   53  176 1    
   108   53  177 1    
   109   53  178 1    
   110   54   55 am   BACKBONE|DICT|INTERRES
   111   54  179 1    
   112   55   56 2    
   113   55   57 1    
   114   57   58 1    
   115   57   59 1    
   116   57  180 1    
   117   58  181 1    
   118   58  182 1    
   119   58  183 1    
   120   59   60 am   BACKBONE|DICT|INTERRES
   121   59  184 1    
   122   60   61 2    
   123   60   62 1    
   124   62   63 1    
   125   62   64 1    
   126   62  185 1    
   127   63  186 1    
   128   63  187 1    
   129   63  188 1    
   130   64   65 am   BACKBONE|DICT|INTERRES
   131   64  189 1    
   132   65   66 2    
   133   67   68 2    
   134   67   69 am   BACKBONE|DICT|INTERRES
   135   69   70 1    
   136   69  190 1    
   137   70   71 1    
   138   70   72 1    
   139   70  191 1    
   140   71  192 1    
   141   71  193 1    
   142   71  194 1    
   143   72   73 2    
   144   72   74 am   BACKBONE|DICT|INTERRES
   145   74   75 1    
   146   74  195 1    
   147   75   76 1    
   148   75   77 1    
   149   75  196 1    
   150   76  197 1    
   151   76  198 1    
   152   76  199 1    
   153   77   78 2    
   154   77   79 am   BACKBONE|DICT|INTERRES
   155   79   80 1    
   156   79  200 1    
   157   80   81 1    
   158   80   82 1    
   159   80  201 1    
   160   81  202 1    
   161   81  203 1    
   162   81  204 1    
   163   82   83 2    
   164   82   84 am   BACKBONE|DICT|INTERRES
   165   84   85 1    
   166   84  205 1    
   167   85   86 1    
   168   85   87 1    
   169   85  206 1    
   170   86  207 1    
   171   86  208 1    
   172   86  209 1    
   173   87   88 2    
   174   87   89 am   BACKBONE|DICT|INTERRES
   175   89   90 1    
   176   89  210 1    
   177   90   91 1    
   178   90   92 1    
   179   90  211 1    
   180   91  212 1    
   181   91  213 1    
   182   91  214 1    
   183   92   93 2    
   184   92   94 am   BACKBONE|DICT|INTERRES
   185   94   95 1    
   186   94  215 1    
   187   95   96 1    
   188   95   97 1    
   189   95  216 1    
   190   96  217 1    
   191   96  218 1    
   192   96  219 1    
   193   97   98 2    
   194   97   99 am   BACKBONE|DICT|INTERRES
   195   99  100 1    
   196   99  220 1    
   197  100  101 1    
   198  100  102 1    
   199  100  221 1    
   200  101  222 1    
   201  101  223 1    
   202  101  224 1    
   203  102  103 2    
   204  102  104 am   BACKBONE|DICT|INTERRES
   205  104  105 1    
   206  104  225 1    
   207  105  106 1    
   208  105  107 1    
   209  105  226 1    
   210  106  227 1    
   211  106  228 1    
   212  106  229 1    
   213  107  108 2    
   214  107  109 am   BACKBONE|DICT|INTERRES
   215  109  110 1    
   216  109  230 1    
   217  110  111 1    
   218  110  112 1    
   219  110  231 1    
   220  111  232 1    
   221  111  233 1    
   222  111  234 1    
   223  112  113 2    
   224  112  114 am   BACKBONE|DICT|INTERRES
   225  114  115 1    
   226  114  235 1    
   227  115  116 1    
   228  115  117 1    
   229  115  236 1    
   230  116  237 1    
   231  116  238 1    
   232  116  239 1    
   233  117  118 2    
   234  117  119 am   BACKBONE|DICT|INTERRES
   235  119  120 1    
   236  119  240 1    
   237  120  121 1    
   238  120  124 1    
   239  120  241 1    
   240  121  122 am   BACKBONE|DICT|INTERRES
   241  121  123 2    
   242  122  242 1    
   243  122  243 1    
   244  124  125 1    
   245  124  244 1    
   246  124  245 1    
   247  125  126 1    
   248  126  246 1    
   249  126  247 1    
@<TRIPOS>SUBSTRUCTURE
     1 UNK         1 GROUP             0       ****    0 ROOT    
