@<TRIPOS>MOLECULE
3R540
247   249    1
SMALL
USER_CHARGES


@<TRIPOS>ATOM
      1 CA          4.7144  -12.8636  -44.6085 C.3       0 UNK        -0.1800 
      2 C           3.9016  -12.7099  -45.8861 C.2       0 UNK         0.5000 
      3 O           4.2600  -11.9031  -46.7442 O.2       0 UNK        -0.5000 
      4 N           2.8141  -13.4810  -46.0064 N.am      1 UNK        -0.5000 
      5 CA          1.8450  -13.4714  -47.1092 C.3       1 UNK         0.1400 
      6 C6          2.4420  -13.8675  -48.4887 C.3       23 UNK        -0.0398 
      7 S7          3.2279  -15.5148  -48.4482 S.3       23 UNK        -0.2404 
      8 C8          2.9659  -16.1118  -50.1483 C.3       23 UNK        -0.0205 
      9 C9          2.2070  -17.4278  -50.1523 C.ar      23 UNK        -0.0193 
     10 C10         0.8160  -17.4461  -50.3045 C.ar      23 UNK        -0.1150 
     11 C11         0.1240  -18.6608  -50.3005 C.ar      23 UNK        -0.0193 
     12 C12         0.8315  -19.8555  -50.1642 C.ar      23 UNK        -0.1150 
     13 C13         2.2149  -19.8483  -49.9738 C.ar      23 UNK        -0.0193 
     14 C14         2.9002  -18.6311  -49.9846 C.ar      23 UNK        -0.1150 
     15 C15         2.9581  -21.1530  -49.7228 C.3       23 UNK        -0.0205 
     16 S16         3.2889  -21.4342  -47.9513 S.3       23 UNK        -0.2404 
     17 C17         1.6095  -21.5161  -47.2391 C.3       23 UNK        -0.0398 
     18 CA          1.1000  -22.9543  -47.0082 C.3       11 UNK         0.1400 
     19 N           1.9214  -23.6845  -46.0421 N.am      11 UNK        -0.5000 
     20 C           1.8249  -24.9944  -45.7825 C.2       10 UNK         0.5000 
     21 O           1.0548  -25.7553  -46.3688 O.2       10 UNK        -0.5000 
     22 CA          2.7094  -25.5269  -44.6398 C.3       10 UNK         0.1400 
     23 CB          4.1249  -25.8354  -45.1498 C.3       10 UNK        -0.1800 
     24 N           2.7912  -24.5911  -43.5146 N.am      10 UNK        -0.5000 
     25 C           1.7596  -24.2821  -42.7157 C.2       9 UNK         0.5000 
     26 O           0.6420  -24.7859  -42.8209 O.2       9 UNK        -0.5000 
     27 CA          2.0025  -23.1907  -41.6545 C.3       9 UNK         0.1400 
     28 CB          2.6324  -23.7963  -40.3914 C.3       9 UNK        -0.1800 
     29 N           2.8324  -22.0764  -42.1276 N.am      9 UNK        -0.5000 
     30 C           2.5259  -21.2858  -43.1651 C.2       8 UNK         0.5000 
     31 O           1.5245  -21.4501  -43.8631 O.2       8 UNK        -0.5000 
     32 CA          3.5353  -20.1684  -43.5025 C.3       8 UNK         0.1400 
     33 CB          4.7934  -20.7703  -44.1501 C.3       8 UNK        -0.1800 
     34 N           2.9983  -19.1475  -44.4081 N.am      8 UNK        -0.5000 
     35 C           1.9806  -18.3194  -44.1364 C.2       7 UNK         0.5000 
     36 O           1.3897  -18.2976  -43.0528 O.2       7 UNK        -0.5000 
     37 CA          1.5751  -17.3546  -45.2723 C.3       7 UNK         0.1400 
     38 CB          1.1100  -18.1089  -46.5284 C.3       7 UNK        -0.1800 
     39 N           0.4994  -16.4529  -44.8706 N.am      7 UNK        -0.5000 
     40 C           0.6371  -15.3483  -44.1330 C.2       6 UNK         0.5000 
     41 O           1.7282  -14.9252  -43.7453 O.2       6 UNK        -0.5000 
     42 CA         -0.6579  -14.5522  -43.8599 C.3       6 UNK         0.1400 
     43 CB         -0.4274  -13.3481  -42.9298 C.3       6 UNK        -0.1800 
     44 N          -1.2652  -14.0712  -45.1035 N.am      6 UNK        -0.5000 
     45 C          -1.9508  -14.8210  -45.9767 C.2       5 UNK         0.5000 
     46 O          -2.1858  -16.0183  -45.8007 O.2       5 UNK        -0.5000 
     47 CA         -2.4445  -14.1019  -47.2492 C.3       5 UNK         0.1400 
     48 CB         -3.1187  -15.0528  -48.2567 C.3       5 UNK        -0.1800 
     49 N          -3.3223  -12.9644  -46.9600 N.am      5 UNK        -0.5000 
     50 C          -4.4462  -12.9603  -46.2228 C.2       4 UNK         0.5000 
     51 O          -4.8993  -13.9582  -45.6609 O.2       4 UNK        -0.5000 
     52 CA         -5.2322  -11.6322  -46.1208 C.3       4 UNK         0.1400 
     53 CB         -5.7096  -11.3444  -44.6813 C.3       4 UNK        -0.1800 
     54 N          -4.5461  -10.4682  -46.6978 N.am      4 UNK        -0.5000 
     55 C          -3.4309   -9.8733  -46.2540 C.2       3 UNK         0.5000 
     56 O          -2.8241  -10.1991  -45.2321 O.2       3 UNK        -0.5000 
     57 CA         -2.8862   -8.7331  -47.1337 C.3       3 UNK         0.1400 
     58 CB         -3.0591   -7.3748  -46.4368 C.3       3 UNK        -0.1800 
     59 N          -1.4753   -8.9282  -47.4660 N.am      3 UNK        -0.5000 
     60 C          -0.9645   -9.9828  -48.1172 C.2       2 UNK         0.5000 
     61 O          -1.6523  -10.9056  -48.5635 O.2       2 UNK        -0.5000 
     62 CA          0.5672  -10.0062  -48.3288 C.3       2 UNK         0.1400 
     63 CB          1.3391   -8.9961  -47.4487 C.3       2 UNK        -0.1800 
     64 N           1.1477  -11.3454  -48.1768 N.am      2 UNK        -0.5000 
     65 C           1.0703  -12.1345  -47.0942 C.2       1 UNK         0.5000 
     66 O           0.4187  -11.8517  -46.0868 O.2       1 UNK        -0.5000 
     67 C          -0.3770  -22.9270  -46.5710 C.2       11 UNK         0.5000 
     68 O          -1.2564  -23.1826  -47.3908 O.2       11 UNK        -0.5000 
     69 N          -0.6188  -22.6527  -45.2820 N.am      12 UNK        -0.5000 
     70 CA         -1.9435  -22.6461  -44.6630 C.3       12 UNK         0.1400 
     71 CB         -1.8353  -22.0787  -43.2399 C.3       12 UNK        -0.1800 
     72 C          -2.6084  -24.0355  -44.6526 C.2       12 UNK         0.5000 
     73 O          -3.8190  -24.1242  -44.8564 O.2       12 UNK        -0.5000 
     74 N          -1.8082  -25.0910  -44.4418 N.am      13 UNK        -0.5000 
     75 CA         -2.2417  -26.4873  -44.5068 C.3       13 UNK         0.1400 
     76 CB         -1.1449  -27.3966  -43.9320 C.3       13 UNK        -0.1800 
     77 C          -2.6246  -26.9244  -45.9332 C.2       13 UNK         0.5000 
     78 O          -3.6225  -27.6266  -46.1018 O.2       13 UNK        -0.5000 
     79 N          -1.8404  -26.4921  -46.9314 N.am      14 UNK        -0.5000 
     80 CA         -2.1195  -26.7057  -48.3535 C.3       14 UNK         0.1400 
     81 CB         -0.8647  -26.3710  -49.1717 C.3       14 UNK        -0.1800 
     82 C          -3.3271  -25.8875  -48.8496 C.2       14 UNK         0.5000 
     83 O          -4.1098  -26.3868  -49.6590 O.2       14 UNK        -0.5000 
     84 N          -3.4593  -24.6550  -48.3413 N.am      15 UNK        -0.5000 
     85 CA         -4.5106  -23.6823  -48.6312 C.3       15 UNK         0.1400 
     86 CB         -5.8662  -24.1692  -48.0702 C.3       15 UNK        -0.1800 
     87 C          -4.5299  -23.3111  -50.1280 C.2       15 UNK         0.5000 
     88 O          -3.4756  -22.9982  -50.6865 O.2       15 UNK        -0.5000 
     89 N          -5.7084  -23.3739  -50.7618 N.am      16 UNK        -0.5000 
     90 CA         -5.9417  -23.0348  -52.1677 C.3       16 UNK         0.1400 
     91 CB         -7.4429  -23.1567  -52.4673 C.3       16 UNK        -0.1800 
     92 C          -5.1183  -23.8598  -53.1793 C.2       16 UNK         0.5000 
     93 O          -4.9333  -23.4078  -54.3095 O.2       16 UNK        -0.5000 
     94 N          -4.6276  -25.0375  -52.7632 N.am      17 UNK        -0.5000 
     95 CA         -3.7427  -25.8912  -53.5555 C.3       17 UNK         0.1400 
     96 CB         -3.6777  -27.2896  -52.9234 C.3       17 UNK        -0.1800 
     97 C          -2.3249  -25.3094  -53.7205 C.2       17 UNK         0.5000 
     98 O          -1.6660  -25.6299  -54.7107 O.2       17 UNK        -0.5000 
     99 N          -1.8766  -24.4716  -52.7718 N.am      18 UNK        -0.5000 
    100 CA        -0.6113  -23.7436  -52.8728 C.3       18 UNK         0.1400 
    101 CB        -0.1085  -23.3480  -51.4774 C.3       18 UNK        -0.1800 
    102 C         -0.7670  -22.5147  -53.7817 C.2       18 UNK         0.5000 
    103 O         -0.0211  -22.3727  -54.7513 O.2       18 UNK        -0.5000 
    104 N         -1.7657  -21.6811  -53.4747 N.am      19 UNK        -0.5000 
    105 CA        -2.2124  -20.5537  -54.2828 C.3       19 UNK         0.1400 
    106 CB        -1.2239  -19.3755  -54.2005 C.3       19 UNK        -0.1800 
    107 C         -3.6018  -20.1493  -53.7835 C.2       19 UNK         0.5000 
    108 O         -3.8518  -20.2073  -52.5769 O.2       19 UNK        -0.5000 
    109 N         -4.4724  -19.7327  -54.7124 N.am      20 UNK        -0.5000 
    110 CA        -5.8939  -19.4442  -54.4854 C.3       20 UNK         0.1400 
    111 CB        -6.5445  -19.0518  -55.8201 C.3       20 UNK        -0.1800 
    112 C         -6.1805  -18.3752  -53.4134 C.2       20 UNK         0.5000 
    113 O         -7.2308  -18.4320  -52.7729 O.2       20 UNK        -0.5000 
    114 N         -5.2286  -17.4554  -53.1999 N.am      21 UNK        -0.5000 
    115 CA        -5.2569  -16.4329  -52.1503 C.3       21 UNK         0.1400 
    116 CB        -4.0226  -15.5303  -52.3006 C.3       21 UNK        -0.1800 
    117 C         -5.3322  -17.0090  -50.7206 C.2       21 UNK         0.5000 
    118 O         -5.8984  -16.3595  -49.8414 O.2       21 UNK        -0.5000 
    119 N         -4.7936  -18.2197  -50.5267 N.am      22 UNK        -0.5000 
    120 CA        -4.8863  -18.9920  -49.2795 C.3       22 UNK         0.1400 
    121 C         -6.1548  -19.8945  -49.2029 C.2       22 UNK         0.5000 
    122 N         -7.0606  -19.8836  -50.1747 N.am      22 UNK        -0.7600 
    123 O         -6.3319  -20.6184  -48.2279 O.2       22 UNK        -0.5000 
    124 C124       -3.5972  -19.8133  -49.0263 C.3       23 UNK        -0.0398 
    125 S125       -2.1283  -18.7734  -48.7371 S.3       23 UNK        -0.2404 
    126 C126       -1.3901  -18.7030  -50.3974 C.3       23 UNK        -0.0205 
    127 H127        4.2856  -13.6140  -43.9435 H         1 UNK         0.0600 
    128 H128        4.7522  -11.9158  -44.0715 H         1 UNK         0.0600 
    129 H129        5.7347  -13.1639  -44.8465 H         1 UNK         0.0600 
    130 H130        2.5562  -14.0699  -45.2190 H         1 UNK         0.3000 
    131 H131        1.1073  -14.2347  -46.8612 H         1 UNK         0.0600 
    132 H132        1.6490  -13.8789  -49.2380 H         1 UNK         0.0800 
    133 H133        3.1863  -13.1456  -48.8274 H         1 UNK         0.0800 
    134 H134        2.4386  -15.3726  -50.7523 H         1 UNK         0.0800 
    135 H135        3.9378  -16.2463  -50.6253 H         1 UNK         0.0800 
    136 H136        0.2719  -16.5177  -50.4056 H         1 UNK         0.1150 
    137 H137        0.2906  -20.7901  -50.1473 H         1 UNK         0.1150 
    138 H138        3.9710  -18.6184  -49.8375 H         1 UNK         0.1150 
    139 H139        2.3981  -22.0010  -50.1152 H         1 UNK         0.0800 
    140 H140        3.9066  -21.1400  -50.2614 H         1 UNK         0.0800 
    141 H141        1.6358  -20.9702  -46.2990 H         1 UNK         0.0800 
    142 H142        0.9078  -20.9641  -47.8584 H         1 UNK         0.0800 
    143 H143        1.1475  -23.4887  -47.9597 H         1 UNK         0.0600 
    144 H144        2.5520  -23.1277  -45.4861 H         1 UNK         0.3000 
    145 H145        2.2649  -26.4571  -44.2795 H         1 UNK         0.0600 
    146 H146        4.7379  -26.2806  -44.3659 H         1 UNK         0.0600 
    147 H147        4.0943  -26.5438  -45.9788 H         1 UNK         0.0600 
    148 H148        4.6320  -24.9370  -45.5041 H         1 UNK         0.0600 
    149 H149        3.6769  -24.1327  -43.3603 H         1 UNK         0.3000 
    150 H150        1.0282  -22.7796  -41.3825 H         1 UNK         0.0600 
    151 H151        2.0248  -24.6168  -40.0072 H         1 UNK         0.0600 
    152 H152        2.7135  -23.0548  -39.5964 H         1 UNK         0.0600 
    153 H153        3.6304  -24.1903  -40.5871 H         1 UNK         0.0600 
    154 H154        3.6774  -21.8940  -41.6056 H         1 UNK         0.3000 
    155 H155        3.8178  -19.6750  -42.5705 H         1 UNK         0.0600 
    156 H156        5.5336  -19.9994  -44.3655 H         1 UNK         0.0600 
    157 H157        4.5597  -21.2799  -45.0857 H         1 UNK         0.0600 
    158 H158        5.2714  -21.4969  -43.4920 H         1 UNK         0.0600 
    159 H159        3.4151  -19.1128  -45.3265 H         1 UNK         0.3000 
    160 H160        2.4501  -16.7564  -45.5354 H         1 UNK         0.0600 
    161 H161        1.9330  -18.6573  -46.9858 H         1 UNK         0.0600 
    162 H162        0.7363  -17.4204  -47.2869 H         1 UNK         0.0600 
    163 H163        0.3119  -18.8177  -46.3038 H         1 UNK         0.0600 
    164 H164       -0.4385  -16.7025  -45.1686 H         1 UNK         0.3000 
    165 H165       -1.3583  -15.2271  -43.3635 H         1 UNK         0.0600 
    166 H166        0.2582  -12.6234  -43.3713 H         1 UNK         0.0600 
    167 H167       -1.3634  -12.8326  -42.7138 H         1 UNK         0.0600 
    168 H168       -0.0030  -13.6653  -41.9765 H         1 UNK         0.0600 
    169 H169       -1.0648  -13.1052  -45.3418 H         1 UNK         0.3000 
    170 H170       -1.5600  -13.6894  -47.7362 H         1 UNK         0.0600 
    171 H171       -2.4257  -15.8292  -48.5802 H         1 UNK         0.0600 
    172 H172       -3.9910  -15.5482  -47.8286 H         1 UNK         0.0600 
    173 H173       -3.4431  -14.5177  -49.1486 H         1 UNK         0.0600 
    174 H174       -3.0253  -12.0874  -47.3722 H         1 UNK         0.3000 
    175 H175       -6.1245  -11.7757  -46.7318 H         1 UNK         0.0600 
    176 H176       -6.2622  -10.4065  -44.6278 H         1 UNK         0.0600 
    177 H177       -6.3757  -12.1315  -44.3261 H         1 UNK         0.0600 
    178 H178       -4.8773  -11.2858  -43.9797 H         1 UNK         0.0600 
    179 H179       -4.9493  -10.1275  -47.5600 H         1 UNK         0.3000 
    180 H180       -3.4438   -8.7085  -48.0723 H         1 UNK         0.0600 
    181 H181       -2.7278   -6.5567  -47.0767 H         1 UNK         0.0600 
    182 H182       -4.1065   -7.1923  -46.1930 H         1 UNK         0.0600 
    183 H183       -2.4922   -7.3250  -45.5061 H         1 UNK         0.0600 
    184 H184       -0.8348   -8.2356  -47.1076 H         1 UNK         0.3000 
    185 H185        0.7274   -9.7238  -49.3701 H         1 UNK         0.0600 
    186 H186        2.4132   -9.0728  -47.6194 H         1 UNK         0.0600 
    187 H187        1.0567   -7.9678  -47.6771 H         1 UNK         0.0600 
    188 H188        1.1636   -9.1657  -46.3854 H         1 UNK         0.0600 
    189 H189        1.6877  -11.6649  -48.9671 H         1 UNK         0.3000 
    190 H190        0.1640  -22.3951  -44.6845 H         1 UNK         0.3000 
    191 H191       -2.5794  -21.9786  -45.2484 H         1 UNK         0.0600 
    192 H192       -2.8169  -22.0163  -42.7688 H         1 UNK         0.0600 
    193 H193       -1.4116  -21.0740  -43.2471 H         1 UNK         0.0600 
    194 H194       -1.2050  -22.7021  -42.6055 H         1 UNK         0.0600 
    195 H195       -0.8372  -24.9260  -44.1984 H         1 UNK         0.3000 
    196 H196       -3.1287  -26.5922  -43.8786 H         1 UNK         0.0600 
    197 H197       -1.4535  -28.4424  -43.9538 H         1 UNK         0.0600 
    198 H198       -0.9275  -27.1435  -42.8942 H         1 UNK         0.0600 
    199 H199       -0.2161  -27.3163  -44.4970 H         1 UNK         0.0600 
    200 H200       -1.0036  -25.9664  -46.7040 H         1 UNK         0.3000 
    201 H201       -2.3510  -27.7622  -48.5040 H         1 UNK         0.0600 
    202 H202       -0.0387  -27.0340  -48.9139 H         1 UNK         0.0600 
    203 H203       -0.5367  -25.3475  -48.9910 H         1 UNK         0.0600 
    204 H204       -1.0502  -26.4778  -50.2415 H         1 UNK         0.0600 
    205 H205       -2.6915  -24.2923  -47.7813 H         1 UNK         0.3000 
    206 H206       -4.2379  -22.7743  -48.0933 H         1 UNK         0.0600 
    207 H207       -5.7814  -24.4029  -47.0086 H         1 UNK         0.0600 
    208 H208       -6.6332  -23.3998  -48.1638 H         1 UNK         0.0600 
    209 H209       -6.2257  -25.0662  -48.5754 H         1 UNK         0.0600 
    210 H210       -6.5181  -23.6587  -50.2305 H         1 UNK         0.3000 
    211 H211       -5.6612  -21.9898  -52.2956 H         1 UNK         0.0600 
    212 H212       -7.8003  -24.1766  -52.3200 H         1 UNK         0.0600 
    213 H213       -7.6599  -22.8776  -53.4993 H         1 UNK         0.0600 
    214 H214       -8.0282  -22.4975  -51.8261 H         1 UNK         0.0600 
    215 H215       -4.8085  -25.3307  -51.8120 H         1 UNK         0.3000 
    216 H216       -4.1769  -25.9921  -54.5525 H         1 UNK         0.0600 
    217 H217       -3.1198  -27.9769  -53.5605 H         1 UNK         0.0600 
    218 H218       -4.6735  -27.7109  -52.7845 H         1 UNK         0.0600 
    219 H219       -3.1800  -27.2713  -51.9539 H         1 UNK         0.0600 
    220 H220       -2.4932  -24.2082  -52.0102 H         1 UNK         0.3000 
    221 H221        0.1436  -24.3948  -53.3190 H         1 UNK         0.0600 
    222 H222       -0.8523  -22.7863  -50.9122 H         1 UNK         0.0600 
    223 H223        0.1644  -24.2274  -50.8973 H         1 UNK         0.0600 
    224 H224        0.7833  -22.7282  -51.5597 H         1 UNK         0.0600 
    225 H225       -2.3473  -21.8690  -52.6652 H         1 UNK         0.3000 
    226 H226       -2.2969  -20.8836  -55.3204 H         1 UNK         0.0600 
    227 H227       -0.2510  -19.6414  -54.6132 H         1 UNK         0.0600 
    228 H228       -1.5893  -18.5188  -54.7677 H         1 UNK         0.0600 
    229 H229       -1.0679  -19.0460  -53.1751 H         1 UNK         0.0600 
    230 H230       -4.1678  -19.6967  -55.6745 H         1 UNK         0.3000 
    231 H231       -6.3585  -20.3709  -54.1425 H         1 UNK         0.0600 
    232 H232       -7.6101  -18.8552  -55.6937 H         1 UNK         0.0600 
    233 H233       -6.4494  -19.8505  -56.5560 H         1 UNK         0.0600 
    234 H234       -6.0919  -18.1519  -56.2385 H         1 UNK         0.0600 
    235 H235       -4.3974  -17.4951  -53.7704 H         1 UNK         0.3000 
    236 H236       -6.1498  -15.8241  -52.3060 H         1 UNK         0.0600 
    237 H237       -3.0958  -16.0901  -52.1706 H         1 UNK         0.0600 
    238 H238       -3.9955  -15.0580  -53.2827 H         1 UNK         0.0600 
    239 H239       -4.0309  -14.7312  -51.5586 H         1 UNK         0.0600 
    240 H240       -4.3950  -18.7168  -51.3163 H         1 UNK         0.3000 
    241 H241       -4.9857  -18.2931  -48.4469 H         1 UNK         0.0600 
    242 H242       -7.8789  -20.4625  -50.0825 H         1 UNK         0.3800 
    243 H243       -6.9684  -19.2786  -50.9826 H         1 UNK         0.3800 
    244 H244       -3.4122  -20.5033  -49.8490 H         1 UNK         0.0800 
    245 H245       -3.7065  -20.4319  -48.1346 H         1 UNK         0.0800 
    246 H246       -1.6864  -19.5767  -50.9783 H         1 UNK         0.0800 
    247 H247       -1.7710  -17.8301  -50.9283 H         1 UNK         0.0800 
@<TRIPOS>BOND
     1    1    2 1    
     2    1  127 1    
     3    1  128 1    
     4    1  129 1    
     5    2    3 2    
     6    2    4 am   BACKBONE|DICT|INTERRES
     7    4    5 1    
     8    4  130 1    
     9    5    6 1    
    10    5   65 1    
    11    5  131 1    
    12    6    7 1    
    13    6  132 1    
    14    6  133 1    
    15    7    8 1    
    16    8    9 1    
    17    8  134 1    
    18    8  135 1    
    19    9   10 ar   
    20    9   14 ar   
    21   10   11 ar   
    22   10  136 1    
    23   11   12 ar   
    24   11  126 1    
    25   12   13 ar   
    26   12  137 1    
    27   13   14 ar   
    28   13   15 1    
    29   14  138 1    
    30   15   16 1    
    31   15  139 1    
    32   15  140 1    
    33   16   17 1    
    34   17   18 1    
    35   17  141 1    
    36   17  142 1    
    37   18   19 1    
    38   18   67 1    
    39   18  143 1    
    40   19   20 am   BACKBONE|DICT|INTERRES
    41   19  144 1    
    42   20   21 2    
    43   20   22 1    
    44   22   23 1    
    45   22   24 1    
    46   22  145 1    
    47   23  146 1    
    48   23  147 1    
    49   23  148 1    
    50   24   25 am   BACKBONE|DICT|INTERRES
    51   24  149 1    
    52   25   26 2    
    53   25   27 1    
    54   27   28 1    
    55   27   29 1    
    56   27  150 1    
    57   28  151 1    
    58   28  152 1    
    59   28  153 1    
    60   29   30 am   BACKBONE|DICT|INTERRES
    61   29  154 1    
    62   30   31 2    
    63   30   32 1    
    64   32   33 1    
    65   32   34 1    
    66   32  155 1    
    67   33  156 1    
    68   33  157 1    
    69   33  158 1    
    70   34   35 am   BACKBONE|DICT|INTERRES
    71   34  159 1    
    72   35   36 2    
    73   35   37 1    
    74   37   38 1    
    75   37   39 1    
    76   37  160 1    
    77   38  161 1    
    78   38  162 1    
    79   38  163 1    
    80   39   40 am   BACKBONE|DICT|INTERRES
    81   39  164 1    
    82   40   41 2    
    83   40   42 1    
    84   42   43 1    
    85   42   44 1    
    86   42  165 1    
    87   43  166 1    
    88   43  167 1    
    89   43  168 1    
    90   44   45 am   BACKBONE|DICT|INTERRES
    91   44  169 1    
    92   45   46 2    
    93   45   47 1    
    94   47   48 1    
    95   47   49 1    
    96   47  170 1    
    97   48  171 1    
    98   48  172 1    
    99   48  173 1    
   100   49   50 am   BACKBONE|DICT|INTERRES
   101   49  174 1    
   102   50   51 2    
   103   50   52 1    
   104   52   53 1    
   105   52   54 1    
   106   52  175 1    
   107   53  176 1    
   108   53  177 1    
   109   53  178 1    
   110   54   55 am   BACKBONE|DICT|INTERRES
   111   54  179 1    
   112   55   56 2    
   113   55   57 1    
   114   57   58 1    
   115   57   59 1    
   116   57  180 1    
   117   58  181 1    
   118   58  182 1    
   119   58  183 1    
   120   59   60 am   BACKBONE|DICT|INTERRES
   121   59  184 1    
   122   60   61 2    
   123   60   62 1    
   124   62   63 1    
   125   62   64 1    
   126   62  185 1    
   127   63  186 1    
   128   63  187 1    
   129   63  188 1    
   130   64   65 am   BACKBONE|DICT|INTERRES
   131   64  189 1    
   132   65   66 2    
   133   67   68 2    
   134   67   69 am   BACKBONE|DICT|INTERRES
   135   69   70 1    
   136   69  190 1    
   137   70   71 1    
   138   70   72 1    
   139   70  191 1    
   140   71  192 1    
   141   71  193 1    
   142   71  194 1    
   143   72   73 2    
   144   72   74 am   BACKBONE|DICT|INTERRES
   145   74   75 1    
   146   74  195 1    
   147   75   76 1    
   148   75   77 1    
   149   75  196 1    
   150   76  197 1    
   151   76  198 1    
   152   76  199 1    
   153   77   78 2    
   154   77   79 am   BACKBONE|DICT|INTERRES
   155   79   80 1    
   156   79  200 1    
   157   80   81 1    
   158   80   82 1    
   159   80  201 1    
   160   81  202 1    
   161   81  203 1    
   162   81  204 1    
   163   82   83 2    
   164   82   84 am   BACKBONE|DICT|INTERRES
   165   84   85 1    
   166   84  205 1    
   167   85   86 1    
   168   85   87 1    
   169   85  206 1    
   170   86  207 1    
   171   86  208 1    
   172   86  209 1    
   173   87   88 2    
   174   87   89 am   BACKBONE|DICT|INTERRES
   175   89   90 1    
   176   89  210 1    
   177   90   91 1    
   178   90   92 1    
   179   90  211 1    
   180   91  212 1    
   181   91  213 1    
   182   91  214 1    
   183   92   93 2    
   184   92   94 am   BACKBONE|DICT|INTERRES
   185   94   95 1    
   186   94  215 1    
   187   95   96 1    
   188   95   97 1    
   189   95  216 1    
   190   96  217 1    
   191   96  218 1    
   192   96  219 1    
   193   97   98 2    
   194   97   99 am   BACKBONE|DICT|INTERRES
   195   99  100 1    
   196   99  220 1    
   197  100  101 1    
   198  100  102 1    
   199  100  221 1    
   200  101  222 1    
   201  101  223 1    
   202  101  224 1    
   203  102  103 2    
   204  102  104 am   BACKBONE|DICT|INTERRES
   205  104  105 1    
   206  104  225 1    
   207  105  106 1    
   208  105  107 1    
   209  105  226 1    
   210  106  227 1    
   211  106  228 1    
   212  106  229 1    
   213  107  108 2    
   214  107  109 am   BACKBONE|DICT|INTERRES
   215  109  110 1    
   216  109  230 1    
   217  110  111 1    
   218  110  112 1    
   219  110  231 1    
   220  111  232 1    
   221  111  233 1    
   222  111  234 1    
   223  112  113 2    
   224  112  114 am   BACKBONE|DICT|INTERRES
   225  114  115 1    
   226  114  235 1    
   227  115  116 1    
   228  115  117 1    
   229  115  236 1    
   230  116  237 1    
   231  116  238 1    
   232  116  239 1    
   233  117  118 2    
   234  117  119 am   BACKBONE|DICT|INTERRES
   235  119  120 1    
   236  119  240 1    
   237  120  121 1    
   238  120  124 1    
   239  120  241 1    
   240  121  122 am   BACKBONE|DICT|INTERRES
   241  121  123 2    
   242  122  242 1    
   243  122  243 1    
   244  124  125 1    
   245  124  244 1    
   246  124  245 1    
   247  125  126 1    
   248  126  246 1    
   249  126  247 1    
@<TRIPOS>SUBSTRUCTURE
     1 UNK         1 GROUP             0       ****    0 ROOT    
