@<TRIPOS>MOLECULE
3R540
247   249    1
SMALL
USER_CHARGES


@<TRIPOS>ATOM
      1 CA          5.6705  -10.4232  -50.0119 C.3       0 UNK        -0.1800 
      2 C           5.5006  -11.9340  -49.9428 C.2       0 UNK         0.5000 
      3 O           6.0473  -12.5697  -49.0422 O.2       0 UNK        -0.5000 
      4 N           4.7389  -12.5071  -50.8850 N.am      1 UNK        -0.5000 
      5 CA          4.4518  -13.9455  -50.9854 C.3       1 UNK         0.1400 
      6 C6          3.8055  -14.2845  -52.3521 C.3       23 UNK        -0.0398 
      7 S7          3.9686  -16.0426  -52.8200 S.3       23 UNK        -0.2404 
      8 C8          2.3015  -16.4272  -53.4440 C.3       23 UNK        -0.0205 
      9 C9          1.3520  -16.8872  -52.3451 C.ar      23 UNK        -0.0193 
     10 C10         0.5962  -15.9599  -51.6230 C.ar      23 UNK        -0.1150 
     11 C11        -0.3101  -16.3860  -50.6471 C.ar      23 UNK        -0.0193 
     12 C12        -0.4508  -17.7528  -50.3881 C.ar      23 UNK        -0.1150 
     13 C13         0.2942  -18.6915  -51.1067 C.ar      23 UNK        -0.0193 
     14 C14         1.1943  -18.2515  -52.0821 C.ar      23 UNK        -0.1150 
     15 C15         0.1155  -20.1817  -50.8537 C.3       23 UNK        -0.0205 
     16 S16         1.4110  -20.8418  -49.7587 S.3       23 UNK        -0.2404 
     17 C17         0.7304  -20.4808  -48.1040 C.3       23 UNK        -0.0398 
     18 CA          0.3213  -21.7661  -47.3419 C.3       11 UNK         0.1400 
     19 N           0.2703  -21.5545  -45.8932 N.am      11 UNK        -0.5000 
     20 C           0.1324  -22.5251  -44.9791 C.2       10 UNK         0.5000 
     21 O           0.0944  -23.7219  -45.2585 O.2       10 UNK        -0.5000 
     22 CA         -0.0475  -22.0890  -43.5128 C.3       10 UNK         0.1400 
     23 CB          1.3106  -21.8335  -42.8442 C.3       10 UNK        -0.1800 
     24 N          -0.9071  -20.9107  -43.3783 N.am      10 UNK        -0.5000 
     25 C          -2.2050  -20.8887  -43.7167 C.2       9 UNK         0.5000 
     26 O          -2.8192  -21.8766  -44.1171 O.2       9 UNK        -0.5000 
     27 CA         -2.9286  -19.5325  -43.6477 C.3       9 UNK         0.1400 
     28 CB         -3.3876  -19.2312  -42.2137 C.3       9 UNK        -0.1800 
     29 N          -2.1073  -18.4304  -44.1481 N.am      9 UNK        -0.5000 
     30 C          -1.6754  -18.3131  -45.4127 C.2       8 UNK         0.5000 
     31 O          -1.9744  -19.0974  -46.3143 O.2       8 UNK        -0.5000 
     32 CA         -0.6892  -17.1648  -45.6997 C.3       8 UNK         0.1400 
     33 CB         -1.4253  -15.8254  -45.8431 C.3       8 UNK        -0.1800 
     34 N           0.3411  -17.0555  -44.6658 N.am      8 UNK        -0.5000 
     35 C           1.2430  -18.0110  -44.3990 C.2       7 UNK         0.5000 
     36 O           1.3364  -19.0542  -45.0440 O.2       7 UNK        -0.5000 
     37 CA          2.1469  -17.8105  -43.1714 C.3       7 UNK         0.1400 
     38 CB          3.4232  -17.0476  -43.5331 C.3       7 UNK        -0.1800 
     39 N           1.4516  -17.1241  -42.0851 N.am      7 UNK        -0.5000 
     40 C           0.5414  -17.7119  -41.2982 C.2       6 UNK         0.5000 
     41 O           0.2123  -18.8940  -41.4007 O.2       6 UNK        -0.5000 
     42 CA         -0.1390  -16.8188  -40.2452 C.3       6 UNK         0.1400 
     43 CB          0.7646  -16.6406  -39.0158 C.3       6 UNK        -0.1800 
     44 N          -0.5091  -15.5042  -40.7718 N.am      6 UNK        -0.5000 
     45 C          -1.4286  -15.3084  -41.7262 C.2       5 UNK         0.5000 
     46 O          -2.0630  -16.2174  -42.2602 O.2       5 UNK        -0.5000 
     47 CA         -1.6642  -13.8575  -42.1836 C.3       5 UNK         0.1400 
     48 CB         -2.7223  -13.1835  -41.2973 C.3       5 UNK        -0.1800 
     49 N          -0.4627  -13.0174  -42.2237 N.am      5 UNK        -0.5000 
     50 C           0.6462  -13.2740  -42.9313 C.2       4 UNK         0.5000 
     51 O           0.8370  -14.3322  -43.5336 O.2       4 UNK        -0.5000 
     52 CA          1.6787  -12.1297  -42.9861 C.3       4 UNK         0.1400 
     53 CB          2.2986  -11.8401  -41.6024 C.3       4 UNK        -0.1800 
     54 N           2.6944  -12.3277  -44.0292 N.am      4 UNK        -0.5000 
     55 C           3.7697  -13.1312  -44.0202 C.2       3 UNK         0.5000 
     56 O           4.1628  -13.7566  -43.0342 O.2       3 UNK        -0.5000 
     57 CA          4.5430  -13.2244  -45.3576 C.3       3 UNK         0.1400 
     58 CB          5.5436  -14.3978  -45.4098 C.3       3 UNK        -0.1800 
     59 N           3.6648  -13.2398  -46.5357 N.am      3 UNK        -0.5000 
     60 C           2.7068  -14.1381  -46.8189 C.2       2 UNK         0.5000 
     61 O           2.4568  -15.1309  -46.1420 O.2       2 UNK        -0.5000 
     62 CA          1.8920  -13.8813  -48.0968 C.3       2 UNK         0.1400 
     63 CB          0.9071  -12.7189  -47.8819 C.3       2 UNK        -0.1800 
     64 N           2.7362  -13.5960  -49.2562 N.am      2 UNK        -0.5000 
     65 C           3.6012  -14.4648  -49.8035 C.2       1 UNK         0.5000 
     66 O           3.7585  -15.6183  -49.4030 O.2       1 UNK        -0.5000 
     67 C          -0.9958  -22.3686  -47.8774 C.2       11 UNK         0.5000 
     68 O          -0.9537  -23.3285  -48.6462 O.2       11 UNK        -0.5000 
     69 N          -2.1413  -21.8390  -47.4230 N.am      12 UNK        -0.5000 
     70 CA         -3.4709  -22.3664  -47.7399 C.3       12 UNK         0.1400 
     71 CB         -4.5473  -21.3975  -47.2306 C.3       12 UNK        -0.1800 
     72 C          -3.6974  -23.7886  -47.1888 C.2       12 UNK         0.5000 
     73 O          -4.2662  -24.6270  -47.8883 O.2       12 UNK        -0.5000 
     74 N          -3.2156  -24.0541  -45.9664 N.am      13 UNK        -0.5000 
     75 CA         -3.2357  -25.3761  -45.3379 C.3       13 UNK         0.1400 
     76 CB         -2.8250  -25.2616  -43.8627 C.3       13 UNK        -0.1800 
     77 C          -2.3534  -26.3961  -46.0814 C.2       13 UNK         0.5000 
     78 O          -2.7968  -27.5207  -46.3134 O.2       13 UNK        -0.5000 
     79 N          -1.1481  -25.9763  -46.4938 N.am      14 UNK        -0.5000 
     80 CA         -0.2220  -26.7612  -47.3172 C.3       14 UNK         0.1400 
     81 CB          1.1241  -26.0286  -47.4195 C.3       14 UNK        -0.1800 
     82 C          -0.7808  -27.0754  -48.7191 C.2       14 UNK         0.5000 
     83 O          -0.5134  -28.1514  -49.2542 O.2       14 UNK        -0.5000 
     84 N          -1.5913  -26.1566  -49.2607 N.am      15 UNK        -0.5000 
     85 CA         -2.3641  -26.3185  -50.4934 C.3       15 UNK         0.1400 
     86 CB         -2.6960  -24.9261  -51.0578 C.3       15 UNK        -0.1800 
     87 C          -3.6444  -27.1669  -50.3142 C.2       15 UNK         0.5000 
     88 O          -4.4112  -27.2923  -51.2682 O.2       15 UNK        -0.5000 
     89 N          -3.8694  -27.7245  -49.1139 N.am      16 UNK        -0.5000 
     90 CA         -4.9962  -28.5778  -48.7221 C.3       16 UNK         0.1400 
     91 CB         -4.9869  -29.9040  -49.5115 C.3       16 UNK        -0.1800 
     92 C          -6.3521  -27.8452  -48.7734 C.2       16 UNK         0.5000 
     93 O          -7.3595  -28.4334  -49.1702 O.2       16 UNK        -0.5000 
     94 N          -6.3421  -26.5672  -48.3668 N.am      17 UNK        -0.5000 
     95 CA         -7.4732  -25.6352  -48.3139 C.3       17 UNK         0.1400 
     96 CB         -8.5872  -26.1468  -47.3761 C.3       17 UNK        -0.1800 
     97 C          -7.9984  -25.2075  -49.7004 C.2       17 UNK         0.5000 
     98 O          -9.1147  -24.6931  -49.7966 O.2       17 UNK        -0.5000 
     99 N          -7.1789  -25.3833  -50.7464 N.am      18 UNK        -0.5000 
    100 CA        -7.3968  -24.8077  -52.0729 C.3       18 UNK         0.1400 
    101 CB        -6.4828  -25.5183  -53.0829 C.3       18 UNK        -0.1800 
    102 C         -7.1278  -23.2895  -52.0698 C.2       18 UNK         0.5000 
    103 O         -6.5110  -22.7690  -51.1353 O.2       18 UNK        -0.5000 
    104 N         -7.5893  -22.6070  -53.1252 N.am      19 UNK        -0.5000 
    105 CA        -7.4048  -21.1702  -53.3323 C.3       19 UNK         0.1400 
    106 CB        -8.1675  -20.7388  -54.5945 C.3       19 UNK        -0.1800 
    107 C         -5.9166  -20.7831  -53.4349 C.2       19 UNK         0.5000 
    108 O         -5.1729  -21.4015  -54.2009 O.2       19 UNK        -0.5000 
    109 N         -5.5203  -19.7693  -52.6588 N.am      20 UNK        -0.5000 
    110 CA        -4.1732  -19.2046  -52.6457 C.3       20 UNK         0.1400 
    111 CB        -4.0120  -18.3709  -51.3664 C.3       20 UNK        -0.1800 
    112 C         -3.8987  -18.3444  -53.8940 C.2       20 UNK         0.5000 
    113 O         -4.8370  -17.8925  -54.5557 O.2       20 UNK        -0.5000 
    114 N         -2.6107  -18.1177  -54.1818 N.am      21 UNK        -0.5000 
    115 CA        -2.1569  -17.2829  -55.2972 C.3       21 UNK         0.1400 
    116 CB        -0.6844  -17.5986  -55.5947 C.3       21 UNK        -0.1800 
    117 C         -2.3545  -15.7743  -55.0459 C.2       21 UNK         0.5000 
    118 O         -2.4933  -15.0173  -56.0078 O.2       21 UNK        -0.5000 
    119 N         -2.3667  -15.3647  -53.7710 N.am      22 UNK        -0.5000 
    120 CA        -2.7103  -14.0060  -53.3300 C.3       22 UNK         0.1400 
    121 C         -4.2191  -13.6672  -53.5062 C.2       22 UNK         0.5000 
    122 N         -4.5530  -12.3989  -53.7061 N.am      22 UNK        -0.7600 
    123 O         -5.0922  -14.5286  -53.4329 O.2       22 UNK        -0.5000 
    124 C124       -2.2238  -13.7231  -51.8839 C.3       23 UNK        -0.0398 
    125 S125       -2.7155  -14.9799  -50.6466 S.3       23 UNK        -0.2404 
    126 C126       -1.1248  -15.3749  -49.8554 C.3       23 UNK        -0.0205 
    127 H127        5.3186   -9.9634  -49.0884 H         1 UNK         0.0600 
    128 H128        6.7229  -10.1702  -50.1402 H         1 UNK         0.0600 
    129 H129        5.1127   -9.9891  -50.8419 H         1 UNK         0.0600 
    130 H130        4.3248  -11.9244  -51.5990 H         1 UNK         0.3000 
    131 H131        5.4154  -14.4575  -50.9330 H         1 UNK         0.0600 
    132 H132        4.2990  -13.7163  -53.1419 H         1 UNK         0.0800 
    133 H133        2.7615  -13.9709  -52.3767 H         1 UNK         0.0800 
    134 H134        1.8866  -15.5655  -53.9692 H         1 UNK         0.0800 
    135 H135        2.3952  -17.2127  -54.1955 H         1 UNK         0.0800 
    136 H136        0.7131  -14.9063  -51.8239 H         1 UNK         0.1150 
    137 H137       -1.1494  -18.0849  -49.6327 H         1 UNK         0.1150 
    138 H138        1.7704  -18.9752  -52.6416 H         1 UNK         0.1150 
    139 H139       -0.8715  -20.3922  -50.4383 H         1 UNK         0.0800 
    140 H140        0.1602  -20.7153  -51.8042 H         1 UNK         0.0800 
    141 H141       -0.0964  -19.7726  -48.1680 H         1 UNK         0.0800 
    142 H142        1.5189  -19.9629  -47.5569 H         1 UNK         0.0800 
    143 H143        1.1027  -22.5114  -47.5062 H         1 UNK         0.0600 
    144 H144        0.3692  -20.5957  -45.5702 H         1 UNK         0.3000 
    145 H145       -0.5314  -22.9099  -42.9800 H         1 UNK         0.0600 
    146 H146        1.1900  -21.5412  -41.8009 H         1 UNK         0.0600 
    147 H147        1.9253  -22.7342  -42.8610 H         1 UNK         0.0600 
    148 H148        1.8706  -21.0492  -43.3512 H         1 UNK         0.0600 
    149 H149       -0.4816  -20.0709  -43.0024 H         1 UNK         0.3000 
    150 H150       -3.8161  -19.5989  -44.2803 H         1 UNK         0.0600 
    151 H151       -4.0084  -20.0388  -41.8238 H         1 UNK         0.0600 
    152 H152       -3.9805  -18.3174  -42.1747 H         1 UNK         0.0600 
    153 H153       -2.5419  -19.1092  -41.5363 H         1 UNK         0.0600 
    154 H154       -1.8563  -17.7121  -43.4743 H         1 UNK         0.3000 
    155 H155       -0.1898  -17.3807  -46.6467 H         1 UNK         0.0600 
    156 H156       -1.9282  -15.5425  -44.9194 H         1 UNK         0.0600 
    157 H157       -2.1855  -15.8777  -46.6229 H         1 UNK         0.0600 
    158 H158       -0.7348  -15.0248  -46.1077 H         1 UNK         0.0600 
    159 H159        0.3867  -16.1851  -44.1446 H         1 UNK         0.3000 
    160 H160        2.4476  -18.7983  -42.8174 H         1 UNK         0.0600 
    161 H161        4.1074  -16.9899  -42.6866 H         1 UNK         0.0600 
    162 H162        3.1897  -16.0323  -43.8443 H         1 UNK         0.0600 
    163 H163        3.9525  -17.5318  -44.3546 H         1 UNK         0.0600 
    164 H164        1.6164  -16.1312  -41.9950 H         1 UNK         0.3000 
    165 H165       -1.0532  -17.3234  -39.9250 H         1 UNK         0.0600 
    166 H166        0.2558  -16.0813  -38.2305 H         1 UNK         0.0600 
    167 H167        1.0455  -17.6071  -38.5952 H         1 UNK         0.0600 
    168 H168        1.6849  -16.1102  -39.2638 H         1 UNK         0.0600 
    169 H169       -0.0262  -14.7022  -40.3947 H         1 UNK         0.3000 
    170 H170       -2.0585  -13.8999  -43.2003 H         1 UNK         0.0600 
    171 H171       -3.6388  -13.7745  -41.2640 H         1 UNK         0.0600 
    172 H172       -2.3713  -13.0641  -40.2715 H         1 UNK         0.0600 
    173 H173       -2.9883  -12.1976  -41.6790 H         1 UNK         0.0600 
    174 H174       -0.5342  -12.1287  -41.7496 H         1 UNK         0.3000 
    175 H175        1.1326  -11.2360  -43.2915 H         1 UNK         0.0600 
    176 H176        2.7264  -12.7349  -41.1496 H         1 UNK         0.0600 
    177 H177        3.0843  -11.0876  -41.6699 H         1 UNK         0.0600 
    178 H178        1.5482  -11.4594  -40.9090 H         1 UNK         0.0600 
    179 H179        2.4752  -11.8892  -44.9116 H         1 UNK         0.3000 
    180 H180        5.1245  -12.3040  -45.4266 H         1 UNK         0.0600 
    181 H181        5.0433  -15.3628  -45.3354 H         1 UNK         0.0600 
    182 H182        6.2645  -14.3376  -44.5939 H         1 UNK         0.0600 
    183 H183        6.1083  -14.3875  -46.3423 H         1 UNK         0.0600 
    184 H184        3.8106  -12.4879  -47.1936 H         1 UNK         0.3000 
    185 H185        1.3222  -14.7876  -48.3105 H         1 UNK         0.0600 
    186 H186        0.2274  -12.9324  -47.0561 H         1 UNK         0.0600 
    187 H187        1.4241  -11.7880  -47.6463 H         1 UNK         0.0600 
    188 H188        0.2977  -12.5387  -48.7668 H         1 UNK         0.0600 
    189 H189        2.6865  -12.6640  -49.6400 H         1 UNK         0.3000 
    190 H190       -2.1010  -21.0232  -46.8193 H         1 UNK         0.3000 
    191 H191       -3.5558  -22.4182  -48.8274 H         1 UNK         0.0600 
    192 H192       -4.5177  -21.2931  -46.1461 H         1 UNK         0.0600 
    193 H193       -5.5443  -21.7478  -47.5009 H         1 UNK         0.0600 
    194 H194       -4.4214  -20.4056  -47.6655 H         1 UNK         0.0600 
    195 H195       -2.8239  -23.2926  -45.4192 H         1 UNK         0.3000 
    196 H196       -4.2640  -25.7425  -45.3716 H         1 UNK         0.0600 
    197 H197       -1.8038  -24.8981  -43.7536 H         1 UNK         0.0600 
    198 H198       -2.8823  -26.2310  -43.3663 H         1 UNK         0.0600 
    199 H199       -3.4820  -24.5797  -43.3225 H         1 UNK         0.0600 
    200 H200       -0.8293  -25.0526  -46.2107 H         1 UNK         0.3000 
    201 H201       -0.0527  -27.7130  -46.8096 H         1 UNK         0.0600 
    202 H202        1.0180  -25.0563  -47.9009 H         1 UNK         0.0600 
    203 H203        1.8410  -26.6076  -48.0030 H         1 UNK         0.0600 
    204 H204        1.5612  -25.8677  -46.4340 H         1 UNK         0.0600 
    205 H205       -1.6950  -25.2684  -48.7818 H         1 UNK         0.3000 
    206 H206       -1.7395  -26.8351  -51.2247 H         1 UNK         0.0600 
    207 H207       -1.7965  -24.3213  -51.1741 H         1 UNK         0.0600 
    208 H208       -3.1609  -25.0015  -52.0410 H         1 UNK         0.0600 
    209 H209       -3.3843  -24.3813  -50.4119 H         1 UNK         0.0600 
    210 H210       -3.2066  -27.5354  -48.3713 H         1 UNK         0.3000 
    211 H211       -4.8335  -28.8264  -47.6727 H         1 UNK         0.0600 
    212 H212       -5.2128  -29.7514  -50.5671 H         1 UNK         0.0600 
    213 H213       -5.7297  -30.5981  -49.1167 H         1 UNK         0.0600 
    214 H214       -4.0166  -30.3959  -49.4433 H         1 UNK         0.0600 
    215 H215       -5.4484  -26.1474  -48.1226 H         1 UNK         0.3000 
    216 H216       -7.0739  -24.7243  -47.8657 H         1 UNK         0.0600 
    217 H217       -8.1841  -26.4377  -46.4061 H         1 UNK         0.0600 
    218 H218       -9.3321  -25.3709  -47.1958 H         1 UNK         0.0600 
    219 H219       -9.1108  -27.0060  -47.7955 H         1 UNK         0.0600 
    220 H220       -6.2774  -25.8102  -50.5843 H         1 UNK         0.3000 
    221 H221       -8.4363  -24.9773  -52.3615 H         1 UNK         0.0600 
    222 H222       -5.4303  -25.3219  -52.8779 H         1 UNK         0.0600 
    223 H223       -6.6325  -26.5980  -53.0611 H         1 UNK         0.0600 
    224 H224       -6.6844  -25.1836  -54.1009 H         1 UNK         0.0600 
    225 H225       -8.0574  -23.1082  -53.8659 H         1 UNK         0.3000 
    226 H226       -7.8461  -20.6556  -52.4761 H         1 UNK         0.0600 
    227 H227       -9.2336  -20.9479  -54.5041 H         1 UNK         0.0600 
    228 H228       -8.0601  -19.6669  -54.7667 H         1 UNK         0.0600 
    229 H229       -7.7975  -21.2518  -55.4832 H         1 UNK         0.0600 
    230 H230       -6.2029  -19.3003  -52.0822 H         1 UNK         0.3000 
    231 H231       -3.4508  -20.0237  -52.6233 H         1 UNK         0.0600 
    232 H232       -4.7277  -17.5485  -51.3277 H         1 UNK         0.0600 
    233 H233       -3.0165  -17.9352  -51.3101 H         1 UNK         0.0600 
    234 H234       -4.1489  -18.9816  -50.4736 H         1 UNK         0.0600 
    235 H235       -1.8920  -18.5187  -53.5969 H         1 UNK         0.3000 
    236 H236       -2.7402  -17.5445  -56.1828 H         1 UNK         0.0600 
    237 H237       -0.0526  -17.3894  -54.7340 H         1 UNK         0.0600 
    238 H238       -0.5508  -18.6467  -55.8629 H         1 UNK         0.0600 
    239 H239       -0.3148  -16.9997  -56.4280 H         1 UNK         0.0600 
    240 H240       -2.2783  -16.0517  -53.0375 H         1 UNK         0.3000 
    241 H241       -2.1646  -13.3215  -53.9830 H         1 UNK         0.0600 
    242 H242       -5.5278  -12.1620  -53.8100 H         1 UNK         0.3800 
    243 H243       -3.8599  -11.6689  -53.7683 H         1 UNK         0.3800 
    244 H244       -1.1393  -13.6306  -51.8939 H         1 UNK         0.0800 
    245 H245       -2.5809  -12.7508  -51.5402 H         1 UNK         0.0800 
    246 H246       -1.3191  -15.7660  -48.8568 H         1 UNK         0.0800 
    247 H247       -0.5561  -14.4578  -49.7157 H         1 UNK         0.0800 
@<TRIPOS>BOND
     1    1    2 1    
     2    1  127 1    
     3    1  128 1    
     4    1  129 1    
     5    2    3 2    
     6    2    4 am   BACKBONE|DICT|INTERRES
     7    4    5 1    
     8    4  130 1    
     9    5    6 1    
    10    5   65 1    
    11    5  131 1    
    12    6    7 1    
    13    6  132 1    
    14    6  133 1    
    15    7    8 1    
    16    8    9 1    
    17    8  134 1    
    18    8  135 1    
    19    9   10 ar   
    20    9   14 ar   
    21   10   11 ar   
    22   10  136 1    
    23   11   12 ar   
    24   11  126 1    
    25   12   13 ar   
    26   12  137 1    
    27   13   14 ar   
    28   13   15 1    
    29   14  138 1    
    30   15   16 1    
    31   15  139 1    
    32   15  140 1    
    33   16   17 1    
    34   17   18 1    
    35   17  141 1    
    36   17  142 1    
    37   18   19 1    
    38   18   67 1    
    39   18  143 1    
    40   19   20 am   BACKBONE|DICT|INTERRES
    41   19  144 1    
    42   20   21 2    
    43   20   22 1    
    44   22   23 1    
    45   22   24 1    
    46   22  145 1    
    47   23  146 1    
    48   23  147 1    
    49   23  148 1    
    50   24   25 am   BACKBONE|DICT|INTERRES
    51   24  149 1    
    52   25   26 2    
    53   25   27 1    
    54   27   28 1    
    55   27   29 1    
    56   27  150 1    
    57   28  151 1    
    58   28  152 1    
    59   28  153 1    
    60   29   30 am   BACKBONE|DICT|INTERRES
    61   29  154 1    
    62   30   31 2    
    63   30   32 1    
    64   32   33 1    
    65   32   34 1    
    66   32  155 1    
    67   33  156 1    
    68   33  157 1    
    69   33  158 1    
    70   34   35 am   BACKBONE|DICT|INTERRES
    71   34  159 1    
    72   35   36 2    
    73   35   37 1    
    74   37   38 1    
    75   37   39 1    
    76   37  160 1    
    77   38  161 1    
    78   38  162 1    
    79   38  163 1    
    80   39   40 am   BACKBONE|DICT|INTERRES
    81   39  164 1    
    82   40   41 2    
    83   40   42 1    
    84   42   43 1    
    85   42   44 1    
    86   42  165 1    
    87   43  166 1    
    88   43  167 1    
    89   43  168 1    
    90   44   45 am   BACKBONE|DICT|INTERRES
    91   44  169 1    
    92   45   46 2    
    93   45   47 1    
    94   47   48 1    
    95   47   49 1    
    96   47  170 1    
    97   48  171 1    
    98   48  172 1    
    99   48  173 1    
   100   49   50 am   BACKBONE|DICT|INTERRES
   101   49  174 1    
   102   50   51 2    
   103   50   52 1    
   104   52   53 1    
   105   52   54 1    
   106   52  175 1    
   107   53  176 1    
   108   53  177 1    
   109   53  178 1    
   110   54   55 am   BACKBONE|DICT|INTERRES
   111   54  179 1    
   112   55   56 2    
   113   55   57 1    
   114   57   58 1    
   115   57   59 1    
   116   57  180 1    
   117   58  181 1    
   118   58  182 1    
   119   58  183 1    
   120   59   60 am   BACKBONE|DICT|INTERRES
   121   59  184 1    
   122   60   61 2    
   123   60   62 1    
   124   62   63 1    
   125   62   64 1    
   126   62  185 1    
   127   63  186 1    
   128   63  187 1    
   129   63  188 1    
   130   64   65 am   BACKBONE|DICT|INTERRES
   131   64  189 1    
   132   65   66 2    
   133   67   68 2    
   134   67   69 am   BACKBONE|DICT|INTERRES
   135   69   70 1    
   136   69  190 1    
   137   70   71 1    
   138   70   72 1    
   139   70  191 1    
   140   71  192 1    
   141   71  193 1    
   142   71  194 1    
   143   72   73 2    
   144   72   74 am   BACKBONE|DICT|INTERRES
   145   74   75 1    
   146   74  195 1    
   147   75   76 1    
   148   75   77 1    
   149   75  196 1    
   150   76  197 1    
   151   76  198 1    
   152   76  199 1    
   153   77   78 2    
   154   77   79 am   BACKBONE|DICT|INTERRES
   155   79   80 1    
   156   79  200 1    
   157   80   81 1    
   158   80   82 1    
   159   80  201 1    
   160   81  202 1    
   161   81  203 1    
   162   81  204 1    
   163   82   83 2    
   164   82   84 am   BACKBONE|DICT|INTERRES
   165   84   85 1    
   166   84  205 1    
   167   85   86 1    
   168   85   87 1    
   169   85  206 1    
   170   86  207 1    
   171   86  208 1    
   172   86  209 1    
   173   87   88 2    
   174   87   89 am   BACKBONE|DICT|INTERRES
   175   89   90 1    
   176   89  210 1    
   177   90   91 1    
   178   90   92 1    
   179   90  211 1    
   180   91  212 1    
   181   91  213 1    
   182   91  214 1    
   183   92   93 2    
   184   92   94 am   BACKBONE|DICT|INTERRES
   185   94   95 1    
   186   94  215 1    
   187   95   96 1    
   188   95   97 1    
   189   95  216 1    
   190   96  217 1    
   191   96  218 1    
   192   96  219 1    
   193   97   98 2    
   194   97   99 am   BACKBONE|DICT|INTERRES
   195   99  100 1    
   196   99  220 1    
   197  100  101 1    
   198  100  102 1    
   199  100  221 1    
   200  101  222 1    
   201  101  223 1    
   202  101  224 1    
   203  102  103 2    
   204  102  104 am   BACKBONE|DICT|INTERRES
   205  104  105 1    
   206  104  225 1    
   207  105  106 1    
   208  105  107 1    
   209  105  226 1    
   210  106  227 1    
   211  106  228 1    
   212  106  229 1    
   213  107  108 2    
   214  107  109 am   BACKBONE|DICT|INTERRES
   215  109  110 1    
   216  109  230 1    
   217  110  111 1    
   218  110  112 1    
   219  110  231 1    
   220  111  232 1    
   221  111  233 1    
   222  111  234 1    
   223  112  113 2    
   224  112  114 am   BACKBONE|DICT|INTERRES
   225  114  115 1    
   226  114  235 1    
   227  115  116 1    
   228  115  117 1    
   229  115  236 1    
   230  116  237 1    
   231  116  238 1    
   232  116  239 1    
   233  117  118 2    
   234  117  119 am   BACKBONE|DICT|INTERRES
   235  119  120 1    
   236  119  240 1    
   237  120  121 1    
   238  120  124 1    
   239  120  241 1    
   240  121  122 am   BACKBONE|DICT|INTERRES
   241  121  123 2    
   242  122  242 1    
   243  122  243 1    
   244  124  125 1    
   245  124  244 1    
   246  124  245 1    
   247  125  126 1    
   248  126  246 1    
   249  126  247 1    
@<TRIPOS>SUBSTRUCTURE
     1 UNK         1 GROUP             0       ****    0 ROOT    
