@<TRIPOS>MOLECULE
3R540
247   249    1
SMALL
USER_CHARGES


@<TRIPOS>ATOM
      1 CA         -0.9953  -12.5581  -47.1176 C.3       0 UNK        -0.1800 
      2 C           0.3100  -12.0792  -47.7355 C.2       0 UNK         0.5000 
      3 O           0.3217  -11.0773  -48.4518 O.2       0 UNK        -0.5000 
      4 N           1.4160  -12.7768  -47.4479 N.am      1 UNK        -0.5000 
      5 CA          2.7690  -12.4382  -47.9057 C.3       1 UNK         0.1400 
      6 C6          3.6714  -13.6912  -48.0458 C.3       23 UNK        -0.0398 
      7 S7          3.1029  -14.7873  -49.3906 S.3       23 UNK        -0.2404 
      8 C8          2.2898  -16.1131  -48.4481 C.3       23 UNK        -0.0205 
      9 C9          1.1265  -16.7207  -49.2174 C.ar      23 UNK        -0.0193 
     10 C10        -0.0218  -15.9617  -49.4631 C.ar      23 UNK        -0.1150 
     11 C11        -1.1107  -16.5216  -50.1347 C.ar      23 UNK        -0.0193 
     12 C12        -1.0577  -17.8584  -50.5349 C.ar      23 UNK        -0.1150 
     13 C13         0.0736  -18.6380  -50.2831 C.ar      23 UNK        -0.0193 
     14 C14         1.1762  -18.0504  -49.6468 C.ar      23 UNK        -0.1150 
     15 C15         0.0522  -20.1080  -50.7051 C.3       23 UNK        -0.0205 
     16 S16         1.0755  -21.2354  -49.6968 S.3       23 UNK        -0.2404 
     17 C17         0.5013  -20.8633  -48.0066 C.3       23 UNK        -0.0398 
     18 CA         -0.3219  -21.9897  -47.3480 C.3       11 UNK         0.1400 
     19 N          -0.3077  -21.8461  -45.8926 N.am      11 UNK        -0.5000 
     20 C          -0.7632  -22.7488  -45.0169 C.2       10 UNK         0.5000 
     21 O          -1.2222  -23.8442  -45.3412 O.2       10 UNK        -0.5000 
     22 CA         -0.7384  -22.3305  -43.5342 C.3       10 UNK         0.1400 
     23 CB          0.6682  -22.4967  -42.9403 C.3       10 UNK        -0.1800 
     24 N          -1.1930  -20.9519  -43.3334 N.am      10 UNK        -0.5000 
     25 C          -2.4411  -20.5289  -43.5804 C.2       9 UNK         0.5000 
     26 O          -3.3471  -21.2685  -43.9645 O.2       9 UNK        -0.5000 
     27 CA         -2.7156  -19.0227  -43.4137 C.3       9 UNK         0.1400 
     28 CB         -2.9002  -18.6596  -41.9329 C.3       9 UNK        -0.1800 
     29 N          -1.6719  -18.1818  -44.0015 N.am      9 UNK        -0.5000 
     30 C          -1.3537  -18.1616  -45.3036 C.2       8 UNK         0.5000 
     31 O          -1.9211  -18.8389  -46.1555 O.2       8 UNK        -0.5000 
     32 CA         -0.1641  -17.2833  -45.7227 C.3       8 UNK         0.1400 
     33 CB         -0.5883  -15.8118  -45.8223 C.3       8 UNK        -0.1800 
     34 N           0.9821  -17.4188  -44.8233 N.am      8 UNK        -0.5000 
     35 C           1.6242  -18.5725  -44.5824 C.2       7 UNK         0.5000 
     36 O           1.3478  -19.6403  -45.1253 O.2       7 UNK        -0.5000 
     37 CA          2.7178  -18.5432  -43.5051 C.3       7 UNK         0.1400 
     38 CB          4.0267  -17.9748  -44.0715 C.3       7 UNK        -0.1800 
     39 N           2.2921  -17.7707  -42.3390 N.am      7 UNK        -0.5000 
     40 C           1.3159  -18.1529  -41.5017 C.2       6 UNK         0.5000 
     41 O           0.7191  -19.2271  -41.5888 O.2       6 UNK        -0.5000 
     42 CA          0.9084  -17.1389  -40.4171 C.3       6 UNK         0.1400 
     43 CB          1.8436  -17.2359  -39.2027 C.3       6 UNK        -0.1800 
     44 N           0.9011  -15.7625  -40.9184 N.am      6 UNK        -0.5000 
     45 C           0.0393  -15.2983  -41.8349 C.2       5 UNK         0.5000 
     46 O          -0.8716  -15.9725  -42.3127 O.2       5 UNK        -0.5000 
     47 CA          0.2566  -13.8573  -42.3329 C.3       5 UNK         0.1400 
     48 CB         -0.5209  -12.8586  -41.4643 C.3       5 UNK        -0.1800 
     49 N           1.6679  -13.4715  -42.3653 N.am      5 UNK        -0.5000 
     50 C           2.5937  -13.9978  -43.1760 C.2       4 UNK         0.5000 
     51 O           2.3428  -14.8717  -44.0092 O.2       4 UNK        -0.5000 
     52 CA          4.0291  -13.4569  -43.0046 C.3       4 UNK         0.1400 
     53 CB          5.0372  -14.0992  -43.9722 C.3       4 UNK        -0.1800 
     54 N           4.0881  -11.9997  -43.1450 N.am      4 UNK        -0.5000 
     55 C           3.7913  -11.1223  -42.1743 C.2       3 UNK         0.5000 
     56 O           3.3846  -11.4648  -41.0627 O.2       3 UNK        -0.5000 
     57 CA          3.9659   -9.6203  -42.4748 C.3       3 UNK         0.1400 
     58 CB          5.2692   -9.0989  -41.8501 C.3       3 UNK        -0.1800 
     59 N           3.9675   -9.3003  -43.9018 N.am      3 UNK        -0.5000 
     60 C           2.8874   -9.3231  -44.6922 C.2       2 UNK         0.5000 
     61 O           1.7559   -9.6032  -44.2929 O.2       2 UNK        -0.5000 
     62 CA          3.0970   -8.9981  -46.1859 C.3       2 UNK         0.1400 
     63 CB          4.4935   -8.4298  -46.5283 C.3       2 UNK        -0.1800 
     64 N           2.7955  -10.1613  -47.0220 N.am      2 UNK        -0.5000 
     65 C           3.3683  -11.3722  -46.9658 C.2       1 UNK         0.5000 
     66 O           4.2861  -11.6623  -46.1958 O.2       1 UNK        -0.5000 
     67 C          -1.7604  -22.0595  -47.9038 C.2       11 UNK         0.5000 
     68 O          -2.0336  -22.8863  -48.7732 O.2       11 UNK        -0.5000 
     69 N          -2.6651  -21.2298  -47.3654 N.am      12 UNK        -0.5000 
     70 CA         -4.0904  -21.2207  -47.6864 C.3       12 UNK         0.1400 
     71 CB         -4.7569  -19.9674  -47.1025 C.3       12 UNK        -0.1800 
     72 C          -4.8178  -22.4946  -47.2302 C.2       12 UNK         0.5000 
     73 O          -5.6521  -23.0034  -47.9776 O.2       12 UNK        -0.5000 
     74 N          -4.4595  -23.0237  -46.0514 N.am      13 UNK        -0.5000 
     75 CA         -4.9564  -24.3037  -45.5358 C.3       13 UNK         0.1400 
     76 CB         -4.5020  -24.4871  -44.0801 C.3       13 UNK        -0.1800 
     77 C          -4.5279  -25.5044  -46.4042 C.2       13 UNK         0.5000 
     78 O          -5.3020  -26.4484  -46.5635 O.2       13 UNK        -0.5000 
     79 N          -3.3252  -25.4217  -46.9886 N.am      14 UNK        -0.5000 
     80 CA         -2.8022  -26.3622  -47.9824 C.3       14 UNK         0.1400 
     81 CB         -1.2661  -26.3011  -47.9464 C.3       14 UNK        -0.1800 
     82 C          -3.3172  -26.0885  -49.4133 C.2       14 UNK         0.5000 
     83 O          -2.9936  -26.8541  -50.3231 O.2       14 UNK        -0.5000 
     84 N          -4.0613  -24.9871  -49.6044 N.am      15 UNK        -0.5000 
     85 CA         -4.5736  -24.4470  -50.8693 C.3       15 UNK         0.1400 
     86 CB         -5.7354  -25.3141  -51.3862 C.3       15 UNK        -0.1800 
     87 C          -3.4647  -24.2309  -51.9205 C.2       15 UNK         0.5000 
     88 O          -3.6549  -24.5448  -53.0984 O.2       15 UNK        -0.5000 
     89 N          -2.2956  -23.7737  -51.4436 N.am      16 UNK        -0.5000 
     90 CA         -1.0306  -23.5722  -52.1620 C.3       16 UNK         0.1400 
     91 CB         -1.1788  -22.4264  -53.1826 C.3       16 UNK        -0.1800 
     92 C          -0.4555  -24.8438  -52.8276 C.2       16 UNK         0.5000 
     93 O           0.4506  -24.7304  -53.6541 O.2       16 UNK        -0.5000 
     94 N          -1.0167  -26.0205  -52.5007 N.am      17 UNK        -0.5000 
     95 CA         -0.8714  -27.3018  -53.2022 C.3       17 UNK         0.1400 
     96 CB          0.5630  -27.8515  -53.0605 C.3       17 UNK        -0.1800 
     97 C          -1.3553  -27.2498  -54.6733 C.2       17 UNK         0.5000 
     98 O          -0.9450  -28.0852  -55.4810 O.2       17 UNK        -0.5000 
     99 N          -2.2141  -26.2715  -54.9947 N.am      18 UNK        -0.5000 
    100 CA        -2.7072  -25.9673  -56.3395 C.3       18 UNK         0.1400 
    101 CB        -2.1547  -24.5922  -56.7521 C.3       18 UNK        -0.1800 
    102 C         -4.2455  -25.9700  -56.4132 C.2       18 UNK         0.5000 
    103 O         -4.7913  -25.7695  -57.4989 O.2       18 UNK        -0.5000 
    104 N         -4.9131  -26.1781  -55.2678 N.am      19 UNK        -0.5000 
    105 CA        -6.3635  -26.1208  -55.0550 C.3       19 UNK         0.1400 
    106 CB        -7.1015  -27.1835  -55.8973 C.3       19 UNK        -0.1800 
    107 C         -6.9474  -24.6995  -55.2217 C.2       19 UNK         0.5000 
    108 O         -8.1273  -24.5582  -55.5485 O.2       19 UNK        -0.5000 
    109 N         -6.1262  -23.6708  -54.9736 N.am      20 UNK        -0.5000 
    110 CA        -6.4945  -22.2597  -55.0378 C.3       20 UNK         0.1400 
    111 CB        -6.5626  -21.7862  -56.5014 C.3       20 UNK        -0.1800 
    112 C         -5.4608  -21.4481  -54.2487 C.2       20 UNK         0.5000 
    113 O         -4.2625  -21.6830  -54.4067 O.2       20 UNK        -0.5000 
    114 N         -5.9352  -20.5052  -53.4299 N.am      21 UNK        -0.5000 
    115 CA        -5.1397  -19.6276  -52.5749 C.3       21 UNK         0.1400 
    116 CB        -4.5329  -20.4314  -51.4063 C.3       21 UNK        -0.1800 
    117 C         -6.0359  -18.4859  -52.0628 C.2       21 UNK         0.5000 
    118 O         -7.2309  -18.4563  -52.3703 O.2       21 UNK        -0.5000 
    119 N         -5.4476  -17.5794  -51.2740 N.am      22 UNK        -0.5000 
    120 CA        -6.1219  -16.4542  -50.5995 C.3       22 UNK         0.1400 
    121 C         -7.0744  -16.8401  -49.4256 C.2       22 UNK         0.5000 
    122 N         -7.1611  -18.0993  -49.0163 N.am      22 UNK        -0.7600 
    123 O         -7.7660  -15.9795  -48.8876 O.2       22 UNK        -0.5000 
    124 C124       -5.1118  -15.3476  -50.1843 C.3       23 UNK        -0.0398 
    125 S125       -3.6712  -15.9727  -49.2427 S.3       23 UNK        -0.2404 
    126 C126       -2.3406  -15.6886  -50.4504 C.3       23 UNK        -0.0205 
    127 H127       -1.7098  -11.7373  -47.0523 H         1 UNK         0.0600 
    128 H128       -0.8357  -12.9394  -46.1092 H         1 UNK         0.0600 
    129 H129       -1.4378  -13.3464  -47.7265 H         1 UNK         0.0600 
    130 H130        1.3572  -13.5589  -46.8135 H         1 UNK         0.3000 
    131 H131        2.7058  -11.9791  -48.8951 H         1 UNK         0.0600 
    132 H132        3.7268  -14.2441  -47.1074 H         1 UNK         0.0800 
    133 H133        4.6950  -13.3964  -48.2838 H         1 UNK         0.0800 
    134 H134        3.0303  -16.8721  -48.1915 H         1 UNK         0.0800 
    135 H135        1.9159  -15.7247  -47.5025 H         1 UNK         0.0800 
    136 H136       -0.0610  -14.9319  -49.1383 H         1 UNK         0.1150 
    137 H137       -1.9061  -18.2949  -51.0422 H         1 UNK         0.1150 
    138 H138        2.0644  -18.6348  -49.4548 H         1 UNK         0.1150 
    139 H139       -0.9725  -20.4819  -50.6747 H         1 UNK         0.0800 
    140 H140        0.3789  -20.1755  -51.7432 H         1 UNK         0.0800 
    141 H141       -0.0410  -19.9186  -47.9619 H         1 UNK         0.0800 
    142 H142        1.4149  -20.7002  -47.4353 H         1 UNK         0.0800 
    143 H143        0.1616  -22.9426  -47.5737 H         1 UNK         0.0600 
    144 H144        0.0950  -20.9838  -45.5332 H         1 UNK         0.3000 
    145 H145       -1.4173  -22.9915  -42.9914 H         1 UNK         0.0600 
    146 H146        1.0231  -23.5213  -43.0573 H         1 UNK         0.0600 
    147 H147        1.3917  -21.8400  -43.4246 H         1 UNK         0.0600 
    148 H148        0.6742  -22.2689  -41.8742 H         1 UNK         0.0600 
    149 H149       -0.5069  -20.2859  -42.9958 H         1 UNK         0.3000 
    150 H150       -3.6489  -18.7987  -43.9340 H         1 UNK         0.0600 
    151 H151       -3.6882  -19.2611  -41.4783 H         1 UNK         0.0600 
    152 H152       -3.1818  -17.6129  -41.8168 H         1 UNK         0.0600 
    153 H153       -1.9878  -18.8248  -41.3595 H         1 UNK         0.0600 
    154 H154       -1.1908  -17.5457  -43.3718 H         1 UNK         0.3000 
    155 H155        0.1594  -17.6145  -46.7105 H         1 UNK         0.0600 
    156 H156        0.2610  -15.1639  -46.0282 H         1 UNK         0.0600 
    157 H157       -1.0573  -15.4595  -44.9045 H         1 UNK         0.0600 
    158 H158       -1.3112  -15.6765  -46.6278 H         1 UNK         0.0600 
    159 H159        1.3047  -16.5764  -44.3592 H         1 UNK         0.3000 
    160 H160        2.9045  -19.5697  -43.1820 H         1 UNK         0.0600 
    161 H161        3.8834  -16.9864  -44.5066 H         1 UNK         0.0600 
    162 H162        4.4162  -18.6197  -44.8601 H         1 UNK         0.0600 
    163 H163        4.7955  -17.9004  -43.3023 H         1 UNK         0.0600 
    164 H164        2.7035  -16.8575  -42.2220 H         1 UNK         0.3000 
    165 H165       -0.1033  -17.3888  -40.0904 H         1 UNK         0.0600 
    166 H166        1.5183  -16.5727  -38.4011 H         1 UNK         0.0600 
    167 H167        1.8549  -18.2496  -38.7999 H         1 UNK         0.0600 
    168 H168        2.8705  -16.9734  -39.4603 H         1 UNK         0.0600 
    169 H169        1.6148  -15.1409  -40.5680 H         1 UNK         0.3000 
    170 H170       -0.1309  -13.7960  -43.3517 H         1 UNK         0.0600 
    171 H171       -1.5828  -13.1069  -41.4392 H         1 UNK         0.0600 
    172 H172       -0.1594  -12.8523  -40.4353 H         1 UNK         0.0600 
    173 H173       -0.4337  -11.8451  -41.8568 H         1 UNK         0.0600 
    174 H174        1.9670  -12.7496  -41.7179 H         1 UNK         0.3000 
    175 H175        4.3475  -13.7215  -41.9941 H         1 UNK         0.0600 
    176 H176        6.0290  -13.6617  -43.8576 H         1 UNK         0.0600 
    177 H177        5.1351  -15.1667  -43.7788 H         1 UNK         0.0600 
    178 H178        4.7376  -13.9782  -45.0118 H         1 UNK         0.0600 
    179 H179        4.3431  -11.6513  -44.0628 H         1 UNK         0.3000 
    180 H180        3.1308   -9.0951  -42.0063 H         1 UNK         0.0600 
    181 H181        6.1454   -9.5787  -42.2880 H         1 UNK         0.0600 
    182 H182        5.2925   -9.2902  -40.7764 H         1 UNK         0.0600 
    183 H183        5.3704   -8.0223  -41.9885 H         1 UNK         0.0600 
    184 H184        4.8622   -9.0838  -44.3167 H         1 UNK         0.3000 
    185 H185        2.3599   -8.2343  -46.4377 H         1 UNK         0.0600 
    186 H186        4.7027   -7.5268  -45.9533 H         1 UNK         0.0600 
    187 H187        5.2943   -9.1437  -46.3332 H         1 UNK         0.0600 
    188 H188        4.5508   -8.1558  -47.5818 H         1 UNK         0.0600 
    189 H189        1.9915  -10.0653  -47.6331 H         1 UNK         0.3000 
    190 H190       -2.3512  -20.5143  -46.7124 H         1 UNK         0.3000 
    191 H191       -4.1777  -21.1743  -48.7706 H         1 UNK         0.0600 
    192 H192       -4.3429  -19.0595  -47.5424 H         1 UNK         0.0600 
    193 H193       -5.8291  -19.9661  -47.2993 H         1 UNK         0.0600 
    194 H194       -4.6237  -19.9075  -46.0224 H         1 UNK         0.0600 
    195 H195       -3.8131  -22.5109  -45.4592 H         1 UNK         0.3000 
    196 H196       -6.0476  -24.2640  -45.5457 H         1 UNK         0.0600 
    197 H197       -4.8945  -25.4154  -43.6632 H         1 UNK         0.0600 
    198 H198       -4.8583  -23.6715  -43.4505 H         1 UNK         0.0600 
    199 H199       -3.4162  -24.5237  -43.9962 H         1 UNK         0.0600 
    200 H200       -2.7310  -24.6344  -46.7559 H         1 UNK         0.3000 
    201 H201       -3.1099  -27.3743  -47.7123 H         1 UNK         0.0600 
    202 H202       -0.8862  -26.5228  -46.9488 H         1 UNK         0.0600 
    203 H203       -0.8953  -25.3165  -48.2327 H         1 UNK         0.0600 
    204 H204       -0.8267  -27.0285  -48.6301 H         1 UNK         0.0600 
    205 H205       -4.2678  -24.4206  -48.7917 H         1 UNK         0.3000 
    206 H206       -4.9736  -23.4584  -50.6422 H         1 UNK         0.0600 
    207 H207       -6.4854  -25.4692  -50.6106 H         1 UNK         0.0600 
    208 H208       -6.2352  -24.8262  -52.2221 H         1 UNK         0.0600 
    209 H209       -5.3918  -26.2932  -51.7217 H         1 UNK         0.0600 
    210 H210       -2.2525  -23.5592  -50.4477 H         1 UNK         0.3000 
    211 H211       -0.3037  -23.2654  -51.4102 H         1 UNK         0.0600 
    212 H212       -1.7892  -22.7271  -54.0338 H         1 UNK         0.0600 
    213 H213       -0.2078  -22.1176  -53.5706 H         1 UNK         0.0600 
    214 H214       -1.6451  -21.5487  -52.7377 H         1 UNK         0.0600 
    215 H215       -1.7393  -26.0145  -51.7887 H         1 UNK         0.3000 
    216 H216       -1.5405  -27.9963  -52.6925 H         1 UNK         0.0600 
    217 H217        0.6281  -28.8740  -53.4339 H         1 UNK         0.0600 
    218 H218        0.8768  -27.8684  -52.0168 H         1 UNK         0.0600 
    219 H219        1.2845  -27.2551  -53.6192 H         1 UNK         0.0600 
    220 H220       -2.5094  -25.6293  -54.2645 H         1 UNK         0.3000 
    221 H221       -2.3542  -26.7122  -57.0552 H         1 UNK         0.0600 
    222 H222       -2.5340  -23.7992  -56.1060 H         1 UNK         0.0600 
    223 H223       -1.0658  -24.5728  -56.7020 H         1 UNK         0.0600 
    224 H224       -2.4377  -24.3450  -57.7760 H         1 UNK         0.0600 
    225 H225       -4.3606  -26.2822  -54.4278 H         1 UNK         0.3000 
    226 H226       -6.5200  -26.3864  -54.0099 H         1 UNK         0.0600 
    227 H227       -6.6546  -28.1693  -55.7689 H         1 UNK         0.0600 
    228 H228       -8.1468  -27.2616  -55.5964 H         1 UNK         0.0600 
    229 H229       -7.0884  -26.9435  -56.9606 H         1 UNK         0.0600 
    230 H230       -5.1753  -23.8508  -54.6671 H         1 UNK         0.3000 
    231 H231       -7.4736  -22.1290  -54.5718 H         1 UNK         0.0600 
    232 H232       -5.6136  -21.9428  -57.0160 H         1 UNK         0.0600 
    233 H233       -6.7968  -20.7225  -56.5573 H         1 UNK         0.0600 
    234 H234       -7.3353  -22.3171  -57.0575 H         1 UNK         0.0600 
    235 H235       -6.9294  -20.3137  -53.3882 H         1 UNK         0.3000 
    236 H236       -4.3386  -19.1844  -53.1700 H         1 UNK         0.0600 
    237 H237       -3.8647  -21.2134  -51.7633 H         1 UNK         0.0600 
    238 H238       -3.9435  -19.7974  -50.7437 H         1 UNK         0.0600 
    239 H239       -5.3127  -20.9064  -50.8104 H         1 UNK         0.0600 
    240 H240       -4.4706  -17.6833  -51.0449 H         1 UNK         0.3000 
    241 H241       -6.7825  -16.0034  -51.3425 H         1 UNK         0.0600 
    242 H242       -7.7924  -18.3300  -48.2658 H         1 UNK         0.3800 
    243 H243       -6.6213  -18.8202  -49.4625 H         1 UNK         0.3800 
    244 H244       -4.7601  -14.8358  -51.0808 H         1 UNK         0.0800 
    245 H245       -5.5991  -14.5696  -49.5940 H         1 UNK         0.0800 
    246 H246       -2.0910  -14.6264  -50.4670 H         1 UNK         0.0800 
    247 H247       -2.6881  -15.9383  -51.4541 H         1 UNK         0.0800 
@<TRIPOS>BOND
     1    1    2 1    
     2    1  127 1    
     3    1  128 1    
     4    1  129 1    
     5    2    3 2    
     6    2    4 am   BACKBONE|DICT|INTERRES
     7    4    5 1    
     8    4  130 1    
     9    5    6 1    
    10    5   65 1    
    11    5  131 1    
    12    6    7 1    
    13    6  132 1    
    14    6  133 1    
    15    7    8 1    
    16    8    9 1    
    17    8  134 1    
    18    8  135 1    
    19    9   10 ar   
    20    9   14 ar   
    21   10   11 ar   
    22   10  136 1    
    23   11   12 ar   
    24   11  126 1    
    25   12   13 ar   
    26   12  137 1    
    27   13   14 ar   
    28   13   15 1    
    29   14  138 1    
    30   15   16 1    
    31   15  139 1    
    32   15  140 1    
    33   16   17 1    
    34   17   18 1    
    35   17  141 1    
    36   17  142 1    
    37   18   19 1    
    38   18   67 1    
    39   18  143 1    
    40   19   20 am   BACKBONE|DICT|INTERRES
    41   19  144 1    
    42   20   21 2    
    43   20   22 1    
    44   22   23 1    
    45   22   24 1    
    46   22  145 1    
    47   23  146 1    
    48   23  147 1    
    49   23  148 1    
    50   24   25 am   BACKBONE|DICT|INTERRES
    51   24  149 1    
    52   25   26 2    
    53   25   27 1    
    54   27   28 1    
    55   27   29 1    
    56   27  150 1    
    57   28  151 1    
    58   28  152 1    
    59   28  153 1    
    60   29   30 am   BACKBONE|DICT|INTERRES
    61   29  154 1    
    62   30   31 2    
    63   30   32 1    
    64   32   33 1    
    65   32   34 1    
    66   32  155 1    
    67   33  156 1    
    68   33  157 1    
    69   33  158 1    
    70   34   35 am   BACKBONE|DICT|INTERRES
    71   34  159 1    
    72   35   36 2    
    73   35   37 1    
    74   37   38 1    
    75   37   39 1    
    76   37  160 1    
    77   38  161 1    
    78   38  162 1    
    79   38  163 1    
    80   39   40 am   BACKBONE|DICT|INTERRES
    81   39  164 1    
    82   40   41 2    
    83   40   42 1    
    84   42   43 1    
    85   42   44 1    
    86   42  165 1    
    87   43  166 1    
    88   43  167 1    
    89   43  168 1    
    90   44   45 am   BACKBONE|DICT|INTERRES
    91   44  169 1    
    92   45   46 2    
    93   45   47 1    
    94   47   48 1    
    95   47   49 1    
    96   47  170 1    
    97   48  171 1    
    98   48  172 1    
    99   48  173 1    
   100   49   50 am   BACKBONE|DICT|INTERRES
   101   49  174 1    
   102   50   51 2    
   103   50   52 1    
   104   52   53 1    
   105   52   54 1    
   106   52  175 1    
   107   53  176 1    
   108   53  177 1    
   109   53  178 1    
   110   54   55 am   BACKBONE|DICT|INTERRES
   111   54  179 1    
   112   55   56 2    
   113   55   57 1    
   114   57   58 1    
   115   57   59 1    
   116   57  180 1    
   117   58  181 1    
   118   58  182 1    
   119   58  183 1    
   120   59   60 am   BACKBONE|DICT|INTERRES
   121   59  184 1    
   122   60   61 2    
   123   60   62 1    
   124   62   63 1    
   125   62   64 1    
   126   62  185 1    
   127   63  186 1    
   128   63  187 1    
   129   63  188 1    
   130   64   65 am   BACKBONE|DICT|INTERRES
   131   64  189 1    
   132   65   66 2    
   133   67   68 2    
   134   67   69 am   BACKBONE|DICT|INTERRES
   135   69   70 1    
   136   69  190 1    
   137   70   71 1    
   138   70   72 1    
   139   70  191 1    
   140   71  192 1    
   141   71  193 1    
   142   71  194 1    
   143   72   73 2    
   144   72   74 am   BACKBONE|DICT|INTERRES
   145   74   75 1    
   146   74  195 1    
   147   75   76 1    
   148   75   77 1    
   149   75  196 1    
   150   76  197 1    
   151   76  198 1    
   152   76  199 1    
   153   77   78 2    
   154   77   79 am   BACKBONE|DICT|INTERRES
   155   79   80 1    
   156   79  200 1    
   157   80   81 1    
   158   80   82 1    
   159   80  201 1    
   160   81  202 1    
   161   81  203 1    
   162   81  204 1    
   163   82   83 2    
   164   82   84 am   BACKBONE|DICT|INTERRES
   165   84   85 1    
   166   84  205 1    
   167   85   86 1    
   168   85   87 1    
   169   85  206 1    
   170   86  207 1    
   171   86  208 1    
   172   86  209 1    
   173   87   88 2    
   174   87   89 am   BACKBONE|DICT|INTERRES
   175   89   90 1    
   176   89  210 1    
   177   90   91 1    
   178   90   92 1    
   179   90  211 1    
   180   91  212 1    
   181   91  213 1    
   182   91  214 1    
   183   92   93 2    
   184   92   94 am   BACKBONE|DICT|INTERRES
   185   94   95 1    
   186   94  215 1    
   187   95   96 1    
   188   95   97 1    
   189   95  216 1    
   190   96  217 1    
   191   96  218 1    
   192   96  219 1    
   193   97   98 2    
   194   97   99 am   BACKBONE|DICT|INTERRES
   195   99  100 1    
   196   99  220 1    
   197  100  101 1    
   198  100  102 1    
   199  100  221 1    
   200  101  222 1    
   201  101  223 1    
   202  101  224 1    
   203  102  103 2    
   204  102  104 am   BACKBONE|DICT|INTERRES
   205  104  105 1    
   206  104  225 1    
   207  105  106 1    
   208  105  107 1    
   209  105  226 1    
   210  106  227 1    
   211  106  228 1    
   212  106  229 1    
   213  107  108 2    
   214  107  109 am   BACKBONE|DICT|INTERRES
   215  109  110 1    
   216  109  230 1    
   217  110  111 1    
   218  110  112 1    
   219  110  231 1    
   220  111  232 1    
   221  111  233 1    
   222  111  234 1    
   223  112  113 2    
   224  112  114 am   BACKBONE|DICT|INTERRES
   225  114  115 1    
   226  114  235 1    
   227  115  116 1    
   228  115  117 1    
   229  115  236 1    
   230  116  237 1    
   231  116  238 1    
   232  116  239 1    
   233  117  118 2    
   234  117  119 am   BACKBONE|DICT|INTERRES
   235  119  120 1    
   236  119  240 1    
   237  120  121 1    
   238  120  124 1    
   239  120  241 1    
   240  121  122 am   BACKBONE|DICT|INTERRES
   241  121  123 2    
   242  122  242 1    
   243  122  243 1    
   244  124  125 1    
   245  124  244 1    
   246  124  245 1    
   247  125  126 1    
   248  126  246 1    
   249  126  247 1    
@<TRIPOS>SUBSTRUCTURE
     1 UNK         1 GROUP             0       ****    0 ROOT    
