@<TRIPOS>MOLECULE
3R540
247   249    1
SMALL
USER_CHARGES


@<TRIPOS>ATOM
      1 CA         -3.6172   -9.4338  -52.1484 C.3       0 UNK        -0.1800 
      2 C          -2.3008  -10.0056  -51.6405 C.2       0 UNK         0.5000 
      3 O          -1.2350   -9.5052  -52.0020 O.2       0 UNK        -0.5000 
      4 N          -2.3722  -11.0533  -50.8118 N.am      1 UNK        -0.5000 
      5 CA         -1.2233  -11.6898  -50.1618 C.3       1 UNK         0.1400 
      6 C6         -1.5404  -13.1559  -49.7665 C.3       23 UNK        -0.0398 
      7 S7         -2.8480  -13.3461  -48.5006 S.3       23 UNK        -0.2404 
      8 C8         -4.1754  -14.1685  -49.4398 C.3       23 UNK        -0.0205 
      9 C9         -3.7801  -15.5625  -49.9082 C.ar      23 UNK        -0.0193 
     10 C10        -3.7668  -15.8718  -51.2715 C.ar      23 UNK        -0.1150 
     11 C11        -3.4121  -17.1527  -51.7049 C.ar      23 UNK        -0.0193 
     12 C12        -3.0695  -18.1282  -50.7635 C.ar      23 UNK        -0.1150 
     13 C13        -3.0608  -17.8251  -49.4002 C.ar      23 UNK        -0.0193 
     14 C14        -3.4306  -16.5455  -48.9782 C.ar      23 UNK        -0.1150 
     15 C15        -2.6296  -18.8663  -48.3828 C.3       23 UNK        -0.0205 
     16 S16        -3.9367  -20.0901  -48.0866 S.3       23 UNK        -0.2404 
     17 C17        -3.3355  -20.8694  -46.5541 C.3       23 UNK        -0.0398 
     18 CA         -2.6390  -22.2344  -46.8087 C.3       11 UNK         0.1400 
     19 N          -1.1780  -22.1590  -46.6930 N.am      11 UNK        -0.5000 
     20 C          -0.3295  -23.1706  -46.9339 C.2       10 UNK         0.5000 
     21 O          -0.6812  -24.2682  -47.3598 O.2       10 UNK        -0.5000 
     22 CA          1.1497  -22.9492  -46.5706 C.3       10 UNK         0.1400 
     23 CB          1.8710  -22.1424  -47.6571 C.3       10 UNK        -0.1800 
     24 N           1.3017  -22.2960  -45.2702 N.am      10 UNK        -0.5000 
     25 C           0.9140  -22.8415  -44.1078 C.2       9 UNK         0.5000 
     26 O           0.4675  -23.9842  -44.0054 O.2       9 UNK        -0.5000 
     27 CA          0.9815  -21.9425  -42.8616 C.3       9 UNK         0.1400 
     28 CB          2.3677  -22.0120  -42.2039 C.3       9 UNK        -0.1800 
     29 N           0.6471  -20.5522  -43.1726 N.am      9 UNK        -0.5000 
     30 C          -0.5848  -20.1251  -43.4853 C.2       8 UNK         0.5000 
     31 O          -1.5761  -20.8561  -43.5071 O.2       8 UNK        -0.5000 
     32 CA         -0.7183  -18.6438  -43.8896 C.3       8 UNK         0.1400 
     33 CB         -0.7659  -17.7488  -42.6437 C.3       8 UNK        -0.1800 
     34 N           0.3644  -18.1969  -44.7697 N.am      8 UNK        -0.5000 
     35 C           0.5873  -18.6895  -45.9982 C.2       7 UNK         0.5000 
     36 O          -0.1386  -19.5248  -46.5317 O.2       7 UNK        -0.5000 
     37 CA          1.8589  -18.2295  -46.7391 C.3       7 UNK         0.1400 
     38 CB          1.5494  -17.0250  -47.6420 C.3       7 UNK        -0.1800 
     39 N           2.9665  -17.8972  -45.8448 N.am      7 UNK        -0.5000 
     40 C           3.4966  -18.7180  -44.9262 C.2       6 UNK         0.5000 
     41 O           3.1957  -19.9085  -44.8320 O.2       6 UNK        -0.5000 
     42 CA          4.4745  -18.1009  -43.9027 C.3       6 UNK         0.1400 
     43 CB          5.9038  -18.6008  -44.1605 C.3       6 UNK        -0.1800 
     44 N           4.4851  -16.6317  -43.8604 N.am      6 UNK        -0.5000 
     45 C           3.4394  -15.8337  -43.5969 C.2       5 UNK         0.5000 
     46 O           2.3026  -16.2535  -43.3623 O.2       5 UNK        -0.5000 
     47 CA          3.7167  -14.3207  -43.7037 C.3       5 UNK         0.1400 
     48 CB          4.0655  -13.9361  -45.1522 C.3       5 UNK        -0.1800 
     49 N           2.5802  -13.5045  -43.2834 N.am      5 UNK        -0.5000 
     50 C           2.1789  -13.3111  -42.0209 C.2       4 UNK         0.5000 
     51 O           2.7565  -13.7829  -41.0402 O.2       4 UNK        -0.5000 
     52 CA          0.9421  -12.4127  -41.8154 C.3       4 UNK         0.1400 
     53 CB          1.3581  -11.0527  -41.2327 C.3       4 UNK        -0.1800 
     54 N           0.1953  -12.1768  -43.0540 N.am      4 UNK        -0.5000 
     55 C          -0.7184  -13.0018  -43.5749 C.2       3 UNK         0.5000 
     56 O          -1.0595  -14.0561  -43.0409 O.2       3 UNK        -0.5000 
     57 CA         -1.3593  -12.5987  -44.9187 C.3       3 UNK         0.1400 
     58 CB         -2.5374  -11.6312  -44.7008 C.3       3 UNK        -0.1800 
     59 N          -0.4337  -12.0805  -45.9380 N.am      3 UNK        -0.5000 
     60 C           0.2897  -10.9494  -45.9452 C.2       2 UNK         0.5000 
     61 O           0.3686  -10.1745  -44.9915 O.2       2 UNK        -0.5000 
     62 CA          1.0632  -10.6288  -47.2419 C.3       2 UNK         0.1400 
     63 CB          2.5203  -11.0996  -47.1272 C.3       2 UNK        -0.1800 
     64 N           0.4654  -11.2209  -48.4436 N.am      2 UNK        -0.5000 
     65 C          -0.7162  -10.8558  -48.9615 C.2       1 UNK         0.5000 
     66 O          -1.3993   -9.9339  -48.5058 O.2       1 UNK        -0.5000 
     67 C          -3.2300  -23.3224  -45.8933 C.2       11 UNK         0.5000 
     68 O          -4.0616  -24.1015  -46.3551 O.2       11 UNK        -0.5000 
     69 N          -2.7823  -23.3784  -44.6312 N.am      12 UNK        -0.5000 
     70 CA         -3.2056  -24.3896  -43.6600 C.3       12 UNK         0.1400 
     71 CB         -2.6291  -24.0555  -42.2761 C.3       12 UNK        -0.1800 
     72 C          -2.8339  -25.8233  -44.0870 C.2       12 UNK         0.5000 
     73 O          -3.6600  -26.7269  -43.9556 O.2       12 UNK        -0.5000 
     74 N          -1.6188  -25.9967  -44.6249 N.am      13 UNK        -0.5000 
     75 CA         -1.1201  -27.2640  -45.1600 C.3       13 UNK         0.1400 
     76 CB          0.3951  -27.1560  -45.3906 C.3       13 UNK        -0.1800 
     77 C          -1.8395  -27.6978  -46.4523 C.2       13 UNK         0.5000 
     78 O          -2.1741  -28.8743  -46.5957 O.2       13 UNK        -0.5000 
     79 N          -2.0684  -26.7442  -47.3648 N.am      14 UNK        -0.5000 
     80 CA         -2.6991  -26.9624  -48.6696 C.3       14 UNK         0.1400 
     81 CB         -2.2712  -25.8308  -49.6172 C.3       14 UNK        -0.1800 
     82 C          -4.2374  -27.0596  -48.6174 C.2       14 UNK         0.5000 
     83 O          -4.8452  -27.3877  -49.6366 O.2       14 UNK        -0.5000 
     84 N          -4.8352  -26.7538  -47.4571 N.am      15 UNK        -0.5000 
     85 CA         -6.2747  -26.6675  -47.1895 C.3       15 UNK         0.1400 
     86 CB         -6.9647  -28.0366  -47.3670 C.3       15 UNK        -0.1800 
     87 C          -6.9459  -25.5277  -47.9856 C.2       15 UNK         0.5000 
     88 O          -7.9891  -25.7284  -48.6103 O.2       15 UNK        -0.5000 
     89 N          -6.3167  -24.3452  -47.9271 N.am      16 UNK        -0.5000 
     90 CA         -6.7261  -23.0697  -48.5221 C.3       16 UNK         0.1400 
     91 CB         -8.0057  -22.5397  -47.8428 C.3       16 UNK        -0.1800 
     92 C          -6.8262  -23.1181  -50.0602 C.2       16 UNK         0.5000 
     93 O          -7.7932  -22.6158  -50.6375 O.2       16 UNK        -0.5000 
     94 N          -5.8213  -23.7344  -50.6974 N.am      17 UNK        -0.5000 
     95 CA         -5.6943  -23.8233  -52.1518 C.3       17 UNK         0.1400 
     96 CB         -4.5600  -24.7982  -52.5024 C.3       17 UNK        -0.1800 
     97 C          -5.4363  -22.4501  -52.8012 C.2       17 UNK         0.5000 
     98 O          -4.7758  -21.5949  -52.2072 O.2       17 UNK        -0.5000 
     99 N          -5.9148  -22.2907  -54.0411 N.am      18 UNK        -0.5000 
    100 CA        -5.8178  -21.0634  -54.8398 C.3       18 UNK         0.1400 
    101 CB        -6.7697  -21.1879  -56.0407 C.3       18 UNK        -0.1800 
    102 C         -4.3915  -20.7074  -55.3130 C.2       18 UNK         0.5000 
    103 O         -4.1966  -19.6209  -55.8583 O.2       18 UNK        -0.5000 
    104 N         -3.4313  -21.6162  -55.1092 N.am      19 UNK        -0.5000 
    105 CA        -2.0176  -21.4479  -55.4338 C.3       19 UNK         0.1400 
    106 CB        -1.7358  -22.0571  -56.8204 C.3       19 UNK        -0.1800 
    107 C         -1.1373  -22.0443  -54.3187 C.2       19 UNK         0.5000 
    108 O         -0.0957  -22.6319  -54.6140 O.2       19 UNK        -0.5000 
    109 N         -1.5778  -21.9134  -53.0556 N.am      20 UNK        -0.5000 
    110 CA        -0.8911  -22.4548  -51.8760 C.3       20 UNK         0.1400 
    111 CB        -1.7684  -22.2579  -50.6302 C.3       20 UNK        -0.1800 
    112 C          0.5069  -21.8496  -51.6396 C.2       20 UNK         0.5000 
    113 O          1.4325  -22.5815  -51.2896 O.2       20 UNK        -0.5000 
    114 N          0.6282  -20.5345  -51.8558 N.am      21 UNK        -0.5000 
    115 CA         1.8587  -19.7497  -51.7546 C.3       21 UNK         0.1400 
    116 CB         2.4004  -19.7164  -50.3116 C.3       21 UNK        -0.1800 
    117 C          1.5656  -18.3327  -52.2556 C.2       21 UNK         0.5000 
    118 O          2.2079  -17.8656  -53.1957 O.2       21 UNK        -0.5000 
    119 N          0.5548  -17.7077  -51.6367 N.am      22 UNK        -0.5000 
    120 CA        -0.0572  -16.4258  -52.0303 C.3       22 UNK         0.1400 
    121 C          0.8387  -15.1654  -51.8345 C.2       22 UNK         0.5000 
    122 N          1.9508  -15.2485  -51.1153 N.am      22 UNK        -0.7600 
    123 O          0.5028  -14.0831  -52.3062 O.2       22 UNK        -0.5000 
    124 C124       -0.7267  -16.4677  -53.4374 C.3       23 UNK        -0.0398 
    125 S125       -1.7195  -17.9744  -53.7495 S.3       23 UNK        -0.2404 
    126 C126       -3.3800  -17.4779  -53.1901 C.3       23 UNK        -0.0205 
    127 H127       -3.6514   -9.4792  -53.2369 H         1 UNK         0.0600 
    128 H128       -3.7145   -8.3911  -51.8460 H         1 UNK         0.0600 
    129 H129       -4.4751   -9.9823  -51.7584 H         1 UNK         0.0600 
    130 H130       -3.2759  -11.3863  -50.5098 H         1 UNK         0.3000 
    131 H131       -0.4081  -11.7234  -50.8881 H         1 UNK         0.0600 
    132 H132       -0.6426  -13.6535  -49.3973 H         1 UNK         0.0800 
    133 H133       -1.8188  -13.7099  -50.6633 H         1 UNK         0.0800 
    134 H134       -4.4621  -13.5382  -50.2828 H         1 UNK         0.0800 
    135 H135       -5.0574  -14.2495  -48.8033 H         1 UNK         0.0800 
    136 H136       -4.0303  -15.1143  -51.9962 H         1 UNK         0.1150 
    137 H137       -2.7963  -19.1190  -51.0964 H         1 UNK         0.1150 
    138 H138       -3.4337  -16.3060  -47.9240 H         1 UNK         0.1150 
    139 H139       -1.7277  -19.3742  -48.7269 H         1 UNK         0.0800 
    140 H140       -2.3699  -18.3745  -47.4445 H         1 UNK         0.0800 
    141 H141       -4.2148  -20.9680  -45.9139 H         1 UNK         0.0800 
    142 H142       -2.6814  -20.1862  -46.0132 H         1 UNK         0.0800 
    143 H143       -2.8525  -22.5592  -47.8289 H         1 UNK         0.0600 
    144 H144       -0.7923  -21.2611  -46.4114 H         1 UNK         0.3000 
    145 H145        1.6297  -23.9278  -46.5045 H         1 UNK         0.0600 
    146 H146        2.8958  -21.9075  -47.3690 H         1 UNK         0.0600 
    147 H147        1.9150  -22.7094  -48.5872 H         1 UNK         0.0600 
    148 H148        1.3570  -21.2082  -47.8747 H         1 UNK         0.0600 
    149 H149        1.7029  -21.3656  -45.2587 H         1 UNK         0.3000 
    150 H150        0.2494  -22.3151  -42.1421 H         1 UNK         0.0600 
    151 H151        2.6065  -23.0355  -41.9124 H         1 UNK         0.0600 
    152 H152        2.4082  -21.4001  -41.3027 H         1 UNK         0.0600 
    153 H153        3.1561  -21.6730  -42.8759 H         1 UNK         0.0600 
    154 H154        1.4198  -19.9060  -43.2447 H         1 UNK         0.3000 
    155 H155       -1.6605  -18.5276  -44.4288 H         1 UNK         0.0600 
    156 H156        0.1665  -17.7907  -42.0793 H         1 UNK         0.0600 
    157 H157       -1.5722  -18.0506  -41.9740 H         1 UNK         0.0600 
    158 H158       -0.9424  -16.7091  -42.9166 H         1 UNK         0.0600 
    159 H159        1.0113  -17.5158  -44.3847 H         1 UNK         0.3000 
    160 H160        2.1925  -19.0569  -47.3653 H         1 UNK         0.0600 
    161 H161        1.2522  -16.1518  -47.0598 H         1 UNK         0.0600 
    162 H162        0.7350  -17.2510  -48.3320 H         1 UNK         0.0600 
    163 H163        2.4162  -16.7494  -48.2427 H         1 UNK         0.0600 
    164 H164        3.2749  -16.9373  -45.8469 H         1 UNK         0.3000 
    165 H165        4.1620  -18.4530  -42.9177 H         1 UNK         0.0600 
    166 H166        6.5891  -18.2563  -43.3859 H         1 UNK         0.0600 
    167 H167        5.9435  -19.6911  -44.1637 H         1 UNK         0.0600 
    168 H168        6.2822  -18.2560  -45.1236 H         1 UNK         0.0600 
    169 H169        5.3759  -16.1993  -44.0594 H         1 UNK         0.3000 
    170 H170        4.5681  -14.0858  -43.0616 H         1 UNK         0.0600 
    171 H171        4.9626  -14.4497  -45.4993 H         1 UNK         0.0600 
    172 H172        3.2570  -14.1876  -45.8399 H         1 UNK         0.0600 
    173 H173        4.2610  -12.8671  -45.2381 H         1 UNK         0.0600 
    174 H174        2.0166  -13.1028  -44.0160 H         1 UNK         0.3000 
    175 H175        0.2910  -12.9094  -41.0930 H         1 UNK         0.0600 
    176 H176        2.0103  -10.5061  -41.9151 H         1 UNK         0.0600 
    177 H177        0.4876  -10.4287  -41.0293 H         1 UNK         0.0600 
    178 H178        1.8952  -11.1762  -40.2914 H         1 UNK         0.0600 
    179 H179        0.3948  -11.3191  -43.5646 H         1 UNK         0.3000 
    180 H180       -1.7721  -13.5141  -45.3462 H         1 UNK         0.0600 
    181 H181       -3.0463  -11.4156  -45.6407 H         1 UNK         0.0600 
    182 H182       -2.2132  -10.6837  -44.2698 H         1 UNK         0.0600 
    183 H183       -3.2751  -12.0624  -44.0229 H         1 UNK         0.0600 
    184 H184       -0.3937  -12.6381  -46.7785 H         1 UNK         0.3000 
    185 H185        1.0636   -9.5432  -47.3602 H         1 UNK         0.0600 
    186 H186        3.1099  -10.7659  -47.9813 H         1 UNK         0.0600 
    187 H187        2.9950  -10.6985  -46.2305 H         1 UNK         0.0600 
    188 H188        2.5871  -12.1863  -47.0792 H         1 UNK         0.0600 
    189 H189        0.9875  -11.9660  -48.8814 H         1 UNK         0.3000 
    190 H190       -2.1318  -22.6709  -44.3065 H         1 UNK         0.3000 
    191 H191       -4.2942  -24.3395  -43.5899 H         1 UNK         0.0600 
    192 H192       -2.9927  -24.7570  -41.5244 H         1 UNK         0.0600 
    193 H193       -2.9222  -23.0550  -41.9572 H         1 UNK         0.0600 
    194 H194       -1.5407  -24.1038  -42.2673 H         1 UNK         0.0600 
    195 H195       -0.9820  -25.2062  -44.6535 H         1 UNK         0.3000 
    196 H196       -1.2920  -28.0376  -44.4087 H         1 UNK         0.0600 
    197 H197        0.6386  -26.3785  -46.1153 H         1 UNK         0.0600 
    198 H198        0.9184  -26.9218  -44.4633 H         1 UNK         0.0600 
    199 H199        0.8017  -28.0956  -45.7665 H         1 UNK         0.0600 
    200 H200       -1.7060  -25.8081  -47.1953 H         1 UNK         0.3000 
    201 H201       -2.3281  -27.9037  -49.0800 H         1 UNK         0.0600 
    202 H202       -2.6647  -24.8675  -49.2912 H         1 UNK         0.0600 
    203 H203       -2.6300  -26.0140  -50.6294 H         1 UNK         0.0600 
    204 H204       -1.1856  -25.7484  -49.6728 H         1 UNK         0.0600 
    205 H205       -4.2363  -26.4384  -46.7052 H         1 UNK         0.3000 
    206 H206       -6.3660  -26.3941  -46.1371 H         1 UNK         0.0600 
    207 H207       -6.4643  -28.8082  -46.7819 H         1 UNK         0.0600 
    208 H208       -8.0010  -27.9948  -47.0302 H         1 UNK         0.0600 
    209 H209       -6.9752  -28.3586  -48.4085 H         1 UNK         0.0600 
    210 H210       -5.4605  -24.3061  -47.3734 H         1 UNK         0.3000 
    211 H211       -5.9255  -22.3644  -48.2977 H         1 UNK         0.0600 
    212 H212       -8.2457  -21.5348  -48.1924 H         1 UNK         0.0600 
    213 H213       -7.8828  -22.4844  -46.7612 H         1 UNK         0.0600 
    214 H214       -8.8679  -23.1738  -48.0512 H         1 UNK         0.0600 
    215 H215       -5.0712  -24.1262  -50.1500 H         1 UNK         0.3000 
    216 H216       -6.6306  -24.2265  -52.5435 H         1 UNK         0.0600 
    217 H217       -3.5901  -24.4275  -52.1713 H         1 UNK         0.0600 
    218 H218       -4.4972  -24.9538  -53.5800 H         1 UNK         0.0600 
    219 H219       -4.7234  -25.7746  -52.0457 H         1 UNK         0.0600 
    220 H220       -6.4220  -23.0532  -54.4673 H         1 UNK         0.3000 
    221 H221       -6.1606  -20.2332  -54.2187 H         1 UNK         0.0600 
    222 H222       -7.7964  -21.3576  -55.7156 H         1 UNK         0.0600 
    223 H223       -6.4830  -22.0109  -56.6965 H         1 UNK         0.0600 
    224 H224       -6.7692  -20.2761  -56.6397 H         1 UNK         0.0600 
    225 H225       -3.6828  -22.4815  -54.6541 H         1 UNK         0.3000 
    226 H226       -1.7714  -20.3858  -55.4763 H         1 UNK         0.0600 
    227 H227       -1.9285  -23.1304  -56.8327 H         1 UNK         0.0600 
    228 H228       -2.3590  -21.5959  -57.5867 H         1 UNK         0.0600 
    229 H229       -0.6971  -21.9031  -57.1151 H         1 UNK         0.0600 
    230 H230       -2.4538  -21.4341  -52.8912 H         1 UNK         0.3000 
    231 H231       -0.7638  -23.5282  -52.0317 H         1 UNK         0.0600 
    232 H232       -1.9496  -21.2038  -50.4245 H         1 UNK         0.0600 
    233 H233       -1.2870  -22.6843  -49.7503 H         1 UNK         0.0600 
    234 H234       -2.7359  -22.7457  -50.7370 H         1 UNK         0.0600 
    235 H235       -0.1763  -20.0321  -52.2063 H         1 UNK         0.3000 
    236 H236        2.6116  -20.1925  -52.4097 H         1 UNK         0.0600 
    237 H237        2.8103  -20.6822  -50.0190 H         1 UNK         0.0600 
    238 H238        3.2041  -18.9865  -50.2063 H         1 UNK         0.0600 
    239 H239        1.6176  -19.4547  -49.6006 H         1 UNK         0.0600 
    240 H240        0.1109  -18.1718  -50.8590 H         1 UNK         0.3000 
    241 H241       -0.8539  -16.2747  -51.3040 H         1 UNK         0.0600 
    242 H242        2.5266  -14.4305  -50.9977 H         1 UNK         0.3800 
    243 H243        2.2484  -16.1315  -50.7360 H         1 UNK         0.3800 
    244 H244        0.0381  -16.4153  -54.2136 H         1 UNK         0.0800 
    245 H245       -1.3615  -15.5922  -53.5832 H         1 UNK         0.0800 
    246 H246       -3.7221  -16.6323  -53.7886 H         1 UNK         0.0800 
    247 H247       -4.0767  -18.2940  -53.3830 H         1 UNK         0.0800 
@<TRIPOS>BOND
     1    1    2 1    
     2    1  127 1    
     3    1  128 1    
     4    1  129 1    
     5    2    3 2    
     6    2    4 am   BACKBONE|DICT|INTERRES
     7    4    5 1    
     8    4  130 1    
     9    5    6 1    
    10    5   65 1    
    11    5  131 1    
    12    6    7 1    
    13    6  132 1    
    14    6  133 1    
    15    7    8 1    
    16    8    9 1    
    17    8  134 1    
    18    8  135 1    
    19    9   10 ar   
    20    9   14 ar   
    21   10   11 ar   
    22   10  136 1    
    23   11   12 ar   
    24   11  126 1    
    25   12   13 ar   
    26   12  137 1    
    27   13   14 ar   
    28   13   15 1    
    29   14  138 1    
    30   15   16 1    
    31   15  139 1    
    32   15  140 1    
    33   16   17 1    
    34   17   18 1    
    35   17  141 1    
    36   17  142 1    
    37   18   19 1    
    38   18   67 1    
    39   18  143 1    
    40   19   20 am   BACKBONE|DICT|INTERRES
    41   19  144 1    
    42   20   21 2    
    43   20   22 1    
    44   22   23 1    
    45   22   24 1    
    46   22  145 1    
    47   23  146 1    
    48   23  147 1    
    49   23  148 1    
    50   24   25 am   BACKBONE|DICT|INTERRES
    51   24  149 1    
    52   25   26 2    
    53   25   27 1    
    54   27   28 1    
    55   27   29 1    
    56   27  150 1    
    57   28  151 1    
    58   28  152 1    
    59   28  153 1    
    60   29   30 am   BACKBONE|DICT|INTERRES
    61   29  154 1    
    62   30   31 2    
    63   30   32 1    
    64   32   33 1    
    65   32   34 1    
    66   32  155 1    
    67   33  156 1    
    68   33  157 1    
    69   33  158 1    
    70   34   35 am   BACKBONE|DICT|INTERRES
    71   34  159 1    
    72   35   36 2    
    73   35   37 1    
    74   37   38 1    
    75   37   39 1    
    76   37  160 1    
    77   38  161 1    
    78   38  162 1    
    79   38  163 1    
    80   39   40 am   BACKBONE|DICT|INTERRES
    81   39  164 1    
    82   40   41 2    
    83   40   42 1    
    84   42   43 1    
    85   42   44 1    
    86   42  165 1    
    87   43  166 1    
    88   43  167 1    
    89   43  168 1    
    90   44   45 am   BACKBONE|DICT|INTERRES
    91   44  169 1    
    92   45   46 2    
    93   45   47 1    
    94   47   48 1    
    95   47   49 1    
    96   47  170 1    
    97   48  171 1    
    98   48  172 1    
    99   48  173 1    
   100   49   50 am   BACKBONE|DICT|INTERRES
   101   49  174 1    
   102   50   51 2    
   103   50   52 1    
   104   52   53 1    
   105   52   54 1    
   106   52  175 1    
   107   53  176 1    
   108   53  177 1    
   109   53  178 1    
   110   54   55 am   BACKBONE|DICT|INTERRES
   111   54  179 1    
   112   55   56 2    
   113   55   57 1    
   114   57   58 1    
   115   57   59 1    
   116   57  180 1    
   117   58  181 1    
   118   58  182 1    
   119   58  183 1    
   120   59   60 am   BACKBONE|DICT|INTERRES
   121   59  184 1    
   122   60   61 2    
   123   60   62 1    
   124   62   63 1    
   125   62   64 1    
   126   62  185 1    
   127   63  186 1    
   128   63  187 1    
   129   63  188 1    
   130   64   65 am   BACKBONE|DICT|INTERRES
   131   64  189 1    
   132   65   66 2    
   133   67   68 2    
   134   67   69 am   BACKBONE|DICT|INTERRES
   135   69   70 1    
   136   69  190 1    
   137   70   71 1    
   138   70   72 1    
   139   70  191 1    
   140   71  192 1    
   141   71  193 1    
   142   71  194 1    
   143   72   73 2    
   144   72   74 am   BACKBONE|DICT|INTERRES
   145   74   75 1    
   146   74  195 1    
   147   75   76 1    
   148   75   77 1    
   149   75  196 1    
   150   76  197 1    
   151   76  198 1    
   152   76  199 1    
   153   77   78 2    
   154   77   79 am   BACKBONE|DICT|INTERRES
   155   79   80 1    
   156   79  200 1    
   157   80   81 1    
   158   80   82 1    
   159   80  201 1    
   160   81  202 1    
   161   81  203 1    
   162   81  204 1    
   163   82   83 2    
   164   82   84 am   BACKBONE|DICT|INTERRES
   165   84   85 1    
   166   84  205 1    
   167   85   86 1    
   168   85   87 1    
   169   85  206 1    
   170   86  207 1    
   171   86  208 1    
   172   86  209 1    
   173   87   88 2    
   174   87   89 am   BACKBONE|DICT|INTERRES
   175   89   90 1    
   176   89  210 1    
   177   90   91 1    
   178   90   92 1    
   179   90  211 1    
   180   91  212 1    
   181   91  213 1    
   182   91  214 1    
   183   92   93 2    
   184   92   94 am   BACKBONE|DICT|INTERRES
   185   94   95 1    
   186   94  215 1    
   187   95   96 1    
   188   95   97 1    
   189   95  216 1    
   190   96  217 1    
   191   96  218 1    
   192   96  219 1    
   193   97   98 2    
   194   97   99 am   BACKBONE|DICT|INTERRES
   195   99  100 1    
   196   99  220 1    
   197  100  101 1    
   198  100  102 1    
   199  100  221 1    
   200  101  222 1    
   201  101  223 1    
   202  101  224 1    
   203  102  103 2    
   204  102  104 am   BACKBONE|DICT|INTERRES
   205  104  105 1    
   206  104  225 1    
   207  105  106 1    
   208  105  107 1    
   209  105  226 1    
   210  106  227 1    
   211  106  228 1    
   212  106  229 1    
   213  107  108 2    
   214  107  109 am   BACKBONE|DICT|INTERRES
   215  109  110 1    
   216  109  230 1    
   217  110  111 1    
   218  110  112 1    
   219  110  231 1    
   220  111  232 1    
   221  111  233 1    
   222  111  234 1    
   223  112  113 2    
   224  112  114 am   BACKBONE|DICT|INTERRES
   225  114  115 1    
   226  114  235 1    
   227  115  116 1    
   228  115  117 1    
   229  115  236 1    
   230  116  237 1    
   231  116  238 1    
   232  116  239 1    
   233  117  118 2    
   234  117  119 am   BACKBONE|DICT|INTERRES
   235  119  120 1    
   236  119  240 1    
   237  120  121 1    
   238  120  124 1    
   239  120  241 1    
   240  121  122 am   BACKBONE|DICT|INTERRES
   241  121  123 2    
   242  122  242 1    
   243  122  243 1    
   244  124  125 1    
   245  124  244 1    
   246  124  245 1    
   247  125  126 1    
   248  126  246 1    
   249  126  247 1    
@<TRIPOS>SUBSTRUCTURE
     1 UNK         1 GROUP             0       ****    0 ROOT    
