@<TRIPOS>MOLECULE
3R540
247   249    1
SMALL
USER_CHARGES


@<TRIPOS>ATOM
      1 CA          6.3132  -15.5622  -47.4503 C.3       0 UNK        -0.1800 
      2 C           5.6153  -14.5433  -46.5603 C.2       0 UNK         0.5000 
      3 O           6.0273  -14.3430  -45.4176 O.2       0 UNK        -0.5000 
      4 N           4.5514  -13.9160  -47.0758 N.am      1 UNK        -0.5000 
      5 CA          3.7625  -12.8857  -46.3914 C.3       1 UNK         0.1400 
      6 C6          2.4279  -12.5886  -47.1221 C.3       23 UNK        -0.0398 
      7 S7          1.4015  -14.0758  -47.4001 S.3       23 UNK        -0.2404 
      8 C8          1.6787  -14.3297  -49.1816 C.3       23 UNK        -0.0205 
      9 C9          0.9773  -15.5699  -49.7151 C.ar      23 UNK        -0.0193 
     10 C10        -0.3726  -15.5100  -50.0697 C.ar      23 UNK        -0.1150 
     11 C11        -1.0124  -16.6177  -50.6344 C.ar      23 UNK        -0.0193 
     12 C12        -0.2874  -17.7950  -50.8434 C.ar      23 UNK        -0.1150 
     13 C13         1.0616  -17.8738  -50.4823 C.ar      23 UNK        -0.0193 
     14 C14         1.6862  -16.7596  -49.9112 C.ar      23 UNK        -0.1150 
     15 C15         1.8570  -19.1449  -50.7533 C.3       23 UNK        -0.0205 
     16 S16         1.8876  -20.2755  -49.3259 S.3       23 UNK        -0.2404 
     17 C17         0.1724  -20.8905  -49.3228 C.3       23 UNK        -0.0398 
     18 CA         -0.0362  -22.1047  -48.3854 C.3       11 UNK         0.1400 
     19 N           0.1034  -21.7632  -46.9650 N.am      11 UNK        -0.5000 
     20 C           0.0707  -22.6454  -45.9546 C.2       10 UNK         0.5000 
     21 O          -0.0244  -23.8620  -46.1131 O.2       10 UNK        -0.5000 
     22 CA          0.0867  -22.0776  -44.5227 C.3       10 UNK         0.1400 
     23 CB          1.5084  -21.6859  -44.0942 C.3       10 UNK        -0.1800 
     24 N          -0.8201  -20.9399  -44.3612 N.am      10 UNK        -0.5000 
     25 C          -2.1529  -21.0140  -44.4947 C.2       9 UNK         0.5000 
     26 O          -2.7606  -22.0603  -44.7144 O.2       9 UNK        -0.5000 
     27 CA         -2.9375  -19.6932  -44.4249 C.3       9 UNK         0.1400 
     28 CB         -3.2283  -19.2953  -42.9703 C.3       9 UNK        -0.1800 
     29 N          -2.2388  -18.6065  -45.1068 N.am      9 UNK        -0.5000 
     30 C          -2.0312  -18.5539  -46.4303 C.2       8 UNK         0.5000 
     31 O          -2.4543  -19.3911  -47.2283 O.2       8 UNK        -0.5000 
     32 CA         -1.1569  -17.3930  -46.9305 C.3       8 UNK         0.1400 
     33 CB         -1.9974  -16.1127  -47.0543 C.3       8 UNK        -0.1800 
     34 N          -0.0066  -17.1562  -46.0546 N.am      8 UNK        -0.5000 
     35 C           0.9908  -18.0372  -45.8788 C.2       7 UNK         0.5000 
     36 O           1.0336  -19.1260  -46.4437 O.2       7 UNK        -0.5000 
     37 CA          2.0917  -17.6958  -44.8567 C.3       7 UNK         0.1400 
     38 CB          3.2591  -16.9677  -45.5328 C.3       7 UNK        -0.1800 
     39 N           1.6072  -16.9032  -43.7293 N.am      7 UNK        -0.5000 
     40 C           0.6827  -17.3174  -42.8524 C.2       6 UNK         0.5000 
     41 O           0.2020  -18.4514  -42.8565 O.2       6 UNK        -0.5000 
     42 CA          0.1726  -16.2766  -41.8354 C.3       6 UNK         0.1400 
     43 CB          0.9087  -16.4298  -40.4962 C.3       6 UNK        -0.1800 
     44 N           0.2846  -14.8827  -42.2846 N.am      6 UNK        -0.5000 
     45 C          -0.2809  -14.3652  -43.3866 C.2       5 UNK         0.5000 
     46 O          -0.9343  -15.0383  -44.1818 O.2       5 UNK        -0.5000 
     47 CA         -0.0818  -12.8599  -43.6521 C.3       5 UNK         0.1400 
     48 CB         -1.3875  -12.1943  -44.1190 C.3       5 UNK        -0.1800 
     49 N           0.4086  -12.1566  -42.4641 N.am      5 UNK        -0.5000 
     50 C           1.6625  -11.7312  -42.2844 C.2       4 UNK         0.5000 
     51 O           2.5691  -11.8770  -43.1113 O.2       4 UNK        -0.5000 
     52 CA          1.9569  -11.0629  -40.9327 C.3       4 UNK         0.1400 
     53 CB          2.4380  -12.1078  -39.9136 C.3       4 UNK        -0.1800 
     54 N           3.0069  -10.0728  -41.1302 N.am      4 UNK        -0.5000 
     55 C           2.8629   -8.7476  -41.0134 C.2       3 UNK         0.5000 
     56 O           1.8679   -8.2001  -40.5366 O.2       3 UNK        -0.5000 
     57 CA          4.0215   -7.8851  -41.5559 C.3       3 UNK         0.1400 
     58 CB          4.9870   -7.5031  -40.4236 C.3       3 UNK        -0.1800 
     59 N           4.7747   -8.5500  -42.6252 N.am      3 UNK        -0.5000 
     60 C           4.2825   -8.8525  -43.8354 C.2       2 UNK         0.5000 
     61 O           3.1563   -8.5243  -44.2132 O.2       2 UNK        -0.5000 
     62 CA          5.1700   -9.6844  -44.7736 C.3       2 UNK         0.1400 
     63 CB          6.5692  -10.0205  -44.2117 C.3       2 UNK        -0.1800 
     64 N           4.4582  -10.9173  -45.0990 N.am      2 UNK        -0.5000 
     65 C           4.5912  -11.5918  -46.2437 C.2       1 UNK         0.5000 
     66 O           5.3179  -11.2251  -47.1719 O.2       1 UNK        -0.5000 
     67 C          -1.3931  -22.7761  -48.6773 C.2       11 UNK         0.5000 
     68 O          -1.4199  -23.8183  -49.3318 O.2       11 UNK        -0.5000 
     69 N          -2.4859  -22.1947  -48.1602 N.am      12 UNK        -0.5000 
     70 CA         -3.8411  -22.7337  -48.2838 C.3       12 UNK         0.1400 
     71 CB         -4.8551  -21.7289  -47.7194 C.3       12 UNK        -0.1800 
     72 C          -4.0015  -24.1116  -47.6179 C.2       12 UNK         0.5000 
     73 O          -4.6105  -24.9989  -48.2151 O.2       12 UNK        -0.5000 
     74 N          -3.4254  -24.2785  -46.4190 N.am      13 UNK        -0.5000 
     75 CA         -3.3970  -25.5385  -45.6766 C.3       13 UNK         0.1400 
     76 CB         -2.8588  -25.2977  -44.2584 C.3       13 UNK        -0.1800 
     77 C          -2.5836  -26.6301  -46.3928 C.2       13 UNK         0.5000 
     78 O          -3.0567  -27.7620  -46.4944 O.2       13 UNK        -0.5000 
     79 N          -1.4030  -26.2686  -46.9166 N.am      14 UNK        -0.5000 
     80 CA         -0.5347  -27.1496  -47.7039 C.3       14 UNK         0.1400 
     81 CB          0.8027  -26.4448  -47.9761 C.3       14 UNK        -0.1800 
     82 C          -1.1854  -27.6092  -49.0223 C.2       14 UNK         0.5000 
     83 O          -1.0186  -28.7638  -49.4161 O.2       14 UNK        -0.5000 
     84 N          -1.9492  -26.7091  -49.6536 N.am      15 UNK        -0.5000 
     85 CA         -2.7576  -26.9752  -50.8426 C.3       15 UNK         0.1400 
     86 CB         -3.0161  -25.6429  -51.5611 C.3       15 UNK        -0.1800 
     87 C          -4.0929  -27.6866  -50.5391 C.2       15 UNK         0.5000 
     88 O          -4.8286  -27.9903  -51.4786 O.2       15 UNK        -0.5000 
     89 N          -4.4156  -27.8972  -49.2527 N.am      16 UNK        -0.5000 
     90 CA         -5.6559  -28.4814  -48.7242 C.3       16 UNK         0.1400 
     91 CB         -5.7118  -29.9895  -49.0422 C.3       16 UNK        -0.1800 
     92 C          -6.9275  -27.7277  -49.1767 C.2       16 UNK         0.5000 
     93 O          -7.9774  -28.3436  -49.3668 O.2       16 UNK        -0.5000 
     94 N          -6.7870  -26.4089  -49.3805 N.am      17 UNK        -0.5000 
     95 CA         -7.7590  -25.4628  -49.9392 C.3       17 UNK         0.1400 
     96 CB         -8.9678  -25.3048  -48.9946 C.3       17 UNK        -0.1800 
     97 C          -8.1885  -25.7556  -51.3975 C.2       17 UNK         0.5000 
     98 O          -9.1324  -25.1284  -51.8809 O.2       17 UNK        -0.5000 
     99 N          -7.4971  -26.6748  -52.0877 N.am      18 UNK        -0.5000 
    100 CA        -7.7780  -27.0640  -53.4727 C.3       18 UNK         0.1400 
    101 CB        -7.4230  -28.5489  -53.6513 C.3       18 UNK        -0.1800 
    102 C         -7.0187  -26.1988  -54.4971 C.2       18 UNK         0.5000 
    103 O         -7.3240  -26.2646  -55.6888 O.2       18 UNK        -0.5000 
    104 N         -6.0494  -25.4092  -54.0247 N.am      19 UNK        -0.5000 
    105 CA        -5.2324  -24.4826  -54.7991 C.3       19 UNK         0.1400 
    106 CB        -4.0862  -25.2406  -55.5036 C.3       19 UNK        -0.1800 
    107 C         -4.7526  -23.3545  -53.8668 C.2       19 UNK         0.5000 
    108 O         -5.3837  -23.1137  -52.8344 O.2       19 UNK        -0.5000 
    109 N         -3.6551  -22.6845  -54.2484 N.am      20 UNK        -0.5000 
    110 CA        -3.0420  -21.5301  -53.5758 C.3       20 UNK         0.1400 
    111 CB        -2.5317  -21.8936  -52.1654 C.3       20 UNK        -0.1800 
    112 C         -3.9404  -20.2750  -53.5892 C.2       20 UNK         0.5000 
    113 O         -3.9089  -19.4753  -52.6532 O.2       20 UNK        -0.5000 
    114 N         -4.7130  -20.1097  -54.6707 N.am      21 UNK        -0.5000 
    115 CA        -5.5399  -18.9368  -54.9443 C.3       21 UNK         0.1400 
    116 CB        -6.6626  -19.3386  -55.9174 C.3       21 UNK        -0.1800 
    117 C         -4.6612  -17.7961  -55.4927 C.2       21 UNK         0.5000 
    118 O         -4.5893  -17.5980  -56.7071 O.2       21 UNK        -0.5000 
    119 N         -3.9629  -17.1059  -54.5843 N.am      22 UNK        -0.5000 
    120 CA        -3.0115  -16.0230  -54.8860 C.3       22 UNK         0.1400 
    121 C         -3.6358  -14.6972  -55.4203 C.2       22 UNK         0.5000 
    122 N         -4.9479  -14.5037  -55.3598 N.am      22 UNK        -0.7600 
    123 O         -2.9144  -13.8335  -55.9122 O.2       22 UNK        -0.5000 
    124 C124       -2.0401  -15.7745  -53.7021 C.3       23 UNK        -0.0398 
    125 S125       -2.8678  -15.2058  -52.1731 S.3       23 UNK        -0.2404 
    126 C126       -2.4889  -16.5499  -51.0028 C.3       23 UNK        -0.0205 
    127 H127        6.3111  -16.5413  -46.9711 H         1 UNK         0.0600 
    128 H128        5.8226  -15.6582  -48.4193 H         1 UNK         0.0600 
    129 H129        7.3483  -15.2659  -47.6200 H         1 UNK         0.0600 
    130 H130        4.2799  -14.1081  -48.0273 H         1 UNK         0.3000 
    131 H131        3.5262  -13.2611  -45.3931 H         1 UNK         0.0600 
    132 H132        1.8333  -11.8853  -46.5364 H         1 UNK         0.0800 
    133 H133        2.6136  -12.0949  -48.0780 H         1 UNK         0.0800 
    134 H134        1.3241  -13.4535  -49.7269 H         1 UNK         0.0800 
    135 H135        2.7490  -14.3974  -49.3787 H         1 UNK         0.0800 
    136 H136       -0.9256  -14.5940  -49.9153 H         1 UNK         0.1150 
    137 H137       -0.7736  -18.6521  -51.2878 H         1 UNK         0.1150 
    138 H138        2.7318  -16.8127  -49.6421 H         1 UNK         0.1150 
    139 H139        1.4576  -19.6652  -51.6252 H         1 UNK         0.0800 
    140 H140        2.8847  -18.8816  -51.0080 H         1 UNK         0.0800 
    141 H141       -0.0724  -21.1606  -50.3510 H         1 UNK         0.0800 
    142 H142       -0.4950  -20.0731  -49.0462 H         1 UNK         0.0800 
    143 H143        0.7355  -22.8428  -48.6143 H         1 UNK         0.0600 
    144 H144        0.2600  -20.7796  -46.7535 H         1 UNK         0.3000 
    145 H145       -0.2578  -22.8659  -43.8501 H         1 UNK         0.0600 
    146 H146        1.5186  -21.2676  -43.0874 H         1 UNK         0.0600 
    147 H147        2.1641  -22.5573  -44.0927 H         1 UNK         0.0600 
    148 H148        1.9483  -20.9522  -44.7680 H         1 UNK         0.0600 
    149 H149       -0.4020  -20.0425  -44.1449 H         1 UNK         0.3000 
    150 H150       -3.8934  -19.8465  -44.9300 H         1 UNK         0.0600 
    151 H151       -3.7928  -20.0771  -42.4606 H         1 UNK         0.0600 
    152 H152       -3.8220  -18.3823  -42.9221 H         1 UNK         0.0600 
    153 H153       -2.3133  -19.1310  -42.4016 H         1 UNK         0.0600 
    154 H154       -1.8218  -17.8930  -44.5262 H         1 UNK         0.3000 
    155 H155       -0.7756  -17.6567  -47.9182 H         1 UNK         0.0600 
    156 H156       -1.3929  -15.2675  -47.3806 H         1 UNK         0.0600 
    157 H157       -2.4672  -15.8411  -46.1092 H         1 UNK         0.0600 
    158 H158       -2.7976  -16.2442  -47.7817 H         1 UNK         0.0600 
    159 H159       -0.0246  -16.3019  -45.5091 H         1 UNK         0.3000 
    160 H160        2.4720  -18.6377  -44.4575 H         1 UNK         0.0600 
    161 H161        2.9596  -15.9837  -45.8882 H         1 UNK         0.0600 
    162 H162        3.6286  -17.5293  -46.3920 H         1 UNK         0.0600 
    163 H163        4.0947  -16.8359  -44.8452 H         1 UNK         0.0600 
    164 H164        1.9459  -15.9558  -43.6569 H         1 UNK         0.3000 
    165 H165       -0.8867  -16.4832  -41.6699 H         1 UNK         0.0600 
    166 H166        1.9707  -16.2005  -40.5925 H         1 UNK         0.0600 
    167 H167        0.4894  -15.7695  -39.7368 H         1 UNK         0.0600 
    168 H168        0.8257  -17.4500  -40.1188 H         1 UNK         0.0600 
    169 H169        0.8130  -14.2620  -41.6909 H         1 UNK         0.3000 
    170 H170        0.6411  -12.7805  -44.4660 H         1 UNK         0.0600 
    171 H171       -1.7518  -12.6467  -45.0425 H         1 UNK         0.0600 
    172 H172       -2.1769  -12.2877  -43.3723 H         1 UNK         0.0600 
    173 H173       -1.2377  -11.1332  -44.3190 H         1 UNK         0.0600 
    174 H174       -0.2692  -12.0083  -41.7290 H         1 UNK         0.3000 
    175 H175        1.0439  -10.5940  -40.5597 H         1 UNK         0.0600 
    176 H176        2.6753  -11.6415  -38.9572 H         1 UNK         0.0600 
    177 H177        1.6687  -12.8578  -39.7260 H         1 UNK         0.0600 
    178 H178        3.3307  -12.6304  -40.2604 H         1 UNK         0.0600 
    179 H179        3.8378  -10.4177  -41.5888 H         1 UNK         0.3000 
    180 H180        3.5891   -6.9688  -41.9632 H         1 UNK         0.0600 
    181 H181        5.4638   -8.3816  -39.9869 H         1 UNK         0.0600 
    182 H182        4.4615   -6.9823  -39.6219 H         1 UNK         0.0600 
    183 H183        5.7720   -6.8369  -40.7820 H         1 UNK         0.0600 
    184 H184        5.7130   -8.8466  -42.3982 H         1 UNK         0.3000 
    185 H185        5.2965   -9.0865  -45.6786 H         1 UNK         0.0600 
    186 H186        7.1635  -10.5631  -44.9472 H         1 UNK         0.0600 
    187 H187        7.1260   -9.1163  -43.9624 H         1 UNK         0.0600 
    188 H188        6.5103  -10.6426  -43.3177 H         1 UNK         0.0600 
    189 H189        3.7973  -11.2457  -44.3962 H         1 UNK         0.3000 
    190 H190       -2.3902  -21.3157  -47.6596 H         1 UNK         0.3000 
    191 H191       -4.0518  -22.8609  -49.3470 H         1 UNK         0.0600 
    192 H192       -4.7995  -20.7763  -48.2466 H         1 UNK         0.0600 
    193 H193       -5.8747  -22.1015  -47.8260 H         1 UNK         0.0600 
    194 H194       -4.6841  -21.5354  -46.6604 H         1 UNK         0.0600 
    195 H195       -2.9899  -23.4782  -45.9677 H         1 UNK         0.3000 
    196 H196       -4.4254  -25.8955  -45.5906 H         1 UNK         0.0600 
    197 H197       -2.8368  -26.2253  -43.6853 H         1 UNK         0.0600 
    198 H198       -3.4881  -24.5939  -43.7135 H         1 UNK         0.0600 
    199 H199       -1.8453  -24.8961  -44.2742 H         1 UNK         0.0600 
    200 H200       -1.0615  -25.3241  -46.7547 H         1 UNK         0.3000 
    201 H201       -0.3345  -28.0407  -47.1056 H         1 UNK         0.0600 
    202 H202        1.3117  -26.1936  -47.0454 H         1 UNK         0.0600 
    203 H203        0.6633  -25.5220  -48.5401 H         1 UNK         0.0600 
    204 H204        1.4729  -27.0848  -48.5512 H         1 UNK         0.0600 
    205 H205       -1.9754  -25.7587  -49.2961 H         1 UNK         0.3000 
    206 H206       -2.1925  -27.6215  -51.5171 H         1 UNK         0.0600 
    207 H207       -2.0810  -25.1633  -51.8495 H         1 UNK         0.0600 
    208 H208       -3.5941  -25.7988  -52.4701 H         1 UNK         0.0600 
    209 H209       -3.5721  -24.9454  -50.9333 H         1 UNK         0.0600 
    210 H210       -3.7577  -27.5892  -48.5474 H         1 UNK         0.3000 
    211 H211       -5.6080  -28.3708  -47.6402 H         1 UNK         0.0600 
    212 H212       -5.8180  -30.1731  -50.1119 H         1 UNK         0.0600 
    213 H213       -6.5562  -30.4653  -48.5423 H         1 UNK         0.0600 
    214 H214       -4.8084  -30.4963  -48.7028 H         1 UNK         0.0600 
    215 H215       -5.8897  -25.9976  -49.1286 H         1 UNK         0.3000 
    216 H216       -7.2431  -24.5020  -49.9727 H         1 UNK         0.0600 
    217 H217       -8.6460  -25.0752  -47.9787 H         1 UNK         0.0600 
    218 H218       -9.5751  -26.2095  -48.9586 H         1 UNK         0.0600 
    219 H219       -9.6161  -24.4902  -49.3189 H         1 UNK         0.0600 
    220 H220       -6.7162  -27.1461  -51.6429 H         1 UNK         0.3000 
    221 H221       -8.8453  -26.9498  -53.6731 H         1 UNK         0.0600 
    222 H222       -6.3538  -28.7260  -53.5323 H         1 UNK         0.0600 
    223 H223       -7.9489  -29.1709  -52.9267 H         1 UNK         0.0600 
    224 H224       -7.7028  -28.8998  -54.6453 H         1 UNK         0.0600 
    225 H225       -5.9199  -25.3536  -53.0236 H         1 UNK         0.3000 
    226 H226       -5.8617  -24.0133  -55.5579 H         1 UNK         0.0600 
    227 H227       -4.4685  -26.0702  -56.0985 H         1 UNK         0.0600 
    228 H228       -3.5399  -24.5918  -56.1886 H         1 UNK         0.0600 
    229 H229       -3.3700  -25.6496  -54.7910 H         1 UNK         0.0600 
    230 H230       -3.2029  -22.9729  -55.1048 H         1 UNK         0.3000 
    231 H231       -2.1672  -21.2661  -54.1716 H         1 UNK         0.0600 
    232 H232       -1.9927  -21.0575  -51.7204 H         1 UNK         0.0600 
    233 H233       -1.8465  -22.7401  -52.1971 H         1 UNK         0.0600 
    234 H234       -3.3473  -22.1458  -51.4891 H         1 UNK         0.0600 
    235 H235       -4.6593  -20.7992  -55.4054 H         1 UNK         0.3000 
    236 H236       -6.0072  -18.5954  -54.0179 H         1 UNK         0.0600 
    237 H237       -7.2962  -18.4832  -56.1555 H         1 UNK         0.0600 
    238 H238       -6.2679  -19.7274  -56.8569 H         1 UNK         0.0600 
    239 H239       -7.3033  -20.1056  -55.4818 H         1 UNK         0.0600 
    240 H240       -4.0468  -17.3666  -53.6104 H         1 UNK         0.3000 
    241 H241       -2.3953  -16.3866  -55.7106 H         1 UNK         0.0600 
    242 H242       -5.5496  -15.2014  -54.9533 H         1 UNK         0.3800 
    243 H243       -5.3410  -13.6456  -55.7136 H         1 UNK         0.3800 
    244 H244       -1.4834  -16.6892  -53.4951 H         1 UNK         0.0800 
    245 H245       -1.2859  -15.0349  -53.9761 H         1 UNK         0.0800 
    246 H246       -3.0718  -16.3938  -50.0957 H         1 UNK         0.0800 
    247 H247       -2.8289  -17.4964  -51.4212 H         1 UNK         0.0800 
@<TRIPOS>BOND
     1    1    2 1    
     2    1  127 1    
     3    1  128 1    
     4    1  129 1    
     5    2    3 2    
     6    2    4 am   BACKBONE|DICT|INTERRES
     7    4    5 1    
     8    4  130 1    
     9    5    6 1    
    10    5   65 1    
    11    5  131 1    
    12    6    7 1    
    13    6  132 1    
    14    6  133 1    
    15    7    8 1    
    16    8    9 1    
    17    8  134 1    
    18    8  135 1    
    19    9   10 ar   
    20    9   14 ar   
    21   10   11 ar   
    22   10  136 1    
    23   11   12 ar   
    24   11  126 1    
    25   12   13 ar   
    26   12  137 1    
    27   13   14 ar   
    28   13   15 1    
    29   14  138 1    
    30   15   16 1    
    31   15  139 1    
    32   15  140 1    
    33   16   17 1    
    34   17   18 1    
    35   17  141 1    
    36   17  142 1    
    37   18   19 1    
    38   18   67 1    
    39   18  143 1    
    40   19   20 am   BACKBONE|DICT|INTERRES
    41   19  144 1    
    42   20   21 2    
    43   20   22 1    
    44   22   23 1    
    45   22   24 1    
    46   22  145 1    
    47   23  146 1    
    48   23  147 1    
    49   23  148 1    
    50   24   25 am   BACKBONE|DICT|INTERRES
    51   24  149 1    
    52   25   26 2    
    53   25   27 1    
    54   27   28 1    
    55   27   29 1    
    56   27  150 1    
    57   28  151 1    
    58   28  152 1    
    59   28  153 1    
    60   29   30 am   BACKBONE|DICT|INTERRES
    61   29  154 1    
    62   30   31 2    
    63   30   32 1    
    64   32   33 1    
    65   32   34 1    
    66   32  155 1    
    67   33  156 1    
    68   33  157 1    
    69   33  158 1    
    70   34   35 am   BACKBONE|DICT|INTERRES
    71   34  159 1    
    72   35   36 2    
    73   35   37 1    
    74   37   38 1    
    75   37   39 1    
    76   37  160 1    
    77   38  161 1    
    78   38  162 1    
    79   38  163 1    
    80   39   40 am   BACKBONE|DICT|INTERRES
    81   39  164 1    
    82   40   41 2    
    83   40   42 1    
    84   42   43 1    
    85   42   44 1    
    86   42  165 1    
    87   43  166 1    
    88   43  167 1    
    89   43  168 1    
    90   44   45 am   BACKBONE|DICT|INTERRES
    91   44  169 1    
    92   45   46 2    
    93   45   47 1    
    94   47   48 1    
    95   47   49 1    
    96   47  170 1    
    97   48  171 1    
    98   48  172 1    
    99   48  173 1    
   100   49   50 am   BACKBONE|DICT|INTERRES
   101   49  174 1    
   102   50   51 2    
   103   50   52 1    
   104   52   53 1    
   105   52   54 1    
   106   52  175 1    
   107   53  176 1    
   108   53  177 1    
   109   53  178 1    
   110   54   55 am   BACKBONE|DICT|INTERRES
   111   54  179 1    
   112   55   56 2    
   113   55   57 1    
   114   57   58 1    
   115   57   59 1    
   116   57  180 1    
   117   58  181 1    
   118   58  182 1    
   119   58  183 1    
   120   59   60 am   BACKBONE|DICT|INTERRES
   121   59  184 1    
   122   60   61 2    
   123   60   62 1    
   124   62   63 1    
   125   62   64 1    
   126   62  185 1    
   127   63  186 1    
   128   63  187 1    
   129   63  188 1    
   130   64   65 am   BACKBONE|DICT|INTERRES
   131   64  189 1    
   132   65   66 2    
   133   67   68 2    
   134   67   69 am   BACKBONE|DICT|INTERRES
   135   69   70 1    
   136   69  190 1    
   137   70   71 1    
   138   70   72 1    
   139   70  191 1    
   140   71  192 1    
   141   71  193 1    
   142   71  194 1    
   143   72   73 2    
   144   72   74 am   BACKBONE|DICT|INTERRES
   145   74   75 1    
   146   74  195 1    
   147   75   76 1    
   148   75   77 1    
   149   75  196 1    
   150   76  197 1    
   151   76  198 1    
   152   76  199 1    
   153   77   78 2    
   154   77   79 am   BACKBONE|DICT|INTERRES
   155   79   80 1    
   156   79  200 1    
   157   80   81 1    
   158   80   82 1    
   159   80  201 1    
   160   81  202 1    
   161   81  203 1    
   162   81  204 1    
   163   82   83 2    
   164   82   84 am   BACKBONE|DICT|INTERRES
   165   84   85 1    
   166   84  205 1    
   167   85   86 1    
   168   85   87 1    
   169   85  206 1    
   170   86  207 1    
   171   86  208 1    
   172   86  209 1    
   173   87   88 2    
   174   87   89 am   BACKBONE|DICT|INTERRES
   175   89   90 1    
   176   89  210 1    
   177   90   91 1    
   178   90   92 1    
   179   90  211 1    
   180   91  212 1    
   181   91  213 1    
   182   91  214 1    
   183   92   93 2    
   184   92   94 am   BACKBONE|DICT|INTERRES
   185   94   95 1    
   186   94  215 1    
   187   95   96 1    
   188   95   97 1    
   189   95  216 1    
   190   96  217 1    
   191   96  218 1    
   192   96  219 1    
   193   97   98 2    
   194   97   99 am   BACKBONE|DICT|INTERRES
   195   99  100 1    
   196   99  220 1    
   197  100  101 1    
   198  100  102 1    
   199  100  221 1    
   200  101  222 1    
   201  101  223 1    
   202  101  224 1    
   203  102  103 2    
   204  102  104 am   BACKBONE|DICT|INTERRES
   205  104  105 1    
   206  104  225 1    
   207  105  106 1    
   208  105  107 1    
   209  105  226 1    
   210  106  227 1    
   211  106  228 1    
   212  106  229 1    
   213  107  108 2    
   214  107  109 am   BACKBONE|DICT|INTERRES
   215  109  110 1    
   216  109  230 1    
   217  110  111 1    
   218  110  112 1    
   219  110  231 1    
   220  111  232 1    
   221  111  233 1    
   222  111  234 1    
   223  112  113 2    
   224  112  114 am   BACKBONE|DICT|INTERRES
   225  114  115 1    
   226  114  235 1    
   227  115  116 1    
   228  115  117 1    
   229  115  236 1    
   230  116  237 1    
   231  116  238 1    
   232  116  239 1    
   233  117  118 2    
   234  117  119 am   BACKBONE|DICT|INTERRES
   235  119  120 1    
   236  119  240 1    
   237  120  121 1    
   238  120  124 1    
   239  120  241 1    
   240  121  122 am   BACKBONE|DICT|INTERRES
   241  121  123 2    
   242  122  242 1    
   243  122  243 1    
   244  124  125 1    
   245  124  244 1    
   246  124  245 1    
   247  125  126 1    
   248  126  246 1    
   249  126  247 1    
@<TRIPOS>SUBSTRUCTURE
     1 UNK         1 GROUP             0       ****    0 ROOT    
