@<TRIPOS>MOLECULE
3R540
247   249    1
SMALL
USER_CHARGES


@<TRIPOS>ATOM
      1 CA          4.6694  -14.9712  -51.2586 C.3       0 UNK        -0.1800 
      2 C           4.2143  -14.6210  -49.8494 C.2       0 UNK         0.5000 
      3 O           4.9914  -14.7492  -48.9021 O.2       0 UNK        -0.5000 
      4 N           2.9632  -14.1678  -49.7035 N.am      1 UNK        -0.5000 
      5 CA          2.3295  -13.7959  -48.4330 C.3       1 UNK         0.1400 
      6 C6          0.7863  -13.9266  -48.4999 C.3       23 UNK        -0.0398 
      7 S7          0.2656  -15.6717  -48.5584 S.3       23 UNK        -0.2404 
      8 C8         -1.0186  -15.6379  -49.8445 C.3       23 UNK        -0.0205 
      9 C9         -1.8025  -16.9417  -49.8583 C.ar      23 UNK        -0.0193 
     10 C10        -3.0682  -17.0141  -49.2698 C.ar      23 UNK        -0.1150 
     11 C11        -3.7705  -18.2232  -49.2375 C.ar      23 UNK        -0.0193 
     12 C12        -3.1959  -19.3651  -49.8004 C.ar      23 UNK        -0.1150 
     13 C13        -1.9274  -19.3104  -50.3839 C.ar      23 UNK        -0.0193 
     14 C14        -1.2461  -18.0887  -50.4286 C.ar      23 UNK        -0.1150 
     15 C15        -1.2888  -20.5906  -50.9135 C.3       23 UNK        -0.0205 
     16 S16         0.4454  -20.8256  -50.3878 S.3       23 UNK        -0.2404 
     17 C17         0.3505  -20.5839  -48.5774 C.3       23 UNK        -0.0398 
     18 CA          0.3825  -21.8941  -47.7608 C.3       11 UNK         0.1400 
     19 N           0.6494  -21.6328  -46.3457 N.am      11 UNK        -0.5000 
     20 C           0.8941  -22.5702  -45.4205 C.2       10 UNK         0.5000 
     21 O           0.9494  -23.7745  -45.6653 O.2       10 UNK        -0.5000 
     22 CA          1.0511  -22.0850  -43.9686 C.3       10 UNK         0.1400 
     23 CB          2.4366  -21.4620  -43.7423 C.3       10 UNK        -0.1800 
     24 N           0.0122  -21.1290  -43.5855 N.am      10 UNK        -0.5000 
     25 C          -1.2981  -21.4113  -43.5378 C.2       9 UNK         0.5000 
     26 O          -1.7688  -22.5250  -43.7682 O.2       9 UNK        -0.5000 
     27 CA         -2.2451  -20.2403  -43.2256 C.3       9 UNK         0.1400 
     28 CB         -2.2772  -19.9404  -41.7192 C.3       9 UNK        -0.1800 
     29 N          -1.8793  -19.0300  -43.9588 N.am      9 UNK        -0.5000 
     30 C          -1.9589  -18.8960  -45.2903 C.2       8 UNK         0.5000 
     31 O          -2.3826  -19.7690  -46.0455 O.2       8 UNK        -0.5000 
     32 CA         -1.4200  -17.5832  -45.8773 C.3       8 UNK         0.1400 
     33 CB         -2.4806  -16.4757  -45.8031 C.3       8 UNK        -0.1800 
     34 N          -0.1905  -17.1498  -45.2084 N.am      8 UNK        -0.5000 
     35 C           0.9736  -17.8063  -45.3255 C.2       7 UNK         0.5000 
     36 O           1.1096  -18.8356  -45.9847 O.2       7 UNK        -0.5000 
     37 CA          2.1876  -17.2591  -44.5598 C.3       7 UNK         0.1400 
     38 CB          2.9005  -16.1742  -45.3777 C.3       7 UNK        -0.1800 
     39 N           1.8752  -16.7443  -43.2284 N.am      7 UNK        -0.5000 
     40 C           1.4089  -17.4840  -42.2124 C.2       6 UNK         0.5000 
     41 O           1.0599  -18.6596  -42.3271 O.2       6 UNK        -0.5000 
     42 CA          1.3233  -16.7969  -40.8409 C.3       6 UNK         0.1400 
     43 CB          2.7181  -16.6981  -40.2033 C.3       6 UNK        -0.1800 
     44 N           0.7595  -15.4553  -40.9688 N.am      6 UNK        -0.5000 
     45 C          -0.4644  -15.1004  -40.5571 C.2       5 UNK         0.5000 
     46 O          -1.2189  -15.8408  -39.9248 O.2       5 UNK        -0.5000 
     47 CA         -0.9441  -13.6813  -40.9292 C.3       5 UNK         0.1400 
     48 CB         -0.6588  -12.7012  -39.7811 C.3       5 UNK        -0.1800 
     49 N          -0.3607  -13.1489  -42.1645 N.am      5 UNK        -0.5000 
     50 C          -0.4537  -13.7213  -43.3727 C.2       4 UNK         0.5000 
     51 O          -1.0379  -14.7814  -43.5875 O.2       4 UNK        -0.5000 
     52 CA          0.2764  -13.0284  -44.5353 C.3       4 UNK         0.1400 
     53 CB         -0.6443  -11.9885  -45.1904 C.3       4 UNK        -0.1800 
     54 N           1.5592  -12.3964  -44.2034 N.am      4 UNK        -0.5000 
     55 C           2.5756  -12.9342  -43.5118 C.2       3 UNK         0.5000 
     56 O           2.5157  -14.0171  -42.9251 O.2       3 UNK        -0.5000 
     57 CA          3.8949  -12.1478  -43.5575 C.3       3 UNK         0.1400 
     58 CB          5.0210  -12.8269  -42.7571 C.3       3 UNK        -0.1800 
     59 N           4.3005  -12.0412  -44.9572 N.am      3 UNK        -0.5000 
     60 C           4.4441  -10.9071  -45.6537 C.2       2 UNK         0.5000 
     61 O           4.3250   -9.7816  -45.1691 O.2       2 UNK        -0.5000 
     62 CA          4.7394  -11.0646  -47.1588 C.3       2 UNK         0.1400 
     63 CB          6.2535  -11.1272  -47.4099 C.3       2 UNK        -0.1800 
     64 N           4.1088  -12.2577  -47.7304 N.am      2 UNK        -0.5000 
     65 C           2.7946  -12.4052  -47.9430 C.2       1 UNK         0.5000 
     66 O           1.9764  -11.5037  -47.7568 O.2       1 UNK        -0.5000 
     67 C          -0.8974  -22.7314  -47.9543 C.2       11 UNK         0.5000 
     68 O          -0.8515  -23.7352  -48.6629 O.2       11 UNK        -0.5000 
     69 N          -1.9946  -22.3487  -47.2838 N.am      12 UNK        -0.5000 
     70 CA         -3.2712  -23.0667  -47.3182 C.3       12 UNK         0.1400 
     71 CB         -4.3437  -22.2452  -46.5886 C.3       12 UNK        -0.1800 
     72 C          -3.1968  -24.4955  -46.7434 C.2       12 UNK         0.5000 
     73 O          -3.9516  -25.3624  -47.1819 O.2       12 UNK        -0.5000 
     74 N          -2.2900  -24.7285  -45.7860 N.am      13 UNK        -0.5000 
     75 CA         -1.9904  -26.0555  -45.2556 C.3       13 UNK         0.1400 
     76 CB         -1.3098  -25.9230  -43.8840 C.3       13 UNK        -0.1800 
     77 C          -1.1245  -26.8770  -46.2286 C.2       13 UNK         0.5000 
     78 O          -1.4587  -28.0270  -46.5149 O.2       13 UNK        -0.5000 
     79 N          -0.0250  -26.2802  -46.7085 N.am      14 UNK        -0.5000 
     80 CA          0.9885  -26.9438  -47.5290 C.3       14 UNK         0.1400 
     81 CB          2.2701  -26.0958  -47.5346 C.3       14 UNK        -0.1800 
     82 C           0.5350  -27.2360  -48.9697 C.2       14 UNK         0.5000 
     83 O           0.7779  -28.3362  -49.4675 O.2       14 UNK        -0.5000 
     84 N          -0.0915  -26.2479  -49.6189 N.am      15 UNK        -0.5000 
     85 CA         -0.4850  -26.2928  -51.0296 C.3       15 UNK         0.1400 
     86 CB         -0.1259  -24.9463  -51.6805 C.3       15 UNK        -0.1800 
     87 C          -1.9786  -26.6173  -51.2233 C.2       15 UNK         0.5000 
     88 O          -2.4313  -26.6748  -52.3675 O.2       15 UNK        -0.5000 
     89 N          -2.7058  -26.8297  -50.1170 N.am      16 UNK        -0.5000 
     90 CA         -4.1550  -27.0315  -50.0228 C.3       16 UNK         0.1400 
     91 CB         -4.6113  -28.2614  -50.8406 C.3       16 UNK        -0.1800 
     92 C          -4.9513  -25.7473  -50.3481 C.2       16 UNK         0.5000 
     93 O          -4.3842  -24.6521  -50.3770 O.2       16 UNK        -0.5000 
     94 N          -6.2709  -25.8983  -50.5264 N.am      17 UNK        -0.5000 
     95 CA         -7.2225  -24.8130  -50.7691 C.3       17 UNK         0.1400 
     96 CB         -8.6424  -25.3985  -50.8148 C.3       17 UNK        -0.1800 
     97 C          -6.9253  -24.0204  -52.0567 C.2       17 UNK         0.5000 
     98 O          -6.5067  -24.6088  -53.0567 O.2       17 UNK        -0.5000 
     99 N          -7.1867  -22.7070  -51.9988 N.am      18 UNK        -0.5000 
    100 CA        -6.9113  -21.6922  -53.0185 C.3       18 UNK         0.1400 
    101 CB        -7.7317  -21.9316  -54.3053 C.3       18 UNK        -0.1800 
    102 C         -5.3986  -21.5351  -53.2614 C.2       18 UNK         0.5000 
    103 O         -4.7577  -20.7603  -52.5502 O.2       18 UNK        -0.5000 
    104 N         -4.8669  -22.2752  -54.2438 N.am      19 UNK        -0.5000 
    105 CA        -3.4590  -22.4572  -54.6224 C.3       19 UNK         0.1400 
    106 CB        -2.6684  -23.1164  -53.4789 C.3       19 UNK        -0.1800 
    107 C         -2.7253  -21.2105  -55.1596 C.2       19 UNK         0.5000 
    108 O         -1.9605  -21.3384  -56.1170 O.2       19 UNK        -0.5000 
    109 N         -2.9620  -20.0406  -54.5617 N.am      20 UNK        -0.5000 
    110 CA        -2.3928  -18.7572  -54.9559 C.3       20 UNK         0.1400 
    111 CB        -1.0459  -18.5276  -54.2403 C.3       20 UNK        -0.1800 
    112 C         -3.4433  -17.6598  -54.7261 C.2       20 UNK         0.5000 
    113 O         -4.5110  -17.7238  -55.3379 O.2       20 UNK        -0.5000 
    114 N         -3.1396  -16.6754  -53.8672 N.am      21 UNK        -0.5000 
    115 CA        -3.9408  -15.4683  -53.6270 C.3       21 UNK         0.1400 
    116 CB        -3.2077  -14.5699  -52.6208 C.3       21 UNK        -0.1800 
    117 C         -5.3840  -15.7277  -53.1527 C.2       21 UNK         0.5000 
    118 O         -6.2698  -14.9273  -53.4566 O.2       21 UNK        -0.5000 
    119 N         -5.5975  -16.8426  -52.4443 N.am      22 UNK        -0.5000 
    120 CA        -6.9263  -17.3286  -52.0436 C.3       22 UNK         0.1400 
    121 C         -7.7297  -18.0210  -53.1860 C.2       22 UNK         0.5000 
    122 N         -7.1792  -18.2373  -54.3751 N.am      22 UNK        -0.7600 
    123 O         -8.8916  -18.3661  -52.9912 O.2       22 UNK        -0.5000 
    124 C124       -6.8505  -18.2193  -50.7777 C.3       23 UNK        -0.0398 
    125 S125       -6.3853  -17.2552  -49.3000 S.3       23 UNK        -0.2404 
    126 C126       -5.1181  -18.3138  -48.5357 C.3       23 UNK        -0.0205 
    127 H127        3.8794  -14.8086  -51.9921 H         1 UNK         0.0600 
    128 H128        4.9673  -16.0186  -51.3064 H         1 UNK         0.0600 
    129 H129        5.5261  -14.3585  -51.5391 H         1 UNK         0.0600 
    130 H130        2.3824  -14.0652  -50.5231 H         1 UNK         0.3000 
    131 H131        2.6765  -14.4964  -47.6733 H         1 UNK         0.0600 
    132 H132        0.3117  -13.4923  -47.6202 H         1 UNK         0.0800 
    133 H133        0.3911  -13.3798  -49.3575 H         1 UNK         0.0800 
    134 H134       -1.6889  -14.7966  -49.6621 H         1 UNK         0.0800 
    135 H135       -0.5575  -15.4688  -50.8185 H         1 UNK         0.0800 
    136 H136       -3.5018  -16.1339  -48.8167 H         1 UNK         0.1150 
    137 H137       -3.7253  -20.3069  -49.7596 H         1 UNK         0.1150 
    138 H138       -0.2592  -18.0385  -50.8664 H         1 UNK         0.1150 
    139 H139       -1.8608  -21.4614  -50.5892 H         1 UNK         0.0800 
    140 H140       -1.3300  -20.5838  -52.0024 H         1 UNK         0.0800 
    141 H141       -0.5108  -19.9778  -48.2961 H         1 UNK         0.0800 
    142 H142        1.2211  -19.9806  -48.3190 H         1 UNK         0.0800 
    143 H143        1.2187  -22.4933  -48.1280 H         1 UNK         0.0600 
    144 H144        0.6590  -20.6544  -46.0672 H         1 UNK         0.3000 
    145 H145        0.9594  -22.9555  -43.3157 H         1 UNK         0.0600 
    146 H146        2.5736  -21.1745  -42.6997 H         1 UNK         0.0600 
    147 H147        3.2279  -22.1695  -43.9926 H         1 UNK         0.0600 
    148 H148        2.5845  -20.5729  -44.3554 H         1 UNK         0.0600 
    149 H149        0.3211  -20.1938  -43.3372 H         1 UNK         0.3000 
    150 H150       -3.2505  -20.5325  -43.5360 H         1 UNK         0.0600 
    151 H151       -2.5703  -20.8253  -41.1529 H         1 UNK         0.0600 
    152 H152       -2.9967  -19.1544  -41.4892 H         1 UNK         0.0600 
    153 H153       -1.3031  -19.6212  -41.3475 H         1 UNK         0.0600 
    154 H154       -1.4731  -18.2766  -43.4236 H         1 UNK         0.3000 
    155 H155       -1.1915  -17.7619  -46.9301 H         1 UNK         0.0600 
    156 H156       -2.7935  -16.2824  -44.7770 H         1 UNK         0.0600 
    157 H157       -2.1081  -15.5429  -46.2271 H         1 UNK         0.0600 
    158 H158       -3.3727  -16.7535  -46.3621 H         1 UNK         0.0600 
    159 H159       -0.2587  -16.3321  -44.6120 H         1 UNK         0.3000 
    160 H160        2.8870  -18.0871  -44.4287 H         1 UNK         0.0600 
    161 H161        3.8178  -15.8475  -44.8875 H         1 UNK         0.0600 
    162 H162        2.2645  -15.3017  -45.5165 H         1 UNK         0.0600 
    163 H163        3.1735  -16.5463  -46.3662 H         1 UNK         0.0600 
    164 H164        2.1344  -15.7762  -43.0547 H         1 UNK         0.3000 
    165 H165        0.7013  -17.4219  -40.1968 H         1 UNK         0.0600 
    166 H166        2.6613  -16.2697  -39.2025 H         1 UNK         0.0600 
    167 H167        3.1761  -17.6836  -40.1101 H         1 UNK         0.0600 
    168 H168        3.3911  -16.0756  -40.7948 H         1 UNK         0.0600 
    169 H169        1.2987  -14.7878  -41.5097 H         1 UNK         0.3000 
    170 H170       -2.0250  -13.7331  -41.0749 H         1 UNK         0.0600 
    171 H171        0.4122  -12.5823  -39.6119 H         1 UNK         0.0600 
    172 H172       -1.0786  -11.7166  -39.9880 H         1 UNK         0.0600 
    173 H173       -1.1018  -13.0520  -38.8480 H         1 UNK         0.0600 
    174 H174        0.1630  -12.2899  -42.0840 H         1 UNK         0.3000 
    175 H175        0.4886  -13.8008  -45.2751 H         1 UNK         0.0600 
    176 H176       -0.1899  -11.5584  -46.0826 H         1 UNK         0.0600 
    177 H177       -0.8757  -11.1706  -44.5070 H         1 UNK         0.0600 
    178 H178       -1.5895  -12.4398  -45.4958 H         1 UNK         0.0600 
    179 H179        1.7270  -11.5050  -44.6480 H         1 UNK         0.3000 
    180 H180        3.7064  -11.1639  -43.1236 H         1 UNK         0.0600 
    181 H181        5.2431  -13.8249  -43.1375 H         1 UNK         0.0600 
    182 H182        4.7475  -12.9281  -41.7060 H         1 UNK         0.0600 
    183 H183        5.9396  -12.2415  -42.7992 H         1 UNK         0.0600 
    184 H184        4.3977  -12.9145  -45.4546 H         1 UNK         0.3000 
    185 H185        4.3433  -10.1852  -47.6711 H         1 UNK         0.0600 
    186 H186        6.4740  -11.1739  -48.4765 H         1 UNK         0.0600 
    187 H187        6.7521  -10.2417  -47.0136 H         1 UNK         0.0600 
    188 H188        6.7053  -11.9994  -46.9355 H         1 UNK         0.0600 
    189 H189        4.7129  -13.0425  -47.9573 H         1 UNK         0.3000 
    190 H190       -1.9759  -21.4926  -46.7349 H         1 UNK         0.3000 
    191 H191       -3.5671  -23.1509  -48.3649 H         1 UNK         0.0600 
    192 H192       -4.4763  -21.2690  -47.0551 H         1 UNK         0.0600 
    193 H193       -5.3096  -22.7512  -46.6140 H         1 UNK         0.0600 
    194 H194       -4.0815  -22.0848  -45.5422 H         1 UNK         0.0600 
    195 H195       -1.7500  -23.9524  -45.4222 H         1 UNK         0.3000 
    196 H196       -2.9293  -26.5933  -45.1070 H         1 UNK         0.0600 
    197 H197       -1.0871  -26.9039  -43.4625 H         1 UNK         0.0600 
    198 H198       -1.9546  -25.4027  -43.1754 H         1 UNK         0.0600 
    199 H199       -0.3719  -25.3710  -43.9452 H         1 UNK         0.0600 
    200 H200        0.1904  -25.3321  -46.4089 H         1 UNK         0.3000 
    201 H201        1.2258  -27.9006  -47.0589 H         1 UNK         0.0600 
    202 H202        2.6591  -25.9638  -46.5248 H         1 UNK         0.0600 
    203 H203        2.0945  -25.1051  -47.9563 H         1 UNK         0.0600 
    204 H204        3.0536  -26.5718  -48.1256 H         1 UNK         0.0600 
    205 H205       -0.2863  -25.3704  -49.1365 H         1 UNK         0.3000 
    206 H206        0.0803  -27.0697  -51.5481 H         1 UNK         0.0600 
    207 H207        0.9167  -24.6834  -51.5016 H         1 UNK         0.0600 
    208 H208       -0.2675  -24.9890  -52.7605 H         1 UNK         0.0600 
    209 H209       -0.7465  -24.1347  -51.2989 H         1 UNK         0.0600 
    210 H210       -2.2291  -26.7199  -49.2335 H         1 UNK         0.3000 
    211 H211       -4.3499  -27.2545  -48.9736 H         1 UNK         0.0600 
    212 H212       -4.6226  -28.0579  -51.9118 H         1 UNK         0.0600 
    213 H213       -5.6166  -28.5743  -50.5576 H         1 UNK         0.0600 
    214 H214       -3.9545  -29.1143  -50.6691 H         1 UNK         0.0600 
    215 H215       -6.6555  -26.8308  -50.5086 H         1 UNK         0.3000 
    216 H216       -7.1574  -24.1309  -49.9187 H         1 UNK         0.0600 
    217 H217       -9.3850  -24.6139  -50.9660 H         1 UNK         0.0600 
    218 H218       -8.8926  -25.9048  -49.8823 H         1 UNK         0.0600 
    219 H219       -8.7543  -26.1163  -51.6286 H         1 UNK         0.0600 
    220 H220       -7.5278  -22.3381  -51.1225 H         1 UNK         0.3000 
    221 H221       -7.2514  -20.7500  -52.5921 H         1 UNK         0.0600 
    222 H222       -7.5276  -22.8977  -54.7662 H         1 UNK         0.0600 
    223 H223       -8.8003  -21.8874  -54.0951 H         1 UNK         0.0600 
    224 H224       -7.5192  -21.1631  -55.0492 H         1 UNK         0.0600 
    225 H225       -5.5097  -22.8765  -54.7403 H         1 UNK         0.3000 
    226 H226       -3.4764  -23.1707  -55.4478 H         1 UNK         0.0600 
    227 H227       -3.0773  -24.0972  -53.2357 H         1 UNK         0.0600 
    228 H228       -1.6233  -23.2559  -53.7558 H         1 UNK         0.0600 
    229 H229       -2.6911  -22.5193  -52.5693 H         1 UNK         0.0600 
    230 H230       -3.6220  -20.0344  -53.7864 H         1 UNK         0.3000 
    231 H231       -2.2042  -18.7634  -56.0315 H         1 UNK         0.0600 
    232 H232       -1.1624  -18.4921  -53.1595 H         1 UNK         0.0600 
    233 H233       -0.5824  -17.5935  -54.5600 H         1 UNK         0.0600 
    234 H234       -0.3408  -19.3271  -54.4682 H         1 UNK         0.0600 
    235 H235       -2.2505  -16.7190  -53.3917 H         1 UNK         0.3000 
    236 H236       -4.0040  -14.9331  -54.5766 H         1 UNK         0.0600 
    237 H237       -2.1905  -14.3500  -52.9453 H         1 UNK         0.0600 
    238 H238       -3.7242  -13.6166  -52.5018 H         1 UNK         0.0600 
    239 H239       -3.1592  -15.0371  -51.6381 H         1 UNK         0.0600 
    240 H240       -4.8140  -17.4423  -52.2317 H         1 UNK         0.3000 
    241 H241       -7.5282  -16.4566  -51.7800 H         1 UNK         0.0600 
    242 H242       -6.2257  -17.9545  -54.5852 H         1 UNK         0.3800 
    243 H243       -7.7361  -18.6595  -55.0996 H         1 UNK         0.3800 
    244 H244       -7.8156  -18.6811  -50.5626 H         1 UNK         0.0800 
    245 H245       -6.1471  -19.0388  -50.9308 H         1 UNK         0.0800 
    246 H246       -5.4787  -19.3431  -48.5072 H         1 UNK         0.0800 
    247 H247       -4.9923  -18.0130  -47.4957 H         1 UNK         0.0800 
@<TRIPOS>BOND
     1    1    2 1    
     2    1  127 1    
     3    1  128 1    
     4    1  129 1    
     5    2    3 2    
     6    2    4 am   BACKBONE|DICT|INTERRES
     7    4    5 1    
     8    4  130 1    
     9    5    6 1    
    10    5   65 1    
    11    5  131 1    
    12    6    7 1    
    13    6  132 1    
    14    6  133 1    
    15    7    8 1    
    16    8    9 1    
    17    8  134 1    
    18    8  135 1    
    19    9   10 ar   
    20    9   14 ar   
    21   10   11 ar   
    22   10  136 1    
    23   11   12 ar   
    24   11  126 1    
    25   12   13 ar   
    26   12  137 1    
    27   13   14 ar   
    28   13   15 1    
    29   14  138 1    
    30   15   16 1    
    31   15  139 1    
    32   15  140 1    
    33   16   17 1    
    34   17   18 1    
    35   17  141 1    
    36   17  142 1    
    37   18   19 1    
    38   18   67 1    
    39   18  143 1    
    40   19   20 am   BACKBONE|DICT|INTERRES
    41   19  144 1    
    42   20   21 2    
    43   20   22 1    
    44   22   23 1    
    45   22   24 1    
    46   22  145 1    
    47   23  146 1    
    48   23  147 1    
    49   23  148 1    
    50   24   25 am   BACKBONE|DICT|INTERRES
    51   24  149 1    
    52   25   26 2    
    53   25   27 1    
    54   27   28 1    
    55   27   29 1    
    56   27  150 1    
    57   28  151 1    
    58   28  152 1    
    59   28  153 1    
    60   29   30 am   BACKBONE|DICT|INTERRES
    61   29  154 1    
    62   30   31 2    
    63   30   32 1    
    64   32   33 1    
    65   32   34 1    
    66   32  155 1    
    67   33  156 1    
    68   33  157 1    
    69   33  158 1    
    70   34   35 am   BACKBONE|DICT|INTERRES
    71   34  159 1    
    72   35   36 2    
    73   35   37 1    
    74   37   38 1    
    75   37   39 1    
    76   37  160 1    
    77   38  161 1    
    78   38  162 1    
    79   38  163 1    
    80   39   40 am   BACKBONE|DICT|INTERRES
    81   39  164 1    
    82   40   41 2    
    83   40   42 1    
    84   42   43 1    
    85   42   44 1    
    86   42  165 1    
    87   43  166 1    
    88   43  167 1    
    89   43  168 1    
    90   44   45 am   BACKBONE|DICT|INTERRES
    91   44  169 1    
    92   45   46 2    
    93   45   47 1    
    94   47   48 1    
    95   47   49 1    
    96   47  170 1    
    97   48  171 1    
    98   48  172 1    
    99   48  173 1    
   100   49   50 am   BACKBONE|DICT|INTERRES
   101   49  174 1    
   102   50   51 2    
   103   50   52 1    
   104   52   53 1    
   105   52   54 1    
   106   52  175 1    
   107   53  176 1    
   108   53  177 1    
   109   53  178 1    
   110   54   55 am   BACKBONE|DICT|INTERRES
   111   54  179 1    
   112   55   56 2    
   113   55   57 1    
   114   57   58 1    
   115   57   59 1    
   116   57  180 1    
   117   58  181 1    
   118   58  182 1    
   119   58  183 1    
   120   59   60 am   BACKBONE|DICT|INTERRES
   121   59  184 1    
   122   60   61 2    
   123   60   62 1    
   124   62   63 1    
   125   62   64 1    
   126   62  185 1    
   127   63  186 1    
   128   63  187 1    
   129   63  188 1    
   130   64   65 am   BACKBONE|DICT|INTERRES
   131   64  189 1    
   132   65   66 2    
   133   67   68 2    
   134   67   69 am   BACKBONE|DICT|INTERRES
   135   69   70 1    
   136   69  190 1    
   137   70   71 1    
   138   70   72 1    
   139   70  191 1    
   140   71  192 1    
   141   71  193 1    
   142   71  194 1    
   143   72   73 2    
   144   72   74 am   BACKBONE|DICT|INTERRES
   145   74   75 1    
   146   74  195 1    
   147   75   76 1    
   148   75   77 1    
   149   75  196 1    
   150   76  197 1    
   151   76  198 1    
   152   76  199 1    
   153   77   78 2    
   154   77   79 am   BACKBONE|DICT|INTERRES
   155   79   80 1    
   156   79  200 1    
   157   80   81 1    
   158   80   82 1    
   159   80  201 1    
   160   81  202 1    
   161   81  203 1    
   162   81  204 1    
   163   82   83 2    
   164   82   84 am   BACKBONE|DICT|INTERRES
   165   84   85 1    
   166   84  205 1    
   167   85   86 1    
   168   85   87 1    
   169   85  206 1    
   170   86  207 1    
   171   86  208 1    
   172   86  209 1    
   173   87   88 2    
   174   87   89 am   BACKBONE|DICT|INTERRES
   175   89   90 1    
   176   89  210 1    
   177   90   91 1    
   178   90   92 1    
   179   90  211 1    
   180   91  212 1    
   181   91  213 1    
   182   91  214 1    
   183   92   93 2    
   184   92   94 am   BACKBONE|DICT|INTERRES
   185   94   95 1    
   186   94  215 1    
   187   95   96 1    
   188   95   97 1    
   189   95  216 1    
   190   96  217 1    
   191   96  218 1    
   192   96  219 1    
   193   97   98 2    
   194   97   99 am   BACKBONE|DICT|INTERRES
   195   99  100 1    
   196   99  220 1    
   197  100  101 1    
   198  100  102 1    
   199  100  221 1    
   200  101  222 1    
   201  101  223 1    
   202  101  224 1    
   203  102  103 2    
   204  102  104 am   BACKBONE|DICT|INTERRES
   205  104  105 1    
   206  104  225 1    
   207  105  106 1    
   208  105  107 1    
   209  105  226 1    
   210  106  227 1    
   211  106  228 1    
   212  106  229 1    
   213  107  108 2    
   214  107  109 am   BACKBONE|DICT|INTERRES
   215  109  110 1    
   216  109  230 1    
   217  110  111 1    
   218  110  112 1    
   219  110  231 1    
   220  111  232 1    
   221  111  233 1    
   222  111  234 1    
   223  112  113 2    
   224  112  114 am   BACKBONE|DICT|INTERRES
   225  114  115 1    
   226  114  235 1    
   227  115  116 1    
   228  115  117 1    
   229  115  236 1    
   230  116  237 1    
   231  116  238 1    
   232  116  239 1    
   233  117  118 2    
   234  117  119 am   BACKBONE|DICT|INTERRES
   235  119  120 1    
   236  119  240 1    
   237  120  121 1    
   238  120  124 1    
   239  120  241 1    
   240  121  122 am   BACKBONE|DICT|INTERRES
   241  121  123 2    
   242  122  242 1    
   243  122  243 1    
   244  124  125 1    
   245  124  244 1    
   246  124  245 1    
   247  125  126 1    
   248  126  246 1    
   249  126  247 1    
@<TRIPOS>SUBSTRUCTURE
     1 UNK         1 GROUP             0       ****    0 ROOT    
