@<TRIPOS>MOLECULE
3R540
247   249    1
SMALL
USER_CHARGES


@<TRIPOS>ATOM
      1 CA          4.6257  -12.4961  -51.1158 C.3       0 UNK        -0.1800 
      2 C           4.4147  -13.7852  -50.3343 C.2       0 UNK         0.5000 
      3 O           5.0032  -14.8108  -50.6764 O.2       0 UNK        -0.5000 
      4 N           3.5755  -13.7354  -49.2914 N.am      1 UNK        -0.5000 
      5 CA          3.2534  -14.8648  -48.4098 C.3       1 UNK         0.1400 
      6 C6          2.0619  -14.5399  -47.4791 C.3       23 UNK        -0.0398 
      7 S7          0.4743  -14.5013  -48.3685 S.3       23 UNK        -0.2404 
      8 C8         -0.1176  -16.1864  -48.0261 C.3       23 UNK        -0.0205 
      9 C9         -1.5050  -16.4161  -48.5981 C.ar      23 UNK        -0.0193 
     10 C10        -1.6629  -16.7951  -49.9338 C.ar      23 UNK        -0.1150 
     11 C11        -2.9338  -17.0360  -50.4658 C.ar      23 UNK        -0.0193 
     12 C12        -4.0519  -16.9022  -49.6323 C.ar      23 UNK        -0.1150 
     13 C13        -3.9076  -16.5245  -48.2949 C.ar      23 UNK        -0.0193 
     14 C14        -2.6317  -16.2674  -47.7868 C.ar      23 UNK        -0.1150 
     15 C15        -5.1341  -16.4012  -47.4019 C.3       23 UNK        -0.0205 
     16 S16        -5.0645  -17.5129  -45.9599 S.3       23 UNK        -0.2404 
     17 C17        -4.8618  -19.1531  -46.7400 C.3       23 UNK        -0.0398 
     18 CA         -3.4160  -19.7001  -46.6221 C.3       11 UNK         0.1400 
     19 N          -2.9455  -19.7290  -45.2274 N.am      11 UNK        -0.5000 
     20 C          -1.7425  -20.1369  -44.8006 C.2       10 UNK         0.5000 
     21 O          -0.8790  -20.6006  -45.5454 O.2       10 UNK        -0.5000 
     22 CA         -1.4652  -19.9857  -43.2926 C.3       10 UNK         0.1400 
     23 CB         -0.2020  -20.7419  -42.8480 C.3       10 UNK        -0.1800 
     24 N          -1.3212  -18.5773  -42.9369 N.am      10 UNK        -0.5000 
     25 C          -2.3277  -17.7119  -42.7795 C.2       9 UNK         0.5000 
     26 O          -3.5166  -18.0321  -42.8391 O.2       9 UNK        -0.5000 
     27 CA         -1.9088  -16.2544  -42.5127 C.3       9 UNK         0.1400 
     28 CB         -3.0994  -15.2735  -42.4783 C.3       9 UNK        -0.1800 
     29 N          -1.0830  -16.1329  -41.3064 N.am      9 UNK        -0.5000 
     30 C          -1.4377  -16.4118  -40.0435 C.2       8 UNK         0.5000 
     31 O          -2.5477  -16.8284  -39.7074 O.2       8 UNK        -0.5000 
     32 CA         -0.3492  -16.1551  -38.9848 C.3       8 UNK         0.1400 
     33 CB         -0.7996  -16.4678  -37.5413 C.3       8 UNK        -0.1800 
     34 N           0.9133  -16.8236  -39.3115 N.am      8 UNK        -0.5000 
     35 C           1.1739  -18.1401  -39.3216 C.2       7 UNK         0.5000 
     36 O           0.3310  -19.0002  -39.0643 O.2       7 UNK        -0.5000 
     37 CA          2.6176  -18.5849  -39.6613 C.3       7 UNK         0.1400 
     38 CB          2.6270  -19.7569  -40.6562 C.3       7 UNK        -0.1800 
     39 N           3.4603  -17.5156  -40.2005 N.am      7 UNK        -0.5000 
     40 C           4.0557  -16.5422  -39.4988 C.2       6 UNK         0.5000 
     41 O           4.0312  -16.4715  -38.2703 O.2       6 UNK        -0.5000 
     42 CA          4.7337  -15.4222  -40.3161 C.3       6 UNK         0.1400 
     43 CB          6.2157  -15.7445  -40.5552 C.3       6 UNK        -0.1800 
     44 N           4.0764  -15.1677  -41.6034 N.am      6 UNK        -0.5000 
     45 C           2.8073  -14.7561  -41.7494 C.2       5 UNK         0.5000 
     46 O           2.0525  -14.5079  -40.8090 O.2       5 UNK        -0.5000 
     47 CA          2.2673  -14.6777  -43.1851 C.3       5 UNK         0.1400 
     48 CB          2.6822  -13.3627  -43.8608 C.3       5 UNK        -0.1800 
     49 N           2.7035  -15.8299  -43.9767 N.am      5 UNK        -0.5000 
     50 C           2.1662  -17.0543  -43.8612 C.2       4 UNK         0.5000 
     51 O           1.1919  -17.3015  -43.1515 O.2       4 UNK        -0.5000 
     52 CA          2.8420  -18.2052  -44.6290 C.3       4 UNK         0.1400 
     53 CB          2.1608  -18.4403  -45.9843 C.3       4 UNK        -0.1800 
     54 N           4.2776  -17.9907  -44.8193 N.am      4 UNK        -0.5000 
     55 C           5.1764  -18.0893  -43.8282 C.2       3 UNK         0.5000 
     56 O           4.8774  -18.3910  -42.6740 O.2       3 UNK        -0.5000 
     57 CA          6.6440  -17.7533  -44.1570 C.3       3 UNK         0.1400 
     58 CB          7.3981  -19.0177  -44.5936 C.3       3 UNK        -0.1800 
     59 N           6.8015  -16.7221  -45.1829 N.am      3 UNK        -0.5000 
     60 C           6.3205  -15.4737  -45.1131 C.2       2 UNK         0.5000 
     61 O           5.6868  -15.0431  -44.1477 O.2       2 UNK        -0.5000 
     62 CA          6.5281  -14.5705  -46.3485 C.3       2 UNK         0.1400 
     63 CB          7.6553  -15.0514  -47.2889 C.3       2 UNK        -0.1800 
     64 N           5.2908  -14.3794  -47.1153 N.am      2 UNK        -0.5000 
     65 C           4.4663  -15.3332  -47.5795 C.2       1 UNK         0.5000 
     66 O           4.6224  -16.5387  -47.3801 O.2       1 UNK        -0.5000 
     67 C          -3.3085  -21.0656  -47.3333 C.2       11 UNK         0.5000 
     68 O          -3.0496  -21.1118  -48.5354 O.2       11 UNK        -0.5000 
     69 N          -3.4556  -22.1553  -46.5654 N.am      12 UNK        -0.5000 
     70 CA         -3.3142  -23.5389  -47.0172 C.3       12 UNK         0.1400 
     71 CB         -3.7070  -24.4828  -45.8718 C.3       12 UNK        -0.1800 
     72 C          -1.9157  -23.8993  -47.5608 C.2       12 UNK         0.5000 
     73 O          -1.8027  -24.8744  -48.3052 O.2       12 UNK        -0.5000 
     74 N          -0.8853  -23.1068  -47.2239 N.am      13 UNK        -0.5000 
     75 CA          0.4678  -23.2343  -47.7708 C.3       13 UNK         0.1400 
     76 CB          1.4147  -22.2820  -47.0257 C.3       13 UNK        -0.1800 
     77 C           0.5306  -22.9733  -49.2889 C.2       13 UNK         0.5000 
     78 O           1.3888  -23.5424  -49.9647 O.2       13 UNK        -0.5000 
     79 N          -0.4012  -22.1637  -49.8127 N.am      14 UNK        -0.5000 
     80 CA         -0.5758  -21.8952  -51.2382 C.3       14 UNK         0.1400 
     81 CB         -1.1944  -20.4971  -51.4093 C.3       14 UNK        -0.1800 
     82 C          -1.4162  -23.0036  -51.9035 C.2       14 UNK         0.5000 
     83 O          -2.4834  -22.7253  -52.4488 O.2       14 UNK        -0.5000 
     84 N          -0.9333  -24.2523  -51.8171 N.am      15 UNK        -0.5000 
     85 CA         -1.5089  -25.4684  -52.4065 C.3       15 UNK         0.1400 
     86 CB         -1.2876  -25.4623  -53.9327 C.3       15 UNK        -0.1800 
     87 C          -2.9854  -25.6935  -52.0109 C.2       15 UNK         0.5000 
     88 O          -3.8485  -25.8541  -52.8758 O.2       15 UNK        -0.5000 
     89 N          -3.2496  -25.6428  -50.6969 N.am      16 UNK        -0.5000 
     90 CA         -4.5667  -25.7327  -50.0533 C.3       16 UNK         0.1400 
     91 CB         -5.2492  -27.0842  -50.3533 C.3       16 UNK        -0.1800 
     92 C          -5.4878  -24.5273  -50.3467 C.2       16 UNK         0.5000 
     93 O          -6.6945  -24.6225  -50.1212 O.2       16 UNK        -0.5000 
     94 N          -4.9165  -23.4226  -50.8522 N.am      17 UNK        -0.5000 
     95 CA         -5.5270  -22.1460  -51.2506 C.3       17 UNK         0.1400 
     96 CB         -6.2674  -21.4854  -50.0733 C.3       17 UNK        -0.1800 
     97 C          -6.4314  -22.2383  -52.4965 C.2       17 UNK         0.5000 
     98 O          -6.4450  -21.3122  -53.3077 O.2       17 UNK        -0.5000 
     99 N          -7.1661  -23.3471  -52.6411 N.am      18 UNK        -0.5000 
    100 CA        -8.0976  -23.6248  -53.7313 C.3       18 UNK         0.1400 
    101 CB        -8.8671  -24.9170  -53.4199 C.3       18 UNK        -0.1800 
    102 C         -7.4167  -23.7151  -55.1073 C.2       18 UNK         0.5000 
    103 O         -7.9349  -23.1516  -56.0713 O.2       18 UNK        -0.5000 
    104 N         -6.2583  -24.3881  -55.1764 N.am      19 UNK        -0.5000 
    105 CA        -5.4898  -24.5546  -56.4149 C.3       19 UNK         0.1400 
    106 CB        -4.4756  -25.6930  -56.2438 C.3       19 UNK        -0.1800 
    107 C         -4.7875  -23.2586  -56.8626 C.2       19 UNK         0.5000 
    108 O         -4.5957  -23.0551  -58.0617 O.2       19 UNK        -0.5000 
    109 N         -4.4484  -22.3943  -55.8970 N.am      20 UNK        -0.5000 
    110 CA        -3.9114  -21.0517  -56.1258 C.3       20 UNK         0.1400 
    111 CB        -3.0628  -20.6519  -54.9106 C.3       20 UNK        -0.1800 
    112 C         -5.0109  -20.0045  -56.4059 C.2       20 UNK         0.5000 
    113 O         -4.6816  -18.8748  -56.7697 O.2       20 UNK        -0.5000 
    114 N         -6.2841  -20.3965  -56.2408 N.am      21 UNK        -0.5000 
    115 CA        -7.5026  -19.5997  -56.4045 C.3       21 UNK         0.1400 
    116 CB        -7.6969  -19.1896  -57.8793 C.3       21 UNK        -0.1800 
    117 C         -7.5765  -18.4119  -55.4224 C.2       21 UNK         0.5000 
    118 O         -7.9803  -17.3127  -55.8085 O.2       21 UNK        -0.5000 
    119 N         -7.1856  -18.6599  -54.1675 N.am      22 UNK        -0.5000 
    120 CA        -7.1393  -17.6718  -53.0782 C.3       22 UNK         0.1400 
    121 C         -7.8497  -18.1369  -51.7742 C.2       22 UNK         0.5000 
    122 N         -8.5765  -19.2482  -51.7769 N.am      22 UNK        -0.7600 
    123 O         -7.7718  -17.4638  -50.7500 O.2       22 UNK        -0.5000 
    124 C124       -5.7001  -17.1432  -52.8472 C.3       23 UNK        -0.0398 
    125 S125       -4.4980  -18.4346  -52.3728 S.3       23 UNK        -0.2404 
    126 C126       -3.0516  -17.4087  -51.9442 C.3       23 UNK        -0.0205 
    127 H127        4.3338  -12.6363  -52.1566 H         1 UNK         0.0600 
    128 H128        4.0400  -11.6726  -50.7066 H         1 UNK         0.0600 
    129 H129        5.6773  -12.2105  -51.0909 H         1 UNK         0.0600 
    130 H130        3.1017  -12.8678  -49.0837 H         1 UNK         0.3000 
    131 H131        2.9716  -15.7083  -49.0442 H         1 UNK         0.0600 
    132 H132        2.2083  -13.5655  -47.0133 H         1 UNK         0.0800 
    133 H133        1.9810  -15.2531  -46.6584 H         1 UNK         0.0800 
    134 H134       -0.1283  -16.3600  -46.9487 H         1 UNK         0.0800 
    135 H135        0.5799  -16.9106  -48.4499 H         1 UNK         0.0800 
    136 H136       -0.7895  -16.8973  -50.5627 H         1 UNK         0.1150 
    137 H137       -5.0433  -17.0917  -50.0154 H         1 UNK         0.1150 
    138 H138       -2.5172  -15.9747  -46.7524 H         1 UNK         0.1150 
    139 H139       -5.2152  -15.3716  -47.0512 H         1 UNK         0.0800 
    140 H140       -6.0474  -16.6085  -47.9624 H         1 UNK         0.0800 
    141 H141       -5.5661  -19.8355  -46.2611 H         1 UNK         0.0800 
    142 H142       -5.1665  -19.0928  -47.7868 H         1 UNK         0.0800 
    143 H143       -2.7503  -19.0232  -47.1599 H         1 UNK         0.0600 
    144 H144       -3.5580  -19.2911  -44.5474 H         1 UNK         0.3000 
    145 H145       -2.3142  -20.4085  -42.7514 H         1 UNK         0.0600 
    146 H146       -0.0571  -20.6602  -41.7708 H         1 UNK         0.0600 
    147 H147       -0.2771  -21.8035  -43.0866 H         1 UNK         0.0600 
    148 H148        0.6919  -20.3575  -43.3396 H         1 UNK         0.0600 
    149 H149       -0.3717  -18.2109  -42.9085 H         1 UNK         0.3000 
    150 H150       -1.2750  -15.9596  -43.3505 H         1 UNK         0.0600 
    151 H151       -3.6510  -15.3021  -43.4190 H         1 UNK         0.0600 
    152 H152       -2.7609  -14.2480  -42.3310 H         1 UNK         0.0600 
    153 H153       -3.8046  -15.5123  -41.6818 H         1 UNK         0.0600 
    154 H154       -0.1228  -15.8614  -41.4666 H         1 UNK         0.3000 
    155 H155       -0.1384  -15.0853  -39.0255 H         1 UNK         0.0600 
    156 H156       -0.0057  -16.2536  -36.8258 H         1 UNK         0.0600 
    157 H157       -1.0906  -17.5111  -37.4180 H         1 UNK         0.0600 
    158 H158       -1.6596  -15.8574  -37.2636 H         1 UNK         0.0600 
    159 H159        1.6596  -16.1967  -39.5873 H         1 UNK         0.3000 
    160 H160        3.0637  -18.9359  -38.7289 H         1 UNK         0.0600 
    161 H161        2.2010  -19.4643  -41.6151 H         1 UNK         0.0600 
    162 H162        2.0525  -20.6047  -40.2815 H         1 UNK         0.0600 
    163 H163        3.6417  -20.1121  -40.8365 H         1 UNK         0.0600 
    164 H164        3.6080  -17.5322  -41.2026 H         1 UNK         0.3000 
    165 H165        4.6744  -14.5030  -39.7298 H         1 UNK         0.0600 
    166 H166        6.3402  -16.6828  -41.0946 H         1 UNK         0.0600 
    167 H167        6.7058  -14.9579  -41.1295 H         1 UNK         0.0600 
    168 H168        6.7500  -15.8393  -39.6091 H         1 UNK         0.0600 
    169 H169        4.6372  -15.3074  -42.4376 H         1 UNK         0.3000 
    170 H170        1.1767  -14.6837  -43.1270 H         1 UNK         0.0600 
    171 H171        2.4515  -12.5081  -43.2232 H         1 UNK         0.0600 
    172 H172        3.7487  -13.3262  -44.0795 H         1 UNK         0.0600 
    173 H173        2.1386  -13.2153  -44.7912 H         1 UNK         0.0600 
    174 H174        3.5585  -15.7208  -44.5050 H         1 UNK         0.3000 
    175 H175        2.7111  -19.1121  -44.0355 H         1 UNK         0.0600 
    176 H176        1.0931  -18.6259  -45.8592 H         1 UNK         0.0600 
    177 H177        2.2709  -17.5863  -46.6496 H         1 UNK         0.0600 
    178 H178        2.5836  -19.3093  -46.4881 H         1 UNK         0.0600 
    179 H179        4.5818  -17.6908  -45.7412 H         1 UNK         0.3000 
    180 H180        7.1090  -17.3789  -43.2435 H         1 UNK         0.0600 
    181 H181        7.3207  -19.7995  -43.8367 H         1 UNK         0.0600 
    182 H182        7.0000  -19.4216  -45.5253 H         1 UNK         0.0600 
    183 H183        8.4589  -18.8141  -44.7409 H         1 UNK         0.0600 
    184 H184        7.2696  -17.0020  -46.0324 H         1 UNK         0.3000 
    185 H185        6.8142  -13.5909  -45.9628 H         1 UNK         0.0600 
    186 H186        8.5921  -15.1873  -46.7467 H         1 UNK         0.0600 
    187 H187        7.4109  -15.9940  -47.7801 H         1 UNK         0.0600 
    188 H188        7.8435  -14.3169  -48.0721 H         1 UNK         0.0600 
    189 H189        5.0585  -13.4192  -47.3255 H         1 UNK         0.3000 
    190 H190       -3.6457  -22.0204  -45.5833 H         1 UNK         0.3000 
    191 H191       -4.0226  -23.6777  -47.8342 H         1 UNK         0.0600 
    192 H192       -3.6478  -25.5259  -46.1858 H         1 UNK         0.0600 
    193 H193       -4.7310  -24.3023  -45.5443 H         1 UNK         0.0600 
    194 H194       -3.0505  -24.3618  -45.0092 H         1 UNK         0.0600 
    195 H195       -1.0481  -22.3088  -46.6175 H         1 UNK         0.3000 
    196 H196        0.8041  -24.2583  -47.5956 H         1 UNK         0.0600 
    197 H197        2.4447  -22.4144  -47.3591 H         1 UNK         0.0600 
    198 H198        1.3939  -22.4610  -45.9504 H         1 UNK         0.0600 
    199 H199        1.1470  -21.2388  -47.1969 H         1 UNK         0.0600 
    200 H200       -1.1158  -21.7824  -49.2028 H         1 UNK         0.3000 
    201 H201        0.3998  -21.8854  -51.7285 H         1 UNK         0.0600 
    202 H202       -0.5814  -19.7312  -50.9343 H         1 UNK         0.0600 
    203 H203       -2.1947  -20.4385  -50.9786 H         1 UNK         0.0600 
    204 H204       -1.2790  -20.2387  -52.4651 H         1 UNK         0.0600 
    205 H205       -0.0650  -24.3743  -51.3084 H         1 UNK         0.3000 
    206 H206       -0.9511  -26.3108  -51.9952 H         1 UNK         0.0600 
    207 H207       -0.2274  -25.3900  -54.1748 H         1 UNK         0.0600 
    208 H208       -1.6610  -26.3801  -54.3884 H         1 UNK         0.0600 
    209 H209       -1.7949  -24.6233  -54.4101 H         1 UNK         0.0600 
    210 H210       -2.4821  -25.4639  -50.0545 H         1 UNK         0.3000 
    211 H211       -4.3755  -25.7098  -48.9807 H         1 UNK         0.0600 
    212 H212       -5.5794  -27.1547  -51.3899 H         1 UNK         0.0600 
    213 H213       -6.1291  -27.2247  -49.7244 H         1 UNK         0.0600 
    214 H214       -4.5764  -27.9188  -50.1565 H         1 UNK         0.0600 
    215 H215       -3.9326  -23.4810  -51.0869 H         1 UNK         0.3000 
    216 H216       -4.6934  -21.4940  -51.5156 H         1 UNK         0.0600 
    217 H217       -5.6626  -21.4936  -49.1682 H         1 UNK         0.0600 
    218 H218       -7.2098  -21.9859  -49.8498 H         1 UNK         0.0600 
    219 H219       -6.4931  -20.4435  -50.2988 H         1 UNK         0.0600 
    220 H220       -7.1206  -24.0276  -51.8889 H         1 UNK         0.3000 
    221 H221       -8.8145  -22.8021  -53.7706 H         1 UNK         0.0600 
    222 H222       -8.1968  -25.7722  -53.3241 H         1 UNK         0.0600 
    223 H223       -9.4280  -24.8263  -52.4894 H         1 UNK         0.0600 
    224 H224       -9.5835  -25.1462  -54.2099 H         1 UNK         0.0600 
    225 H225       -5.8778  -24.8098  -54.3394 H         1 UNK         0.3000 
    226 H226       -6.1826  -24.8430  -57.2086 H         1 UNK         0.0600 
    227 H227       -4.9658  -26.6219  -55.9521 H         1 UNK         0.0600 
    228 H228       -3.9411  -25.8835  -57.1752 H         1 UNK         0.0600 
    229 H229       -3.7338  -25.4522  -55.4851 H         1 UNK         0.0600 
    230 H230       -4.6415  -22.6414  -54.9368 H         1 UNK         0.3000 
    231 H231       -3.2569  -21.0702  -56.9996 H         1 UNK         0.0600 
    232 H232       -3.6375  -20.7153  -53.9867 H         1 UNK         0.0600 
    233 H233       -2.1960  -21.3046  -54.8076 H         1 UNK         0.0600 
    234 H234       -2.6913  -19.6304  -54.9994 H         1 UNK         0.0600 
    235 H235       -6.4366  -21.3429  -55.9198 H         1 UNK         0.3000 
    236 H236       -8.3298  -20.2594  -56.1388 H         1 UNK         0.0600 
    237 H237       -7.6553  -20.0576  -58.5373 H         1 UNK         0.0600 
    238 H238       -8.6684  -18.7171  -58.0283 H         1 UNK         0.0600 
    239 H239       -6.9358  -18.4816  -58.2085 H         1 UNK         0.0600 
    240 H240       -6.8447  -19.5889  -53.9267 H         1 UNK         0.3000 
    241 H241       -7.7340  -16.8075  -53.3781 H         1 UNK         0.0600 
    242 H242       -8.6597  -19.8033  -52.6127 H         1 UNK         0.3800 
    243 H243       -9.0521  -19.5289  -50.9347 H         1 UNK         0.3800 
    244 H244       -5.7010  -16.3501  -52.0986 H         1 UNK         0.0800 
    245 H245       -5.3405  -16.6768  -53.7653 H         1 UNK         0.0800 
    246 H246       -3.0597  -16.4947  -52.5390 H         1 UNK         0.0800 
    247 H247       -2.1609  -17.9565  -52.2515 H         1 UNK         0.0800 
@<TRIPOS>BOND
     1    1    2 1    
     2    1  127 1    
     3    1  128 1    
     4    1  129 1    
     5    2    3 2    
     6    2    4 am   BACKBONE|DICT|INTERRES
     7    4    5 1    
     8    4  130 1    
     9    5    6 1    
    10    5   65 1    
    11    5  131 1    
    12    6    7 1    
    13    6  132 1    
    14    6  133 1    
    15    7    8 1    
    16    8    9 1    
    17    8  134 1    
    18    8  135 1    
    19    9   10 ar   
    20    9   14 ar   
    21   10   11 ar   
    22   10  136 1    
    23   11   12 ar   
    24   11  126 1    
    25   12   13 ar   
    26   12  137 1    
    27   13   14 ar   
    28   13   15 1    
    29   14  138 1    
    30   15   16 1    
    31   15  139 1    
    32   15  140 1    
    33   16   17 1    
    34   17   18 1    
    35   17  141 1    
    36   17  142 1    
    37   18   19 1    
    38   18   67 1    
    39   18  143 1    
    40   19   20 am   BACKBONE|DICT|INTERRES
    41   19  144 1    
    42   20   21 2    
    43   20   22 1    
    44   22   23 1    
    45   22   24 1    
    46   22  145 1    
    47   23  146 1    
    48   23  147 1    
    49   23  148 1    
    50   24   25 am   BACKBONE|DICT|INTERRES
    51   24  149 1    
    52   25   26 2    
    53   25   27 1    
    54   27   28 1    
    55   27   29 1    
    56   27  150 1    
    57   28  151 1    
    58   28  152 1    
    59   28  153 1    
    60   29   30 am   BACKBONE|DICT|INTERRES
    61   29  154 1    
    62   30   31 2    
    63   30   32 1    
    64   32   33 1    
    65   32   34 1    
    66   32  155 1    
    67   33  156 1    
    68   33  157 1    
    69   33  158 1    
    70   34   35 am   BACKBONE|DICT|INTERRES
    71   34  159 1    
    72   35   36 2    
    73   35   37 1    
    74   37   38 1    
    75   37   39 1    
    76   37  160 1    
    77   38  161 1    
    78   38  162 1    
    79   38  163 1    
    80   39   40 am   BACKBONE|DICT|INTERRES
    81   39  164 1    
    82   40   41 2    
    83   40   42 1    
    84   42   43 1    
    85   42   44 1    
    86   42  165 1    
    87   43  166 1    
    88   43  167 1    
    89   43  168 1    
    90   44   45 am   BACKBONE|DICT|INTERRES
    91   44  169 1    
    92   45   46 2    
    93   45   47 1    
    94   47   48 1    
    95   47   49 1    
    96   47  170 1    
    97   48  171 1    
    98   48  172 1    
    99   48  173 1    
   100   49   50 am   BACKBONE|DICT|INTERRES
   101   49  174 1    
   102   50   51 2    
   103   50   52 1    
   104   52   53 1    
   105   52   54 1    
   106   52  175 1    
   107   53  176 1    
   108   53  177 1    
   109   53  178 1    
   110   54   55 am   BACKBONE|DICT|INTERRES
   111   54  179 1    
   112   55   56 2    
   113   55   57 1    
   114   57   58 1    
   115   57   59 1    
   116   57  180 1    
   117   58  181 1    
   118   58  182 1    
   119   58  183 1    
   120   59   60 am   BACKBONE|DICT|INTERRES
   121   59  184 1    
   122   60   61 2    
   123   60   62 1    
   124   62   63 1    
   125   62   64 1    
   126   62  185 1    
   127   63  186 1    
   128   63  187 1    
   129   63  188 1    
   130   64   65 am   BACKBONE|DICT|INTERRES
   131   64  189 1    
   132   65   66 2    
   133   67   68 2    
   134   67   69 am   BACKBONE|DICT|INTERRES
   135   69   70 1    
   136   69  190 1    
   137   70   71 1    
   138   70   72 1    
   139   70  191 1    
   140   71  192 1    
   141   71  193 1    
   142   71  194 1    
   143   72   73 2    
   144   72   74 am   BACKBONE|DICT|INTERRES
   145   74   75 1    
   146   74  195 1    
   147   75   76 1    
   148   75   77 1    
   149   75  196 1    
   150   76  197 1    
   151   76  198 1    
   152   76  199 1    
   153   77   78 2    
   154   77   79 am   BACKBONE|DICT|INTERRES
   155   79   80 1    
   156   79  200 1    
   157   80   81 1    
   158   80   82 1    
   159   80  201 1    
   160   81  202 1    
   161   81  203 1    
   162   81  204 1    
   163   82   83 2    
   164   82   84 am   BACKBONE|DICT|INTERRES
   165   84   85 1    
   166   84  205 1    
   167   85   86 1    
   168   85   87 1    
   169   85  206 1    
   170   86  207 1    
   171   86  208 1    
   172   86  209 1    
   173   87   88 2    
   174   87   89 am   BACKBONE|DICT|INTERRES
   175   89   90 1    
   176   89  210 1    
   177   90   91 1    
   178   90   92 1    
   179   90  211 1    
   180   91  212 1    
   181   91  213 1    
   182   91  214 1    
   183   92   93 2    
   184   92   94 am   BACKBONE|DICT|INTERRES
   185   94   95 1    
   186   94  215 1    
   187   95   96 1    
   188   95   97 1    
   189   95  216 1    
   190   96  217 1    
   191   96  218 1    
   192   96  219 1    
   193   97   98 2    
   194   97   99 am   BACKBONE|DICT|INTERRES
   195   99  100 1    
   196   99  220 1    
   197  100  101 1    
   198  100  102 1    
   199  100  221 1    
   200  101  222 1    
   201  101  223 1    
   202  101  224 1    
   203  102  103 2    
   204  102  104 am   BACKBONE|DICT|INTERRES
   205  104  105 1    
   206  104  225 1    
   207  105  106 1    
   208  105  107 1    
   209  105  226 1    
   210  106  227 1    
   211  106  228 1    
   212  106  229 1    
   213  107  108 2    
   214  107  109 am   BACKBONE|DICT|INTERRES
   215  109  110 1    
   216  109  230 1    
   217  110  111 1    
   218  110  112 1    
   219  110  231 1    
   220  111  232 1    
   221  111  233 1    
   222  111  234 1    
   223  112  113 2    
   224  112  114 am   BACKBONE|DICT|INTERRES
   225  114  115 1    
   226  114  235 1    
   227  115  116 1    
   228  115  117 1    
   229  115  236 1    
   230  116  237 1    
   231  116  238 1    
   232  116  239 1    
   233  117  118 2    
   234  117  119 am   BACKBONE|DICT|INTERRES
   235  119  120 1    
   236  119  240 1    
   237  120  121 1    
   238  120  124 1    
   239  120  241 1    
   240  121  122 am   BACKBONE|DICT|INTERRES
   241  121  123 2    
   242  122  242 1    
   243  122  243 1    
   244  124  125 1    
   245  124  244 1    
   246  124  245 1    
   247  125  126 1    
   248  126  246 1    
   249  126  247 1    
@<TRIPOS>SUBSTRUCTURE
     1 UNK         1 GROUP             0       ****    0 ROOT    
