@<TRIPOS>MOLECULE
3R540
247   249    1
SMALL
USER_CHARGES


@<TRIPOS>ATOM
      1 CA          2.7860  -14.8786  -48.9769 C.3       0 UNK        -0.1800 
      2 C           1.5209  -15.6732  -48.6891 C.2       0 UNK         0.5000 
      3 O           1.5142  -16.4967  -47.7765 O.2       0 UNK        -0.5000 
      4 N           0.4583  -15.4346  -49.4687 N.am      1 UNK        -0.5000 
      5 CA         -0.8403  -16.1112  -49.3400 C.3       1 UNK         0.1400 
      6 C6         -1.5782  -16.2372  -50.6980 C.3       23 UNK        -0.0398 
      7 S7         -0.5922  -17.0740  -51.9858 S.3       23 UNK        -0.2404 
      8 C8         -0.6963  -18.8121  -51.4568 C.3       23 UNK        -0.0205 
      9 C9          0.6748  -19.4639  -51.4890 C.ar      23 UNK        -0.0193 
     10 C10         1.0163  -20.3388  -52.5234 C.ar      23 UNK        -0.1150 
     11 C11         2.2899  -20.9199  -52.5832 C.ar      23 UNK        -0.0193 
     12 C12         3.2188  -20.6024  -51.5873 C.ar      23 UNK        -0.1150 
     13 C13         2.8889  -19.7336  -50.5436 C.ar      23 UNK        -0.0193 
     14 C14         1.6113  -19.1737  -50.4941 C.ar      23 UNK        -0.1150 
     15 C15         3.9304  -19.3788  -49.4958 C.3       23 UNK        -0.0205 
     16 S16         4.0771  -20.6713  -48.2256 S.3       23 UNK        -0.2404 
     17 C17         2.7494  -20.2147  -47.0641 C.3       23 UNK        -0.0398 
     18 CA          1.7733  -21.3877  -46.7746 C.3       11 UNK         0.1400 
     19 N           1.5145  -21.5391  -45.3378 N.am      11 UNK        -0.5000 
     20 C           0.8439  -22.5537  -44.7742 C.2       10 UNK         0.5000 
     21 O           0.4180  -23.5225  -45.4018 O.2       10 UNK        -0.5000 
     22 CA          0.5570  -22.4437  -43.2639 C.3       10 UNK         0.1400 
     23 CB          1.7503  -22.9449  -42.4376 C.3       10 UNK        -0.1800 
     24 N           0.2082  -21.0806  -42.8574 N.am      10 UNK        -0.5000 
     25 C          -0.8984  -20.4364  -43.2563 C.2       9 UNK         0.5000 
     26 O          -1.7762  -20.9579  -43.9422 O.2       9 UNK        -0.5000 
     27 CA         -1.0205  -18.9478  -42.8792 C.3       9 UNK         0.1400 
     28 CB         -1.5488  -18.7869  -41.4466 C.3       9 UNK        -0.1800 
     29 N           0.2458  -18.2282  -43.0190 N.am      9 UNK        -0.5000 
     30 C           0.9145  -18.0722  -44.1706 C.2       8 UNK         0.5000 
     31 O           0.4996  -18.4753  -45.2551 O.2       8 UNK        -0.5000 
     32 CA          2.3122  -17.4337  -44.0806 C.3       8 UNK         0.1400 
     33 CB          2.2344  -15.9015  -44.0676 C.3       8 UNK        -0.1800 
     34 N           3.0422  -17.8947  -42.8996 N.am      8 UNK        -0.5000 
     35 C           3.5372  -19.1314  -42.7543 C.2       7 UNK         0.5000 
     36 O           3.4479  -20.0070  -43.6135 O.2       7 UNK        -0.5000 
     37 CA          4.2072  -19.4537  -41.4065 C.3       7 UNK         0.1400 
     38 CB          5.6583  -18.9508  -41.3873 C.3       7 UNK        -0.1800 
     39 N           3.4796  -18.8841  -40.2718 N.am      7 UNK        -0.5000 
     40 C           2.2571  -19.2762  -39.8866 C.2       6 UNK         0.5000 
     41 O           1.6326  -20.1900  -40.4247 O.2       6 UNK        -0.5000 
     42 CA          1.6038  -18.4782  -38.7416 C.3       6 UNK         0.1400 
     43 CB          2.0230  -19.0490  -37.3788 C.3       6 UNK        -0.1800 
     44 N           1.9019  -17.0418  -38.7813 N.am      6 UNK        -0.5000 
     45 C           1.5792  -16.2280  -39.7943 C.2       5 UNK         0.5000 
     46 O           1.0231  -16.6107  -40.8280 O.2       5 UNK        -0.5000 
     47 CA          1.9741  -14.7527  -39.6529 C.3       5 UNK         0.1400 
     48 CB          3.4819  -14.5588  -39.8905 C.3       5 UNK        -0.1800 
     49 N           1.2227  -14.0005  -40.6474 N.am      5 UNK        -0.5000 
     50 C           0.8514  -12.7198  -40.5745 C.2       4 UNK         0.5000 
     51 O           1.1579  -11.9703  -39.6464 O.2       4 UNK        -0.5000 
     52 CA         -0.0087  -12.1833  -41.7367 C.3       4 UNK         0.1400 
     53 CB          0.8460  -11.3327  -42.6891 C.3       4 UNK        -0.1800 
     54 N          -0.6573  -13.2412  -42.5161 N.am      4 UNK        -0.5000 
     55 C          -1.7212  -13.9560  -42.1310 C.2       3 UNK         0.5000 
     56 O          -2.2929  -13.7885  -41.0527 O.2       3 UNK        -0.5000 
     57 CA         -2.2308  -15.0178  -43.1334 C.3       3 UNK         0.1400 
     58 CB         -3.4984  -15.7415  -42.6441 C.3       3 UNK        -0.1800 
     59 N          -2.4977  -14.4582  -44.4628 N.am      3 UNK        -0.5000 
     60 C          -1.5682  -14.1409  -45.3711 C.2       2 UNK         0.5000 
     61 O          -0.3580  -14.2508  -45.1701 O.2       2 UNK        -0.5000 
     62 CA         -2.0573  -13.5634  -46.7078 C.3       2 UNK         0.1400 
     63 CB         -1.7573  -12.0585  -46.7874 C.3       2 UNK        -0.1800 
     64 N          -1.3829  -14.2469  -47.8082 N.am      2 UNK        -0.5000 
     65 C          -1.7549  -15.4393  -48.2923 C.2       1 UNK         0.5000 
     66 O          -2.7906  -16.0088  -47.9483 O.2       1 UNK        -0.5000 
     67 C           0.4613  -21.2559  -47.5786 C.2       11 UNK         0.5000 
     68 O           0.3002  -21.9157  -48.6044 O.2       11 UNK        -0.5000 
     69 N          -0.4747  -20.4477  -47.0610 N.am      12 UNK        -0.5000 
     70 CA         -1.8271  -20.2873  -47.5889 C.3       12 UNK         0.1400 
     71 CB         -2.5369  -19.1430  -46.8525 C.3       12 UNK        -0.1800 
     72 C          -2.6438  -21.5883  -47.5192 C.2       12 UNK         0.5000 
     73 O          -3.2508  -21.9669  -48.5180 O.2       12 UNK        -0.5000 
     74 N          -2.6024  -22.2749  -46.3679 N.am      13 UNK        -0.5000 
     75 CA         -3.2683  -23.5599  -46.1375 C.3       13 UNK         0.1400 
     76 CB         -3.1322  -23.9538  -44.6597 C.3       13 UNK        -0.1800 
     77 C          -2.7555  -24.6901  -47.0506 C.2       13 UNK         0.5000 
     78 O          -3.5465  -25.5363  -47.4681 O.2       13 UNK        -0.5000 
     79 N          -1.4594  -24.6632  -47.3929 N.am      14 UNK        -0.5000 
     80 CA         -0.8360  -25.5651  -48.3661 C.3       14 UNK         0.1400 
     81 CB          0.6917  -25.4209  -48.2933 C.3       14 UNK        -0.1800 
     82 C          -1.3430  -25.3565  -49.8101 C.2       14 UNK         0.5000 
     83 O          -1.2591  -26.2837  -50.6158 O.2       14 UNK        -0.5000 
     84 N          -1.8957  -24.1708  -50.0989 N.am      15 UNK        -0.5000 
     85 CA         -2.5813  -23.8239  -51.3441 C.3       15 UNK         0.1400 
     86 CB         -2.1226  -22.4235  -51.7852 C.3       15 UNK        -0.1800 
     87 C          -4.1178  -23.9136  -51.1945 C.2       15 UNK         0.5000 
     88 O          -4.8432  -23.3475  -52.0153 O.2       15 UNK        -0.5000 
     89 N          -4.5928  -24.6236  -50.1578 N.am      16 UNK        -0.5000 
     90 CA         -5.9901  -24.8333  -49.7753 C.3       16 UNK         0.1400 
     91 CB         -6.7333  -25.6765  -50.8365 C.3       16 UNK        -0.1800 
     92 C          -6.6789  -23.5005  -49.4247 C.2       16 UNK         0.5000 
     93 O          -6.3949  -22.9359  -48.3679 O.2       16 UNK        -0.5000 
     94 N          -7.5680  -23.0230  -50.3042 N.am      17 UNK        -0.5000 
     95 CA         -8.2409  -21.7297  -50.1801 C.3       17 UNK         0.1400 
     96 CB         -9.5203  -21.7556  -51.0318 C.3       17 UNK        -0.1800 
     97 C          -7.3472  -20.5455  -50.5986 C.2       17 UNK         0.5000 
     98 O          -7.6392  -19.4134  -50.2124 O.2       17 UNK        -0.5000 
     99 N          -6.3061  -20.8199  -51.4026 N.am      18 UNK        -0.5000 
    100 CA        -5.3597  -19.8681  -51.9978 C.3       18 UNK         0.1400 
    101 CB        -4.4685  -19.2323  -50.9125 C.3       18 UNK        -0.1800 
    102 C         -6.0259  -18.8141  -52.9142 C.2       18 UNK         0.5000 
    103 O         -5.5066  -17.7065  -53.0658 O.2       18 UNK        -0.5000 
    104 N         -7.1743  -19.1754  -53.5071 N.am      19 UNK        -0.5000 
    105 CA        -8.0670  -18.2870  -54.2592 C.3       19 UNK         0.1400 
    106 CB        -9.3790  -19.0342  -54.5439 C.3       19 UNK        -0.1800 
    107 C         -7.4695  -17.7272  -55.5649 C.2       19 UNK         0.5000 
    108 O         -7.8888  -16.6592  -56.0125 O.2       19 UNK        -0.5000 
    109 N         -6.4990  -18.4460  -56.1377 N.am      20 UNK        -0.5000 
    110 CA        -5.7237  -18.0490  -57.3121 C.3       20 UNK         0.1400 
    111 CB        -6.1395  -18.9209  -58.5111 C.3       20 UNK        -0.1800 
    112 C         -4.2240  -18.1530  -56.9843 C.2       20 UNK         0.5000 
    113 O         -3.4429  -18.6505  -57.7988 O.2       20 UNK        -0.5000 
    114 N         -3.8579  -17.7295  -55.7638 N.am      21 UNK        -0.5000 
    115 CA        -2.5484  -17.9045  -55.1321 C.3       21 UNK         0.1400 
    116 CB        -1.4740  -17.0356  -55.8236 C.3       21 UNK        -0.1800 
    117 C         -2.2061  -19.4047  -55.0416 C.2       21 UNK         0.5000 
    118 O         -2.9943  -20.1519  -54.4633 O.2       21 UNK        -0.5000 
    119 N         -1.0843  -19.8296  -55.6330 N.am      22 UNK        -0.5000 
    120 CA        -0.7066  -21.2468  -55.7609 C.3       22 UNK         0.1400 
    121 C         -1.4112  -22.0006  -56.9309 C.2       22 UNK         0.5000 
    122 N         -2.2381  -21.3592  -57.7496 N.am      22 UNK        -0.7600 
    123 O         -1.2106  -23.2000  -57.0993 O.2       22 UNK        -0.5000 
    124 C124        0.8395  -21.4244  -55.7884 C.3       23 UNK        -0.0398 
    125 S125        1.4025  -22.7164  -54.6244 S.3       23 UNK        -0.2404 
    126 C126        2.7324  -21.8584  -53.7097 C.3       23 UNK        -0.0205 
    127 H127        3.6028  -15.5551  -49.2284 H         1 UNK         0.0600 
    128 H128        3.0755  -14.3045  -48.0967 H         1 UNK         0.0600 
    129 H129        2.6503  -14.1852  -49.8073 H         1 UNK         0.0600 
    130 H130        0.5325  -14.7674  -50.2236 H         1 UNK         0.3000 
    131 H131       -0.6632  -17.1226  -48.9692 H         1 UNK         0.0600 
    132 H132       -1.8452  -15.2490  -51.0764 H         1 UNK         0.0800 
    133 H133       -2.5194  -16.7756  -50.5784 H         1 UNK         0.0800 
    134 H134       -1.3944  -19.3455  -52.1030 H         1 UNK         0.0800 
    135 H135       -1.1017  -18.8826  -50.4500 H         1 UNK         0.0800 
    136 H136        0.2800  -20.5524  -53.2793 H         1 UNK         0.1150 
    137 H137        4.2112  -21.0301  -51.6251 H         1 UNK         0.1150 
    138 H138        1.3501  -18.4965  -49.6940 H         1 UNK         0.1150 
    139 H139        4.8997  -19.2579  -49.9817 H         1 UNK         0.0800 
    140 H140        3.7065  -18.4166  -49.0320 H         1 UNK         0.0800 
    141 H141        2.2266  -19.3189  -47.4059 H         1 UNK         0.0800 
    142 H142        3.2585  -19.9053  -46.1530 H         1 UNK         0.0800 
    143 H143        2.2415  -22.3232  -47.0885 H         1 UNK         0.0600 
    144 H144        1.8744  -20.8086  -44.7344 H         1 UNK         0.3000 
    145 H145       -0.2971  -23.0861  -43.0411 H         1 UNK         0.0600 
    146 H146        1.5237  -22.9316  -41.3714 H         1 UNK         0.0600 
    147 H147        2.6393  -22.3352  -42.5970 H         1 UNK         0.0600 
    148 H148        2.0045  -23.9716  -42.7038 H         1 UNK         0.0600 
    149 H149        0.8542  -20.6086  -42.2330 H         1 UNK         0.3000 
    150 H150       -1.7372  -18.4861  -43.5615 H         1 UNK         0.0600 
    151 H151       -2.5529  -19.2022  -41.3546 H         1 UNK         0.0600 
    152 H152       -1.5994  -17.7378  -41.1564 H         1 UNK         0.0600 
    153 H153       -0.9155  -19.2995  -40.7232 H         1 UNK         0.0600 
    154 H154        0.6372  -17.8241  -42.1718 H         1 UNK         0.3000 
    155 H155        2.8761  -17.7307  -44.9673 H         1 UNK         0.0600 
    156 H156        1.8648  -15.5372  -45.0260 H         1 UNK         0.0600 
    157 H157        3.2155  -15.4528  -43.9123 H         1 UNK         0.0600 
    158 H158        1.5658  -15.5306  -43.2911 H         1 UNK         0.0600 
    159 H159        3.1046  -17.2526  -42.1243 H         1 UNK         0.3000 
    160 H160        4.2206  -20.5399  -41.2926 H         1 UNK         0.0600 
    161 H161        5.7116  -17.8645  -41.4706 H         1 UNK         0.0600 
    162 H162        6.2277  -19.3723  -42.2168 H         1 UNK         0.0600 
    163 H163        6.1640  -19.2422  -40.4665 H         1 UNK         0.0600 
    164 H164        3.9229  -18.1266  -39.7738 H         1 UNK         0.3000 
    165 H165        0.5224  -18.5928  -38.8387 H         1 UNK         0.0600 
    166 H166        1.4929  -18.5551  -36.5643 H         1 UNK         0.0600 
    167 H167        1.7945  -20.1137  -37.3146 H         1 UNK         0.0600 
    168 H168        3.0932  -18.9316  -37.2040 H         1 UNK         0.0600 
    169 H169        2.3650  -16.6566  -37.9706 H         1 UNK         0.3000 
    170 H170        1.7037  -14.4141  -38.6507 H         1 UNK         0.0600 
    171 H171        3.7792  -14.8986  -40.8835 H         1 UNK         0.0600 
    172 H172        3.7627  -13.5093  -39.8003 H         1 UNK         0.0600 
    173 H173        4.0719  -15.1140  -39.1605 H         1 UNK         0.0600 
    174 H174        0.8713  -14.5684  -41.4071 H         1 UNK         0.3000 
    175 H175       -0.7830  -11.5449  -41.3064 H         1 UNK         0.0600 
    176 H176        1.6319  -11.9249  -43.1600 H         1 UNK         0.0600 
    177 H177        0.2371  -10.8944  -43.4802 H         1 UNK         0.0600 
    178 H178        1.3269  -10.5112  -42.1566 H         1 UNK         0.0600 
    179 H179       -0.2682  -13.4438  -43.4332 H         1 UNK         0.3000 
    180 H180       -1.4408  -15.7665  -43.2241 H         1 UNK         0.0600 
    181 H181       -4.3461  -15.0597  -42.5678 H         1 UNK         0.0600 
    182 H182       -3.3471  -16.1849  -41.6596 H         1 UNK         0.0600 
    183 H183       -3.7761  -16.5493  -43.3215 H         1 UNK         0.0600 
    184 H184       -3.4696  -14.3019  -44.6881 H         1 UNK         0.3000 
    185 H185       -3.1369  -13.7047  -46.7945 H         1 UNK         0.0600 
    186 H186       -0.6887  -11.8539  -46.7080 H         1 UNK         0.0600 
    187 H187       -2.1105  -11.6357  -47.7282 H         1 UNK         0.0600 
    188 H188       -2.2551  -11.5187  -45.9808 H         1 UNK         0.0600 
    189 H189       -0.4925  -13.8702  -48.0975 H         1 UNK         0.3000 
    190 H190       -0.2330  -19.8874  -46.2468 H         1 UNK         0.3000 
    191 H191       -1.7375  -20.0109  -48.6388 H         1 UNK         0.0600 
    192 H192       -1.9198  -18.2454  -46.8349 H         1 UNK         0.0600 
    193 H193       -2.7688  -19.4013  -45.8199 H         1 UNK         0.0600 
    194 H194       -3.4758  -18.8881  -47.3454 H         1 UNK         0.0600 
    195 H195       -2.1161  -21.8665  -45.5736 H         1 UNK         0.3000 
    196 H196       -4.3291  -23.4207  -46.3558 H         1 UNK         0.0600 
    197 H197       -3.5525  -23.1889  -44.0065 H         1 UNK         0.0600 
    198 H198       -2.0898  -24.1003  -44.3778 H         1 UNK         0.0600 
    199 H199       -3.6619  -24.8847  -44.4538 H         1 UNK         0.0600 
    200 H200       -0.8549  -23.9752  -46.9557 H         1 UNK         0.3000 
    201 H201       -1.0898  -26.5875  -48.0789 H         1 UNK         0.0600 
    202 H202        1.0594  -25.6147  -47.2855 H         1 UNK         0.0600 
    203 H203        1.0183  -24.4226  -48.5825 H         1 UNK         0.0600 
    204 H204        1.1821  -26.1304  -48.9607 H         1 UNK         0.0600 
    205 H205       -1.9496  -23.4701  -49.3681 H         1 UNK         0.3000 
    206 H206       -2.3015  -24.5258  -52.1318 H         1 UNK         0.0600 
    207 H207       -2.4013  -21.6590  -51.0607 H         1 UNK         0.0600 
    208 H208       -1.0402  -22.3869  -51.9084 H         1 UNK         0.0600 
    209 H209       -2.5660  -22.1488  -52.7421 H         1 UNK         0.0600 
    210 H210       -3.9209  -24.9932  -49.4964 H         1 UNK         0.3000 
    211 H211       -5.9719  -25.4162  -48.8534 H         1 UNK         0.0600 
    212 H212       -6.7580  -25.1959  -51.8147 H         1 UNK         0.0600 
    213 H213       -7.7638  -25.8664  -50.5336 H         1 UNK         0.0600 
    214 H214       -6.2537  -26.6472  -50.9624 H         1 UNK         0.0600 
    215 H215       -7.7389  -23.5484  -51.1493 H         1 UNK         0.3000 
    216 H216       -8.5279  -21.5766  -49.1375 H         1 UNK         0.0600 
    217 H217      -10.0653  -20.8142  -50.9479 H         1 UNK         0.0600 
    218 H218      -10.1939  -22.5489  -50.7071 H         1 UNK         0.0600 
    219 H219       -9.2996  -21.9133  -52.0882 H         1 UNK         0.0600 
    220 H220       -6.1202  -21.7925  -51.6275 H         1 UNK         0.3000 
    221 H221       -4.7167  -20.4691  -52.6386 H         1 UNK         0.0600 
    222 H222       -5.0302  -18.5530  -50.2709 H         1 UNK         0.0600 
    223 H223       -4.0131  -19.9924  -50.2788 H         1 UNK         0.0600 
    224 H224       -3.6607  -18.6619  -51.3686 H         1 UNK         0.0600 
    225 H225       -7.5140  -20.1101  -53.3364 H         1 UNK         0.3000 
    226 H226       -8.2948  -17.4329  -53.6182 H         1 UNK         0.0600 
    227 H227       -9.8615  -19.3518  -53.6191 H         1 UNK         0.0600 
    228 H228      -10.0864  -18.3953  -55.0744 H         1 UNK         0.0600 
    229 H229       -9.2121  -19.9199  -55.1582 H         1 UNK         0.0600 
    230 H230       -6.2070  -19.2992  -55.6814 H         1 UNK         0.3000 
    231 H231       -5.9132  -17.0040  -57.5649 H         1 UNK         0.0600 
    232 H232       -5.6061  -18.6254  -59.4154 H         1 UNK         0.0600 
    233 H233       -7.2053  -18.8222  -58.7175 H         1 UNK         0.0600 
    234 H234       -5.9289  -19.9760  -58.3324 H         1 UNK         0.0600 
    235 H235       -4.5863  -17.3982  -55.1431 H         1 UNK         0.3000 
    236 H236       -2.6552  -17.5520  -54.1057 H         1 UNK         0.0600 
    237 H237       -1.3057  -17.3260  -56.8609 H         1 UNK         0.0600 
    238 H238       -1.7667  -15.9857  -55.8204 H         1 UNK         0.0600 
    239 H239       -0.5203  -17.1005  -55.2981 H         1 UNK         0.0600 
    240 H240       -0.5120  -19.1618  -56.1285 H         1 UNK         0.3000 
    241 H241       -1.0813  -21.7457  -54.8651 H         1 UNK         0.0600 
    242 H242       -2.6794  -21.8721  -58.4959 H         1 UNK         0.3800 
    243 H243       -2.4517  -20.3740  -57.6344 H         1 UNK         0.3800 
    244 H244        1.3381  -20.4897  -55.5282 H         1 UNK         0.0800 
    245 H245        1.2053  -21.6691  -56.7874 H         1 UNK         0.0800 
    246 H246        3.3538  -21.3018  -54.4123 H         1 UNK         0.0800 
    247 H247        3.3753  -22.6315  -53.2860 H         1 UNK         0.0800 
@<TRIPOS>BOND
     1    1    2 1    
     2    1  127 1    
     3    1  128 1    
     4    1  129 1    
     5    2    3 2    
     6    2    4 am   BACKBONE|DICT|INTERRES
     7    4    5 1    
     8    4  130 1    
     9    5    6 1    
    10    5   65 1    
    11    5  131 1    
    12    6    7 1    
    13    6  132 1    
    14    6  133 1    
    15    7    8 1    
    16    8    9 1    
    17    8  134 1    
    18    8  135 1    
    19    9   10 ar   
    20    9   14 ar   
    21   10   11 ar   
    22   10  136 1    
    23   11   12 ar   
    24   11  126 1    
    25   12   13 ar   
    26   12  137 1    
    27   13   14 ar   
    28   13   15 1    
    29   14  138 1    
    30   15   16 1    
    31   15  139 1    
    32   15  140 1    
    33   16   17 1    
    34   17   18 1    
    35   17  141 1    
    36   17  142 1    
    37   18   19 1    
    38   18   67 1    
    39   18  143 1    
    40   19   20 am   BACKBONE|DICT|INTERRES
    41   19  144 1    
    42   20   21 2    
    43   20   22 1    
    44   22   23 1    
    45   22   24 1    
    46   22  145 1    
    47   23  146 1    
    48   23  147 1    
    49   23  148 1    
    50   24   25 am   BACKBONE|DICT|INTERRES
    51   24  149 1    
    52   25   26 2    
    53   25   27 1    
    54   27   28 1    
    55   27   29 1    
    56   27  150 1    
    57   28  151 1    
    58   28  152 1    
    59   28  153 1    
    60   29   30 am   BACKBONE|DICT|INTERRES
    61   29  154 1    
    62   30   31 2    
    63   30   32 1    
    64   32   33 1    
    65   32   34 1    
    66   32  155 1    
    67   33  156 1    
    68   33  157 1    
    69   33  158 1    
    70   34   35 am   BACKBONE|DICT|INTERRES
    71   34  159 1    
    72   35   36 2    
    73   35   37 1    
    74   37   38 1    
    75   37   39 1    
    76   37  160 1    
    77   38  161 1    
    78   38  162 1    
    79   38  163 1    
    80   39   40 am   BACKBONE|DICT|INTERRES
    81   39  164 1    
    82   40   41 2    
    83   40   42 1    
    84   42   43 1    
    85   42   44 1    
    86   42  165 1    
    87   43  166 1    
    88   43  167 1    
    89   43  168 1    
    90   44   45 am   BACKBONE|DICT|INTERRES
    91   44  169 1    
    92   45   46 2    
    93   45   47 1    
    94   47   48 1    
    95   47   49 1    
    96   47  170 1    
    97   48  171 1    
    98   48  172 1    
    99   48  173 1    
   100   49   50 am   BACKBONE|DICT|INTERRES
   101   49  174 1    
   102   50   51 2    
   103   50   52 1    
   104   52   53 1    
   105   52   54 1    
   106   52  175 1    
   107   53  176 1    
   108   53  177 1    
   109   53  178 1    
   110   54   55 am   BACKBONE|DICT|INTERRES
   111   54  179 1    
   112   55   56 2    
   113   55   57 1    
   114   57   58 1    
   115   57   59 1    
   116   57  180 1    
   117   58  181 1    
   118   58  182 1    
   119   58  183 1    
   120   59   60 am   BACKBONE|DICT|INTERRES
   121   59  184 1    
   122   60   61 2    
   123   60   62 1    
   124   62   63 1    
   125   62   64 1    
   126   62  185 1    
   127   63  186 1    
   128   63  187 1    
   129   63  188 1    
   130   64   65 am   BACKBONE|DICT|INTERRES
   131   64  189 1    
   132   65   66 2    
   133   67   68 2    
   134   67   69 am   BACKBONE|DICT|INTERRES
   135   69   70 1    
   136   69  190 1    
   137   70   71 1    
   138   70   72 1    
   139   70  191 1    
   140   71  192 1    
   141   71  193 1    
   142   71  194 1    
   143   72   73 2    
   144   72   74 am   BACKBONE|DICT|INTERRES
   145   74   75 1    
   146   74  195 1    
   147   75   76 1    
   148   75   77 1    
   149   75  196 1    
   150   76  197 1    
   151   76  198 1    
   152   76  199 1    
   153   77   78 2    
   154   77   79 am   BACKBONE|DICT|INTERRES
   155   79   80 1    
   156   79  200 1    
   157   80   81 1    
   158   80   82 1    
   159   80  201 1    
   160   81  202 1    
   161   81  203 1    
   162   81  204 1    
   163   82   83 2    
   164   82   84 am   BACKBONE|DICT|INTERRES
   165   84   85 1    
   166   84  205 1    
   167   85   86 1    
   168   85   87 1    
   169   85  206 1    
   170   86  207 1    
   171   86  208 1    
   172   86  209 1    
   173   87   88 2    
   174   87   89 am   BACKBONE|DICT|INTERRES
   175   89   90 1    
   176   89  210 1    
   177   90   91 1    
   178   90   92 1    
   179   90  211 1    
   180   91  212 1    
   181   91  213 1    
   182   91  214 1    
   183   92   93 2    
   184   92   94 am   BACKBONE|DICT|INTERRES
   185   94   95 1    
   186   94  215 1    
   187   95   96 1    
   188   95   97 1    
   189   95  216 1    
   190   96  217 1    
   191   96  218 1    
   192   96  219 1    
   193   97   98 2    
   194   97   99 am   BACKBONE|DICT|INTERRES
   195   99  100 1    
   196   99  220 1    
   197  100  101 1    
   198  100  102 1    
   199  100  221 1    
   200  101  222 1    
   201  101  223 1    
   202  101  224 1    
   203  102  103 2    
   204  102  104 am   BACKBONE|DICT|INTERRES
   205  104  105 1    
   206  104  225 1    
   207  105  106 1    
   208  105  107 1    
   209  105  226 1    
   210  106  227 1    
   211  106  228 1    
   212  106  229 1    
   213  107  108 2    
   214  107  109 am   BACKBONE|DICT|INTERRES
   215  109  110 1    
   216  109  230 1    
   217  110  111 1    
   218  110  112 1    
   219  110  231 1    
   220  111  232 1    
   221  111  233 1    
   222  111  234 1    
   223  112  113 2    
   224  112  114 am   BACKBONE|DICT|INTERRES
   225  114  115 1    
   226  114  235 1    
   227  115  116 1    
   228  115  117 1    
   229  115  236 1    
   230  116  237 1    
   231  116  238 1    
   232  116  239 1    
   233  117  118 2    
   234  117  119 am   BACKBONE|DICT|INTERRES
   235  119  120 1    
   236  119  240 1    
   237  120  121 1    
   238  120  124 1    
   239  120  241 1    
   240  121  122 am   BACKBONE|DICT|INTERRES
   241  121  123 2    
   242  122  242 1    
   243  122  243 1    
   244  124  125 1    
   245  124  244 1    
   246  124  245 1    
   247  125  126 1    
   248  126  246 1    
   249  126  247 1    
@<TRIPOS>SUBSTRUCTURE
     1 UNK         1 GROUP             0       ****    0 ROOT    
