@<TRIPOS>MOLECULE
3R540
247   249    1
SMALL
USER_CHARGES


@<TRIPOS>ATOM
      1 CA          6.3021  -12.2962  -45.2014 C.3       0 UNK        -0.1800 
      2 C           4.9816  -11.8575  -45.8161 C.2       0 UNK         0.5000 
      3 O           4.9678  -11.0045  -46.7035 O.2       0 UNK        -0.5000 
      4 N           3.8677  -12.4161  -45.3282 N.am      1 UNK        -0.5000 
      5 CA          2.4790  -12.1643  -45.7333 C.3       1 UNK         0.1400 
      6 C6          2.2112  -12.3665  -47.2502 C.3       23 UNK        -0.0398 
      7 S7          0.6399  -13.2371  -47.5396 S.3       23 UNK        -0.2404 
      8 C8          0.7164  -13.4964  -49.3372 C.3       23 UNK        -0.0205 
      9 C9         -0.2033  -14.6275  -49.7701 C.ar      23 UNK        -0.0193 
     10 C10        -1.5912  -14.4775  -49.6941 C.ar      23 UNK        -0.1150 
     11 C11        -2.4485  -15.5137  -50.0769 C.ar      23 UNK        -0.0193 
     12 C12        -1.8921  -16.7127  -50.5391 C.ar      23 UNK        -0.1150 
     13 C13        -0.5085  -16.8627  -50.6593 C.ar      23 UNK        -0.0193 
     14 C14         0.3323  -15.8218  -50.2594 C.ar      23 UNK        -0.1150 
     15 C15         0.0752  -18.1360  -51.2538 C.3       23 UNK        -0.0205 
     16 S16         0.4500  -19.3792  -49.9839 S.3       23 UNK        -0.2404 
     17 C17        -1.2298  -19.8477  -49.4555 C.3       23 UNK        -0.0398 
     18 CA         -1.2472  -21.1872  -48.6891 C.3       11 UNK         0.1400 
     19 N          -0.5186  -21.1085  -47.4191 N.am      11 UNK        -0.5000 
     20 C          -0.0593  -22.1680  -46.7411 C.2       10 UNK         0.5000 
     21 O          -0.1431  -23.3260  -47.1473 O.2       10 UNK        -0.5000 
     22 CA          0.5668  -21.8970  -45.3592 C.3       10 UNK         0.1400 
     23 CB          2.0710  -21.6133  -45.4845 C.3       10 UNK        -0.1800 
     24 N          -0.0858  -20.7985  -44.6430 N.am      10 UNK        -0.5000 
     25 C          -1.3555  -20.8271  -44.2138 C.2       9 UNK         0.5000 
     26 O          -2.0887  -21.8080  -44.3342 O.2       9 UNK        -0.5000 
     27 CA         -1.9219  -19.5303  -43.6045 C.3       9 UNK         0.1400 
     28 CB         -1.5140  -19.3910  -42.1312 C.3       9 UNK        -0.1800 
     29 N          -1.5169  -18.3351  -44.3461 N.am      9 UNK        -0.5000 
     30 C          -1.8553  -18.0788  -45.6183 C.2       8 UNK         0.5000 
     31 O          -2.5913  -18.8024  -46.2867 O.2       8 UNK        -0.5000 
     32 CA         -1.2280  -16.8335  -46.2690 C.3       8 UNK         0.1400 
     33 CB         -2.0572  -15.5796  -45.9538 C.3       8 UNK        -0.1800 
     34 N           0.1622  -16.6343  -45.8553 N.am      8 UNK        -0.5000 
     35 C           1.1643  -17.4669  -46.1723 C.2       7 UNK         0.5000 
     36 O           1.0183  -18.4790  -46.8545 O.2       7 UNK        -0.5000 
     37 CA          2.5465  -17.1529  -45.5705 C.3       7 UNK         0.1400 
     38 CB          3.2149  -15.9809  -46.3031 C.3       7 UNK        -0.1800 
     39 N           2.4739  -16.8607  -44.1382 N.am      7 UNK        -0.5000 
     40 C           2.1105  -17.7521  -43.2046 C.2       6 UNK         0.5000 
     41 O           1.8541  -18.9305  -43.4488 O.2       6 UNK        -0.5000 
     42 CA          1.9647  -17.2325  -41.7608 C.3       6 UNK         0.1400 
     43 CB          3.2992  -17.3515  -41.0100 C.3       6 UNK        -0.1800 
     44 N           1.4885  -15.8503  -41.6709 N.am      6 UNK        -0.5000 
     45 C           0.3542  -15.3708  -42.2000 C.2       5 UNK         0.5000 
     46 O          -0.4398  -16.0675  -42.8329 O.2       5 UNK        -0.5000 
     47 CA          0.0500  -13.8691  -42.0087 C.3       5 UNK         0.1400 
     48 CB         -1.3248  -13.6730  -41.3493 C.3       5 UNK        -0.1800 
     49 N           1.0509  -13.1253  -41.2341 N.am      5 UNK        -0.5000 
     50 C           2.2771  -12.8000  -41.6588 C.2       4 UNK         0.5000 
     51 O           2.7624  -13.1874  -42.7240 O.2       4 UNK        -0.5000 
     52 CA          3.1209  -11.9292  -40.7241 C.3       4 UNK         0.1400 
     53 CB          4.1376  -12.7897  -39.9519 C.3       4 UNK        -0.1800 
     54 N           3.8046  -10.9341  -41.5400 N.am      4 UNK        -0.5000 
     55 C           4.3545   -9.7990  -41.0948 C.2       3 UNK         0.5000 
     56 O           4.3712   -9.4624  -39.9102 O.2       3 UNK        -0.5000 
     57 CA          4.9860   -8.8788  -42.1553 C.3       3 UNK         0.1400 
     58 CB          6.4393   -9.2956  -42.4289 C.3       3 UNK        -0.1800 
     59 N           4.2410   -8.8769  -43.4159 N.am      3 UNK        -0.5000 
     60 C           3.0734   -8.2451  -43.6098 C.2       2 UNK         0.5000 
     61 O           2.5013   -7.5802  -42.7457 O.2       2 UNK        -0.5000 
     62 CA          2.4373   -8.3893  -45.0047 C.3       2 UNK         0.1400 
     63 CB          3.0104   -7.3440  -45.9736 C.3       2 UNK        -0.1800 
     64 N           2.6533   -9.7261  -45.5559 N.am      2 UNK        -0.5000 
     65 C           1.9600  -10.8145  -45.2008 C.2       1 UNK         0.5000 
     66 O           0.9876  -10.7878  -44.4458 O.2       1 UNK        -0.5000 
     67 C          -2.6981  -21.6840  -48.5105 C.2       11 UNK         0.5000 
     68 O          -3.2531  -22.2401  -49.4553 O.2       11 UNK        -0.5000 
     69 N          -3.2969  -21.4730  -47.3300 N.am      12 UNK        -0.5000 
     70 CA         -4.6258  -21.9762  -46.9748 C.3       12 UNK         0.1400 
     71 CB         -5.2117  -21.1184  -45.8434 C.3       12 UNK        -0.1800 
     72 C          -4.5967  -23.4642  -46.5757 C.2       12 UNK         0.5000 
     73 O          -5.5687  -24.1804  -46.8222 O.2       12 UNK        -0.5000 
     74 N          -3.4814  -23.9076  -45.9824 N.am      13 UNK        -0.5000 
     75 CA         -3.1958  -25.3023  -45.6479 C.3       13 UNK         0.1400 
     76 CB         -1.9638  -25.3399  -44.7286 C.3       13 UNK        -0.1800 
     77 C          -2.9759  -26.1788  -46.8993 C.2       13 UNK         0.5000 
     78 O          -2.8265  -25.6597  -48.0076 O.2       13 UNK        -0.5000 
     79 N          -2.9566  -27.5043  -46.6924 N.am      14 UNK        -0.5000 
     80 CA         -2.7298  -28.5464  -47.7047 C.3       14 UNK         0.1400 
     81 CB         -1.2750  -28.4960  -48.2186 C.3       14 UNK        -0.1800 
     82 C          -3.7711  -28.5057  -48.8431 C.2       14 UNK         0.5000 
     83 O          -3.4082  -28.5316  -50.0211 O.2       14 UNK        -0.5000 
     84 N          -5.0518  -28.4027  -48.4538 N.am      15 UNK        -0.5000 
     85 CA         -6.2273  -28.2658  -49.3231 C.3       15 UNK         0.1400 
     86 CB         -6.4740  -29.5669  -50.1162 C.3       15 UNK        -0.1800 
     87 C          -6.1316  -27.0191  -50.2257 C.2       15 UNK         0.5000 
     88 O          -6.3001  -27.1181  -51.4423 O.2       15 UNK        -0.5000 
     89 N          -5.8074  -25.8755  -49.6040 N.am      16 UNK        -0.5000 
     90 CA         -5.5237  -24.5846  -50.2364 C.3       16 UNK         0.1400 
     91 CB         -6.8053  -23.9812  -50.8477 C.3       16 UNK        -0.1800 
     92 C          -4.3550  -24.6795  -51.2368 C.2       16 UNK         0.5000 
     93 O          -4.4942  -24.2608  -52.3859 O.2       16 UNK        -0.5000 
     94 N          -3.2421  -25.2794  -50.7892 N.am      17 UNK        -0.5000 
     95 CA         -2.0247  -25.5673  -51.5523 C.3       17 UNK         0.1400 
     96 CB         -1.2417  -24.2634  -51.8094 C.3       17 UNK        -0.1800 
     97 C          -2.3162  -26.3680  -52.8395 C.2       17 UNK         0.5000 
     98 O          -1.8942  -25.9709  -53.9264 O.2       17 UNK        -0.5000 
     99 N          -3.0826  -27.4582  -52.6865 N.am      18 UNK        -0.5000 
    100 CA        -3.6346  -28.3067  -53.7480 C.3       18 UNK         0.1400 
    101 CB        -2.5143  -29.1001  -54.4522 C.3       18 UNK        -0.1800 
    102 C         -4.5330  -27.5163  -54.7262 C.2       18 UNK         0.5000 
    103 O         -4.3688  -27.6121  -55.9440 O.2       18 UNK        -0.5000 
    104 N         -5.4633  -26.7396  -54.1540 N.am      19 UNK        -0.5000 
    105 CA        -6.4617  -25.8868  -54.8075 C.3       19 UNK         0.1400 
    106 CB        -7.4551  -26.7384  -55.6254 C.3       19 UNK        -0.1800 
    107 C         -5.8867  -24.7019  -55.6172 C.2       19 UNK         0.5000 
    108 O         -6.5991  -24.1391  -56.4509 O.2       19 UNK        -0.5000 
    109 N         -4.6319  -24.3150  -55.3526 N.am      20 UNK        -0.5000 
    110 CA        -3.9978  -23.1257  -55.9265 C.3       20 UNK         0.1400 
    111 CB        -2.4719  -23.2841  -55.8646 C.3       20 UNK        -0.1800 
    112 C         -4.4327  -21.8329  -55.2097 C.2       20 UNK         0.5000 
    113 O         -4.5373  -20.7859  -55.8533 O.2       20 UNK        -0.5000 
    114 N         -4.6833  -21.9370  -53.8958 N.am      21 UNK        -0.5000 
    115 CA        -5.0909  -20.8800  -52.9705 C.3       21 UNK         0.1400 
    116 CB        -6.5824  -20.5411  -53.1917 C.3       21 UNK        -0.1800 
    117 C         -4.1421  -19.6631  -53.0233 C.2       21 UNK         0.5000 
    118 O         -2.9315  -19.8343  -52.8715 O.2       21 UNK        -0.5000 
    119 N         -4.7028  -18.4709  -53.2458 N.am      22 UNK        -0.5000 
    120 CA        -3.9782  -17.2006  -53.4031 C.3       22 UNK         0.1400 
    121 C         -3.7103  -16.8302  -54.8925 C.2       22 UNK         0.5000 
    122 N         -3.9395  -17.7160  -55.8565 N.am      22 UNK        -0.7600 
    123 O         -3.2737  -15.7204  -55.1850 O.2       22 UNK        -0.5000 
    124 C124       -4.6710  -16.0459  -52.6247 C.3       23 UNK        -0.0398 
    125 S125       -5.0244  -16.4575  -50.8748 S.3       23 UNK        -0.2404 
    126 C126       -3.9574  -15.2926  -49.9537 C.3       23 UNK        -0.0205 
    127 H127        6.1517  -12.8458  -44.2717 H         1 UNK         0.0600 
    128 H128        6.9258  -11.4287  -44.9864 H         1 UNK         0.0600 
    129 H129        6.8415  -12.9392  -45.8967 H         1 UNK         0.0600 
    130 H130        3.9423  -13.0484  -44.5397 H         1 UNK         0.3000 
    131 H131        1.9185  -12.9279  -45.1919 H         1 UNK         0.0600 
    132 H132        2.2226  -11.4263  -47.8045 H         1 UNK         0.0800 
    133 H133        2.9990  -12.9796  -47.6901 H         1 UNK         0.0800 
    134 H134        0.4333  -12.5754  -49.8486 H         1 UNK         0.0800 
    135 H135        1.7440  -13.7126  -49.6333 H         1 UNK         0.0800 
    136 H136       -2.0034  -13.5502  -49.3211 H         1 UNK         0.1150 
    137 H137       -2.5288  -17.5384  -50.8174 H         1 UNK         0.1150 
    138 H138        1.4038  -15.9418  -50.3368 H         1 UNK         0.1150 
    139 H139       -0.6076  -18.5591  -51.9924 H         1 UNK         0.0800 
    140 H140        0.9934  -17.9013  -51.7940 H         1 UNK         0.0800 
    141 H141       -1.8550  -19.9142  -50.3478 H         1 UNK         0.0800 
    142 H142       -1.6453  -19.0472  -48.8420 H         1 UNK         0.0800 
    143 H143       -0.7445  -21.9285  -49.3136 H         1 UNK         0.0600 
    144 H144       -0.3372  -20.1798  -47.0559 H         1 UNK         0.3000 
    145 H145        0.4442  -22.8020  -44.7606 H         1 UNK         0.0600 
    146 H146        2.5331  -21.4982  -44.5039 H         1 UNK         0.0600 
    147 H147        2.5818  -22.4330  -45.9911 H         1 UNK         0.0600 
    148 H148        2.2649  -20.7042  -46.0538 H         1 UNK         0.0600 
    149 H149        0.4779  -19.9731  -44.4644 H         1 UNK         0.3000 
    150 H150       -3.0112  -19.5904  -43.6486 H         1 UNK         0.0600 
    151 H151       -1.8937  -20.2275  -41.5433 H         1 UNK         0.0600 
    152 H152       -1.9135  -18.4757  -41.6938 H         1 UNK         0.0600 
    153 H153       -0.4314  -19.3754  -42.0133 H         1 UNK         0.0600 
    154 H154       -0.9506  -17.6524  -43.8506 H         1 UNK         0.3000 
    155 H155       -1.2381  -16.9812  -47.3514 H         1 UNK         0.0600 
    156 H156       -3.0959  -15.7155  -46.2576 H         1 UNK         0.0600 
    157 H157       -1.6789  -14.7107  -46.4900 H         1 UNK         0.0600 
    158 H158       -2.0541  -15.3465  -44.8888 H         1 UNK         0.0600 
    159 H159        0.3448  -15.8588  -45.2369 H         1 UNK         0.3000 
    160 H160        3.1742  -18.0368  -45.7036 H         1 UNK         0.0600 
    161 H161        2.6573  -15.0569  -46.1641 H         1 UNK         0.0600 
    162 H162        3.2724  -16.1708  -47.3757 H         1 UNK         0.0600 
    163 H163        4.2312  -15.8167  -45.9449 H         1 UNK         0.0600 
    164 H164        2.6612  -15.9118  -43.8483 H         1 UNK         0.3000 
    165 H165        1.2320  -17.8632  -41.2552 H         1 UNK         0.0600 
    166 H166        3.1875  -17.0792  -39.9603 H         1 UNK         0.0600 
    167 H167        3.6749  -18.3752  -41.0406 H         1 UNK         0.0600 
    168 H168        4.0644  -16.7071  -41.4449 H         1 UNK         0.0600 
    169 H169        2.0851  -15.1994  -41.1832 H         1 UNK         0.3000 
    170 H170        0.0087  -13.4307  -43.0083 H         1 UNK         0.0600 
    171 H171       -2.1129  -14.1581  -41.9272 H         1 UNK         0.0600 
    172 H172       -1.3507  -14.0922  -40.3427 H         1 UNK         0.0600 
    173 H173       -1.5827  -12.6160  -41.2812 H         1 UNK         0.0600 
    174 H174        0.7474  -12.7940  -40.3294 H         1 UNK         0.3000 
    175 H175        2.4620  -11.4190  -40.0183 H         1 UNK         0.0600 
    176 H176        4.8310  -13.2934  -40.6269 H         1 UNK         0.0600 
    177 H177        4.7250  -12.1874  -39.2590 H         1 UNK         0.0600 
    178 H178        3.6337  -13.5578  -39.3640 H         1 UNK         0.0600 
    179 H179        3.8016  -11.1318  -42.5309 H         1 UNK         0.3000 
    180 H180        4.9939   -7.8623  -41.7559 H         1 UNK         0.0600 
    181 H181        6.5020  -10.3139  -42.8131 H         1 UNK         0.0600 
    182 H182        7.0336   -9.2545  -41.5152 H         1 UNK         0.0600 
    183 H183        6.9121   -8.6318  -43.1530 H         1 UNK         0.0600 
    184 H184        4.6483   -9.3821  -44.1877 H         1 UNK         0.3000 
    185 H185        1.3640   -8.2121  -44.9077 H         1 UNK         0.0600 
    186 H186        2.8548   -6.3333  -45.5939 H         1 UNK         0.0600 
    187 H187        4.0824   -7.4773  -46.1250 H         1 UNK         0.0600 
    188 H188        2.5247   -7.4032  -46.9478 H         1 UNK         0.0600 
    189 H189        3.4602   -9.8592  -46.1583 H         1 UNK         0.3000 
    190 H190       -2.8114  -20.9264  -46.6292 H         1 UNK         0.3000 
    191 H191       -5.2815  -21.8767  -47.8423 H         1 UNK         0.0600 
    192 H192       -5.2575  -20.0672  -46.1291 H         1 UNK         0.0600 
    193 H193       -6.2268  -21.4353  -45.6013 H         1 UNK         0.0600 
    194 H194       -4.6203  -21.1913  -44.9309 H         1 UNK         0.0600 
    195 H195       -2.7484  -23.2377  -45.7851 H         1 UNK         0.3000 
    196 H196       -4.0527  -25.7004  -45.1011 H         1 UNK         0.0600 
    197 H197       -1.7618  -26.3519  -44.3761 H         1 UNK         0.0600 
    198 H198       -2.1095  -24.7147  -43.8473 H         1 UNK         0.0600 
    199 H199       -1.0689  -24.9884  -45.2421 H         1 UNK         0.0600 
    200 H200       -3.0966  -27.8422  -45.7502 H         1 UNK         0.3000 
    201 H201       -2.8663  -29.5050  -47.2021 H         1 UNK         0.0600 
    202 H202       -0.5644  -28.5618  -47.3948 H         1 UNK         0.0600 
    203 H203       -1.0677  -27.5761  -48.7658 H         1 UNK         0.0600 
    204 H204       -1.0691  -29.3293  -48.8914 H         1 UNK         0.0600 
    205 H205       -5.2375  -28.3696  -47.4613 H         1 UNK         0.3000 
    206 H206       -7.0865  -28.1089  -48.6694 H         1 UNK         0.0600 
    207 H207       -6.5564  -30.4251  -49.4495 H         1 UNK         0.0600 
    208 H208       -7.4035  -29.5065  -50.6835 H         1 UNK         0.0600 
    209 H209       -5.6721  -29.7703  -50.8266 H         1 UNK         0.0600 
    210 H210       -5.6615  -25.8979  -48.6035 H         1 UNK         0.3000 
    211 H211       -5.1966  -23.9164  -49.4434 H         1 UNK         0.0600 
    212 H212       -7.1775  -24.5725  -51.6841 H         1 UNK         0.0600 
    213 H213       -6.6210  -22.9727  -51.2161 H         1 UNK         0.0600 
    214 H214       -7.5999  -23.9133  -50.1049 H         1 UNK         0.0600 
    215 H215       -3.2086  -25.5491  -49.8077 H         1 UNK         0.3000 
    216 H216       -1.4073  -26.2085  -50.9220 H         1 UNK         0.0600 
    217 H217       -0.3066  -24.4618  -52.3340 H         1 UNK         0.0600 
    218 H218       -0.9893  -23.7715  -50.8706 H         1 UNK         0.0600 
    219 H219       -1.8150  -23.5570  -52.4104 H         1 UNK         0.0600 
    220 H220       -3.3537  -27.7152  -51.7395 H         1 UNK         0.3000 
    221 H221       -4.2853  -29.0278  -53.2510 H         1 UNK         0.0600 
    222 H222       -1.8388  -28.4472  -55.0057 H         1 UNK         0.0600 
    223 H223       -1.9209  -29.6648  -53.7332 H         1 UNK         0.0600 
    224 H224       -2.9310  -29.8155  -55.1619 H         1 UNK         0.0600 
    225 H225       -5.5303  -26.7560  -53.1385 H         1 UNK         0.3000 
    226 H226       -7.0247  -25.4310  -53.9924 H         1 UNK         0.0600 
    227 H227       -7.8664  -27.5493  -55.0243 H         1 UNK         0.0600 
    228 H228       -8.2962  -26.1371  -55.9721 H         1 UNK         0.0600 
    229 H229       -6.9836  -27.1771  -56.5052 H         1 UNK         0.0600 
    230 H230       -4.1259  -24.7981  -54.6205 H         1 UNK         0.3000 
    231 H231       -4.2852  -23.0417  -56.9766 H         1 UNK         0.0600 
    232 H232       -2.1163  -23.3476  -54.8359 H         1 UNK         0.0600 
    233 H233       -1.9722  -22.4350  -56.3325 H         1 UNK         0.0600 
    234 H234       -2.1466  -24.1842  -56.3866 H         1 UNK         0.0600 
    235 H235       -4.5507  -22.8487  -53.4589 H         1 UNK         0.3000 
    236 H236       -4.9870  -21.2957  -51.9672 H         1 UNK         0.0600 
    237 H237       -7.1992  -21.4363  -53.1123 H         1 UNK         0.0600 
    238 H238       -6.9459  -19.8381  -52.4411 H         1 UNK         0.0600 
    239 H239       -6.7625  -20.1090  -54.1769 H         1 UNK         0.0600 
    240 H240       -5.7025  -18.4248  -53.3764 H         1 UNK         0.3000 
    241 H241       -2.9793  -17.3147  -52.9855 H         1 UNK         0.0600 
    242 H242       -3.7568  -17.4592  -56.8137 H         1 UNK         0.3800 
    243 H243       -4.2525  -18.6566  -55.6465 H         1 UNK         0.3800 
    244 H244       -5.6169  -15.7861  -53.1023 H         1 UNK         0.0800 
    245 H245       -4.0573  -15.1442  -52.6608 H         1 UNK         0.0800 
    246 H246       -4.2206  -15.3576  -48.8972 H         1 UNK         0.0800 
    247 H247       -4.2053  -14.2779  -50.2693 H         1 UNK         0.0800 
@<TRIPOS>BOND
     1    1    2 1    
     2    1  127 1    
     3    1  128 1    
     4    1  129 1    
     5    2    3 2    
     6    2    4 am   BACKBONE|DICT|INTERRES
     7    4    5 1    
     8    4  130 1    
     9    5    6 1    
    10    5   65 1    
    11    5  131 1    
    12    6    7 1    
    13    6  132 1    
    14    6  133 1    
    15    7    8 1    
    16    8    9 1    
    17    8  134 1    
    18    8  135 1    
    19    9   10 ar   
    20    9   14 ar   
    21   10   11 ar   
    22   10  136 1    
    23   11   12 ar   
    24   11  126 1    
    25   12   13 ar   
    26   12  137 1    
    27   13   14 ar   
    28   13   15 1    
    29   14  138 1    
    30   15   16 1    
    31   15  139 1    
    32   15  140 1    
    33   16   17 1    
    34   17   18 1    
    35   17  141 1    
    36   17  142 1    
    37   18   19 1    
    38   18   67 1    
    39   18  143 1    
    40   19   20 am   BACKBONE|DICT|INTERRES
    41   19  144 1    
    42   20   21 2    
    43   20   22 1    
    44   22   23 1    
    45   22   24 1    
    46   22  145 1    
    47   23  146 1    
    48   23  147 1    
    49   23  148 1    
    50   24   25 am   BACKBONE|DICT|INTERRES
    51   24  149 1    
    52   25   26 2    
    53   25   27 1    
    54   27   28 1    
    55   27   29 1    
    56   27  150 1    
    57   28  151 1    
    58   28  152 1    
    59   28  153 1    
    60   29   30 am   BACKBONE|DICT|INTERRES
    61   29  154 1    
    62   30   31 2    
    63   30   32 1    
    64   32   33 1    
    65   32   34 1    
    66   32  155 1    
    67   33  156 1    
    68   33  157 1    
    69   33  158 1    
    70   34   35 am   BACKBONE|DICT|INTERRES
    71   34  159 1    
    72   35   36 2    
    73   35   37 1    
    74   37   38 1    
    75   37   39 1    
    76   37  160 1    
    77   38  161 1    
    78   38  162 1    
    79   38  163 1    
    80   39   40 am   BACKBONE|DICT|INTERRES
    81   39  164 1    
    82   40   41 2    
    83   40   42 1    
    84   42   43 1    
    85   42   44 1    
    86   42  165 1    
    87   43  166 1    
    88   43  167 1    
    89   43  168 1    
    90   44   45 am   BACKBONE|DICT|INTERRES
    91   44  169 1    
    92   45   46 2    
    93   45   47 1    
    94   47   48 1    
    95   47   49 1    
    96   47  170 1    
    97   48  171 1    
    98   48  172 1    
    99   48  173 1    
   100   49   50 am   BACKBONE|DICT|INTERRES
   101   49  174 1    
   102   50   51 2    
   103   50   52 1    
   104   52   53 1    
   105   52   54 1    
   106   52  175 1    
   107   53  176 1    
   108   53  177 1    
   109   53  178 1    
   110   54   55 am   BACKBONE|DICT|INTERRES
   111   54  179 1    
   112   55   56 2    
   113   55   57 1    
   114   57   58 1    
   115   57   59 1    
   116   57  180 1    
   117   58  181 1    
   118   58  182 1    
   119   58  183 1    
   120   59   60 am   BACKBONE|DICT|INTERRES
   121   59  184 1    
   122   60   61 2    
   123   60   62 1    
   124   62   63 1    
   125   62   64 1    
   126   62  185 1    
   127   63  186 1    
   128   63  187 1    
   129   63  188 1    
   130   64   65 am   BACKBONE|DICT|INTERRES
   131   64  189 1    
   132   65   66 2    
   133   67   68 2    
   134   67   69 am   BACKBONE|DICT|INTERRES
   135   69   70 1    
   136   69  190 1    
   137   70   71 1    
   138   70   72 1    
   139   70  191 1    
   140   71  192 1    
   141   71  193 1    
   142   71  194 1    
   143   72   73 2    
   144   72   74 am   BACKBONE|DICT|INTERRES
   145   74   75 1    
   146   74  195 1    
   147   75   76 1    
   148   75   77 1    
   149   75  196 1    
   150   76  197 1    
   151   76  198 1    
   152   76  199 1    
   153   77   78 2    
   154   77   79 am   BACKBONE|DICT|INTERRES
   155   79   80 1    
   156   79  200 1    
   157   80   81 1    
   158   80   82 1    
   159   80  201 1    
   160   81  202 1    
   161   81  203 1    
   162   81  204 1    
   163   82   83 2    
   164   82   84 am   BACKBONE|DICT|INTERRES
   165   84   85 1    
   166   84  205 1    
   167   85   86 1    
   168   85   87 1    
   169   85  206 1    
   170   86  207 1    
   171   86  208 1    
   172   86  209 1    
   173   87   88 2    
   174   87   89 am   BACKBONE|DICT|INTERRES
   175   89   90 1    
   176   89  210 1    
   177   90   91 1    
   178   90   92 1    
   179   90  211 1    
   180   91  212 1    
   181   91  213 1    
   182   91  214 1    
   183   92   93 2    
   184   92   94 am   BACKBONE|DICT|INTERRES
   185   94   95 1    
   186   94  215 1    
   187   95   96 1    
   188   95   97 1    
   189   95  216 1    
   190   96  217 1    
   191   96  218 1    
   192   96  219 1    
   193   97   98 2    
   194   97   99 am   BACKBONE|DICT|INTERRES
   195   99  100 1    
   196   99  220 1    
   197  100  101 1    
   198  100  102 1    
   199  100  221 1    
   200  101  222 1    
   201  101  223 1    
   202  101  224 1    
   203  102  103 2    
   204  102  104 am   BACKBONE|DICT|INTERRES
   205  104  105 1    
   206  104  225 1    
   207  105  106 1    
   208  105  107 1    
   209  105  226 1    
   210  106  227 1    
   211  106  228 1    
   212  106  229 1    
   213  107  108 2    
   214  107  109 am   BACKBONE|DICT|INTERRES
   215  109  110 1    
   216  109  230 1    
   217  110  111 1    
   218  110  112 1    
   219  110  231 1    
   220  111  232 1    
   221  111  233 1    
   222  111  234 1    
   223  112  113 2    
   224  112  114 am   BACKBONE|DICT|INTERRES
   225  114  115 1    
   226  114  235 1    
   227  115  116 1    
   228  115  117 1    
   229  115  236 1    
   230  116  237 1    
   231  116  238 1    
   232  116  239 1    
   233  117  118 2    
   234  117  119 am   BACKBONE|DICT|INTERRES
   235  119  120 1    
   236  119  240 1    
   237  120  121 1    
   238  120  124 1    
   239  120  241 1    
   240  121  122 am   BACKBONE|DICT|INTERRES
   241  121  123 2    
   242  122  242 1    
   243  122  243 1    
   244  124  125 1    
   245  124  244 1    
   246  124  245 1    
   247  125  126 1    
   248  126  246 1    
   249  126  247 1    
@<TRIPOS>SUBSTRUCTURE
     1 UNK         1 GROUP             0       ****    0 ROOT    
