@<TRIPOS>MOLECULE
3R540
247   249    1
SMALL
USER_CHARGES


@<TRIPOS>ATOM
      1 CA          6.1475  -16.2251  -47.8765 C.3       0 UNK        -0.1800 
      2 C           4.8242  -15.4776  -47.9276 C.2       0 UNK         0.5000 
      3 O           3.9366  -15.7470  -47.1193 O.2       0 UNK        -0.5000 
      4 N           4.6879  -14.5253  -48.8616 N.am      1 UNK        -0.5000 
      5 CA          3.4570  -13.7573  -49.1022 C.3       1 UNK         0.1400 
      6 C6          3.5429  -12.9021  -50.3973 C.3       23 UNK        -0.0398 
      7 S7          2.6071  -13.6361  -51.7836 S.3       23 UNK        -0.2404 
      8 C8          3.8729  -14.6136  -52.6542 C.3       23 UNK        -0.0205 
      9 C9          3.5533  -16.1000  -52.6036 C.ar      23 UNK        -0.0193 
     10 C10         2.8516  -16.7108  -53.6480 C.ar      23 UNK        -0.1150 
     11 C11         2.5694  -18.0801  -53.6076 C.ar      23 UNK        -0.0193 
     12 C12         2.9894  -18.8376  -52.5099 C.ar      23 UNK        -0.1150 
     13 C13         3.6845  -18.2366  -51.4570 C.ar      23 UNK        -0.0193 
     14 C14         3.9702  -16.8708  -51.5161 C.ar      23 UNK        -0.1150 
     15 C15         4.1420  -19.0544  -50.2588 C.3       23 UNK        -0.0205 
     16 S16         3.0094  -18.8648  -48.8468 S.3       23 UNK        -0.2404 
     17 C17         1.6542  -20.0002  -49.2968 C.3       23 UNK        -0.0398 
     18 CA          1.6514  -21.2423  -48.3758 C.3       11 UNK         0.1400 
     19 N           1.1876  -20.9220  -47.0214 N.am      11 UNK        -0.5000 
     20 C           1.8933  -21.1449  -45.9040 C.2       10 UNK         0.5000 
     21 O           3.0182  -21.6463  -45.8881 O.2       10 UNK        -0.5000 
     22 CA          1.2334  -20.7526  -44.5662 C.3       10 UNK         0.1400 
     23 CB          1.6164  -19.3120  -44.1934 C.3       10 UNK        -0.1800 
     24 N          -0.2258  -20.8763  -44.5625 N.am      10 UNK        -0.5000 
     25 C          -0.9031  -22.0184  -44.7612 C.2       9 UNK         0.5000 
     26 O          -0.3644  -23.1096  -44.9421 O.2       9 UNK        -0.5000 
     27 CA         -2.4417  -21.9323  -44.8270 C.3       9 UNK         0.1400 
     28 CB         -3.0570  -22.2701  -43.4618 C.3       9 UNK        -0.1800 
     29 N          -2.9571  -20.6361  -45.2711 N.am      9 UNK        -0.5000 
     30 C          -2.6155  -19.9768  -46.3878 C.2       8 UNK         0.5000 
     31 O          -1.8631  -20.4316  -47.2514 O.2       8 UNK        -0.5000 
     32 CA         -3.1582  -18.5427  -46.5307 C.3       8 UNK         0.1400 
     33 CB         -4.3989  -18.5289  -47.4352 C.3       8 UNK        -0.1800 
     34 N          -3.4779  -17.8848  -45.2555 N.am      8 UNK        -0.5000 
     35 C          -2.6114  -17.6691  -44.2544 C.2       7 UNK         0.5000 
     36 O          -1.4469  -18.0716  -44.2598 O.2       7 UNK        -0.5000 
     37 CA         -3.1389  -16.9109  -43.0320 C.3       7 UNK         0.1400 
     38 CB         -3.0129  -17.7610  -41.7544 C.3       7 UNK        -0.1800 
     39 N          -2.3898  -15.6678  -42.8928 N.am      7 UNK        -0.5000 
     40 C          -2.8321  -14.5728  -42.2623 C.2       6 UNK         0.5000 
     41 O          -3.9153  -14.5097  -41.6789 O.2       6 UNK        -0.5000 
     42 CA         -1.9324  -13.3260  -42.3178 C.3       6 UNK         0.1400 
     43 CB         -0.7567  -13.4378  -41.3337 C.3       6 UNK        -0.1800 
     44 N          -1.4312  -13.0974  -43.6724 N.am      6 UNK        -0.5000 
     45 C          -2.1307  -12.4848  -44.6389 C.2       5 UNK         0.5000 
     46 O          -3.2378  -11.9755  -44.4597 O.2       5 UNK        -0.5000 
     47 CA         -1.4998  -12.4271  -46.0449 C.3       5 UNK         0.1400 
     48 CB         -0.7269  -11.1128  -46.2323 C.3       5 UNK        -0.1800 
     49 N          -0.6091  -13.5512  -46.3304 N.am      5 UNK        -0.5000 
     50 C          -1.0011  -14.8269  -46.4479 C.2       4 UNK         0.5000 
     51 O          -2.1771  -15.1826  -46.4062 O.2       4 UNK        -0.5000 
     52 CA          0.1104  -15.8846  -46.5969 C.3       4 UNK         0.1400 
     53 CB          0.4693  -16.0844  -48.0751 C.3       4 UNK        -0.1800 
     54 N           1.3203  -15.5601  -45.8362 N.am      4 UNK        -0.5000 
     55 C           1.3695  -15.4056  -44.5045 C.2       3 UNK         0.5000 
     56 O           0.3922  -15.5195  -43.7667 O.2       3 UNK        -0.5000 
     57 CA          2.7208  -14.9904  -43.9036 C.3       3 UNK         0.1400 
     58 CB          3.6432  -16.2051  -43.7208 C.3       3 UNK        -0.1800 
     59 N           3.3754  -13.9859  -44.7404 N.am      3 UNK        -0.5000 
     60 C           3.0565  -12.6834  -44.7360 C.2       2 UNK         0.5000 
     61 O           2.2377  -12.1843  -43.9639 O.2       2 UNK        -0.5000 
     62 CA          3.7455  -11.7912  -45.7881 C.3       2 UNK         0.1400 
     63 CB          5.0754  -11.2463  -45.2464 C.3       2 UNK        -0.1800 
     64 N           3.9891  -12.4846  -47.0548 N.am      2 UNK        -0.5000 
     65 C           3.0243  -12.9114  -47.8828 C.2       1 UNK         0.5000 
     66 O           1.8278  -12.7022  -47.6894 O.2       1 UNK        -0.5000 
     67 C           0.8250  -22.3864  -48.9894 C.2       11 UNK         0.5000 
     68 O           1.3770  -23.1619  -49.7708 O.2       11 UNK        -0.5000 
     69 N          -0.4640  -22.4955  -48.6328 N.am      12 UNK        -0.5000 
     70 CA         -1.3522  -23.5613  -49.1010 C.3       12 UNK         0.1400 
     71 CB         -2.7999  -23.1975  -48.7458 C.3       12 UNK        -0.1800 
     72 C          -0.9932  -24.9414  -48.5178 C.2       12 UNK         0.5000 
     73 O          -1.1703  -25.9483  -49.2045 O.2       12 UNK        -0.5000 
     74 N          -0.5034  -24.9616  -47.2674 N.am      13 UNK        -0.5000 
     75 CA         -0.0816  -26.1371  -46.5022 C.3       13 UNK         0.1400 
     76 CB          1.2712  -26.6553  -47.0397 C.3       13 UNK        -0.1800 
     77 C          -1.1927  -27.2064  -46.4377 C.2       13 UNK         0.5000 
     78 O          -2.2567  -26.9376  -45.8758 O.2       13 UNK        -0.5000 
     79 N          -0.9511  -28.3726  -47.0516 N.am      14 UNK        -0.5000 
     80 CA         -1.8697  -29.5099  -47.1409 C.3       14 UNK         0.1400 
     81 CB         -1.1391  -30.6815  -47.8151 C.3       14 UNK        -0.1800 
     82 C          -3.1982  -29.2139  -47.8680 C.2       14 UNK         0.5000 
     83 O          -4.1653  -29.9473  -47.6591 O.2       14 UNK        -0.5000 
     84 N          -3.2441  -28.1482  -48.6832 N.am      15 UNK        -0.5000 
     85 CA         -4.4651  -27.6691  -49.3361 C.3       15 UNK         0.1400 
     86 CB         -4.0957  -26.7955  -50.5452 C.3       15 UNK        -0.1800 
     87 C          -5.4226  -26.9265  -48.3785 C.2       15 UNK         0.5000 
     88 O          -6.5594  -26.6677  -48.7696 O.2       15 UNK        -0.5000 
     89 N          -4.9704  -26.6087  -47.1528 N.am      16 UNK        -0.5000 
     90 CA         -5.7522  -26.0514  -46.0420 C.3       16 UNK         0.1400 
     91 CB         -6.7566  -27.0979  -45.5163 C.3       16 UNK        -0.1800 
     92 C          -6.4132  -24.7016  -46.3886 C.2       16 UNK         0.5000 
     93 O          -7.6346  -24.5625  -46.3137 O.2       16 UNK        -0.5000 
     94 N          -5.5681  -23.7424  -46.7915 N.am      17 UNK        -0.5000 
     95 CA         -5.8766  -22.3512  -47.1590 C.3       17 UNK         0.1400 
     96 CB         -6.6215  -21.6160  -46.0252 C.3       17 UNK        -0.1800 
     97 C          -6.5763  -22.1689  -48.5230 C.2       17 UNK         0.5000 
     98 O          -6.7582  -21.0260  -48.9460 O.2       17 UNK        -0.5000 
     99 N          -6.9042  -23.2657  -49.2238 N.am      18 UNK        -0.5000 
    100 CA        -7.6224  -23.2664  -50.5062 C.3       18 UNK         0.1400 
    101 CB        -8.0056  -24.7067  -50.8741 C.3       18 UNK        -0.1800 
    102 C         -6.8717  -22.5969  -51.6764 C.2       18 UNK         0.5000 
    103 O         -7.5041  -22.2518  -52.6751 O.2       18 UNK        -0.5000 
    104 N         -5.5526  -22.3994  -51.5326 N.am      19 UNK        -0.5000 
    105 CA        -4.7149  -21.6487  -52.4724 C.3       19 UNK         0.1400 
    106 CB        -3.2336  -21.9178  -52.1616 C.3       19 UNK        -0.1800 
    107 C         -4.9930  -20.1302  -52.4660 C.2       19 UNK         0.5000 
    108 O         -4.5534  -19.4443  -53.3895 O.2       19 UNK        -0.5000 
    109 N         -5.6871  -19.6277  -51.4286 N.am      20 UNK        -0.5000 
    110 CA        -6.1428  -18.2415  -51.2544 C.3       20 UNK         0.1400 
    111 CB        -7.2762  -17.9267  -52.2517 C.3       20 UNK        -0.1800 
    112 C         -4.9957  -17.2103  -51.3085 C.2       20 UNK         0.5000 
    113 O         -5.1454  -16.1379  -51.8987 O.2       20 UNK        -0.5000 
    114 N         -3.8454  -17.5924  -50.7314 N.am      21 UNK        -0.5000 
    115 CA        -2.5799  -16.8482  -50.6920 C.3       21 UNK         0.1400 
    116 CB        -2.7369  -15.5726  -49.8374 C.3       21 UNK        -0.1800 
    117 C         -1.9883  -16.5510  -52.0887 C.2       21 UNK         0.5000 
    118 O         -1.2008  -15.6148  -52.2279 O.2       21 UNK        -0.5000 
    119 N         -2.3945  -17.3385  -53.0959 N.am      22 UNK        -0.5000 
    120 CA        -2.0906  -17.1532  -54.5237 C.3       22 UNK         0.1400 
    121 C         -2.7331  -15.8748  -55.1482 C.2       22 UNK         0.5000 
    122 N         -3.7501  -15.2759  -54.5361 N.am      22 UNK        -0.7600 
    123 O         -2.3314  -15.4325  -56.2213 O.2       22 UNK        -0.5000 
    124 C124       -0.5788  -17.3072  -54.8548 C.3       23 UNK        -0.0398 
    125 S125        0.0606  -18.9559  -54.4019 S.3       23 UNK        -0.2404 
    126 C126        1.8336  -18.7545  -54.7555 C.3       23 UNK        -0.0205 
    127 H127        6.8115  -15.9313  -48.6895 H         1 UNK         0.0600 
    128 H128        5.9709  -17.2980  -47.9518 H         1 UNK         0.0600 
    129 H129        6.6527  -16.0277  -46.9313 H         1 UNK         0.0600 
    130 H130        5.4616  -14.3281  -49.4796 H         1 UNK         0.3000 
    131 H131        2.6671  -14.4984  -49.2301 H         1 UNK         0.0600 
    132 H132        3.1174  -11.9069  -50.2516 H         1 UNK         0.0800 
    133 H133        4.5764  -12.7185  -50.6933 H         1 UNK         0.0800 
    134 H134        3.9228  -14.2777  -53.6910 H         1 UNK         0.0800 
    135 H135        4.8627  -14.4344  -52.2331 H         1 UNK         0.0800 
    136 H136        2.5292  -16.1204  -54.4942 H         1 UNK         0.1150 
    137 H137        2.7739  -19.8962  -52.4794 H         1 UNK         0.1150 
    138 H138        4.5161  -16.4083  -50.7096 H         1 UNK         0.1150 
    139 H139        4.2400  -20.1093  -50.5195 H         1 UNK         0.0800 
    140 H140        5.1366  -18.7245  -49.9558 H         1 UNK         0.0800 
    141 H141        0.7065  -19.4631  -49.2295 H         1 UNK         0.0800 
    142 H142        1.7639  -20.2881  -50.3429 H         1 UNK         0.0800 
    143 H143        2.6755  -21.6203  -48.3385 H         1 UNK         0.0600 
    144 H144        0.2610  -20.5232  -46.9393 H         1 UNK         0.3000 
    145 H145        1.6230  -21.4219  -43.7966 H         1 UNK         0.0600 
    146 H146        1.2071  -19.0290  -43.2234 H         1 UNK         0.0600 
    147 H147        2.6996  -19.1987  -44.1369 H         1 UNK         0.0600 
    148 H148        1.2506  -18.5962  -44.9308 H         1 UNK         0.0600 
    149 H149       -0.7446  -20.0130  -44.4349 H         1 UNK         0.3000 
    150 H150       -2.7789  -22.6850  -45.5378 H         1 UNK         0.0600 
    151 H151       -2.7102  -23.2413  -43.1057 H         1 UNK         0.0600 
    152 H152       -4.1446  -22.3177  -43.5186 H         1 UNK         0.0600 
    153 H153       -2.7909  -21.5289  -42.7070 H         1 UNK         0.0600 
    154 H154       -3.5665  -20.1584  -44.6242 H         1 UNK         0.3000 
    155 H155       -2.3763  -17.9581  -47.0188 H         1 UNK         0.0600 
    156 H156       -4.6559  -17.5122  -47.7327 H         1 UNK         0.0600 
    157 H157       -5.2660  -18.9572  -46.9352 H         1 UNK         0.0600 
    158 H158       -4.2331  -19.1046  -48.3462 H         1 UNK         0.0600 
    159 H159       -4.4118  -17.5097  -45.1742 H         1 UNK         0.3000 
    160 H160       -4.1931  -16.6768  -43.1950 H         1 UNK         0.0600 
    161 H161       -1.9703  -17.9814  -41.5209 H         1 UNK         0.0600 
    162 H162       -3.5340  -18.7127  -41.8648 H         1 UNK         0.0600 
    163 H163       -3.4468  -17.2515  -40.8940 H         1 UNK         0.0600 
    164 H164       -1.4713  -15.6579  -43.3333 H         1 UNK         0.3000 
    165 H165       -2.5319  -12.4653  -42.0130 H         1 UNK         0.0600 
    166 H166       -0.1306  -14.3063  -41.5361 H         1 UNK         0.0600 
    167 H167       -0.1225  -12.5521  -41.3757 H         1 UNK         0.0600 
    168 H168       -1.1187  -13.5312  -40.3092 H         1 UNK         0.0600 
    169 H169       -0.5510  -13.5365  -43.9084 H         1 UNK         0.3000 
    170 H170       -2.3140  -12.4512  -46.7722 H         1 UNK         0.0600 
    171 H171       -1.3638  -10.2505  -46.0308 H         1 UNK         0.0600 
    172 H172        0.1313  -11.0529  -45.5618 H         1 UNK         0.0600 
    173 H173       -0.3609  -11.0134  -47.2543 H         1 UNK         0.0600 
    174 H174        0.3702  -13.3287  -46.4772 H         1 UNK         0.3000 
    175 H175       -0.2624  -16.8332  -46.2103 H         1 UNK         0.0600 
    176 H176       -0.2971  -16.6719  -48.5779 H         1 UNK         0.0600 
    177 H177        0.5562  -15.1353  -48.6042 H         1 UNK         0.0600 
    178 H178        1.4109  -16.6167  -48.1908 H         1 UNK         0.0600 
    179 H179        2.1885  -15.4949  -46.3605 H         1 UNK         0.3000 
    180 H180        2.5339  -14.5622  -42.9162 H         1 UNK         0.0600 
    181 H181        3.8317  -16.7224  -44.6618 H         1 UNK         0.0600 
    182 H182        3.1974  -16.9266  -43.0353 H         1 UNK         0.0600 
    183 H183        4.6050  -15.9105  -43.3012 H         1 UNK         0.0600 
    184 H184        3.9998  -14.3364  -45.4551 H         1 UNK         0.3000 
    185 H185        3.0848  -10.9447  -45.9872 H         1 UNK         0.0600 
    186 H186        5.5342  -10.5529  -45.9515 H         1 UNK         0.0600 
    187 H187        4.9231  -10.7044  -44.3119 H         1 UNK         0.0600 
    188 H188        5.7890  -12.0472  -45.0489 H         1 UNK         0.0600 
    189 H189        4.9485  -12.7046  -47.2793 H         1 UNK         0.3000 
    190 H190       -0.8833  -21.7872  -48.0369 H         1 UNK         0.3000 
    191 H191       -1.2696  -23.6206  -50.1883 H         1 UNK         0.0600 
    192 H192       -3.5087  -23.8744  -49.2202 H         1 UNK         0.0600 
    193 H193       -3.0510  -22.1859  -49.0614 H         1 UNK         0.0600 
    194 H194       -2.9589  -23.2553  -47.6726 H         1 UNK         0.0600 
    195 H195       -0.4262  -24.0864  -46.7619 H         1 UNK         0.3000 
    196 H196        0.0768  -25.8026  -45.4760 H         1 UNK         0.0600 
    197 H197        1.6344  -27.4991  -46.4516 H         1 UNK         0.0600 
    198 H198        2.0318  -25.8764  -46.9813 H         1 UNK         0.0600 
    199 H199        1.2091  -26.9715  -48.0817 H         1 UNK         0.0600 
    200 H200       -0.0637  -28.4818  -47.5206 H         1 UNK         0.3000 
    201 H201       -2.1227  -29.8062  -46.1210 H         1 UNK         0.0600 
    202 H202       -0.2470  -30.9654  -47.2565 H         1 UNK         0.0600 
    203 H203       -0.8349  -30.4324  -48.8325 H         1 UNK         0.0600 
    204 H204       -1.7792  -31.5632  -47.8704 H         1 UNK         0.0600 
    205 H205       -2.4100  -27.5836  -48.8094 H         1 UNK         0.3000 
    206 H206       -5.0101  -28.5357  -49.7162 H         1 UNK         0.0600 
    207 H207       -3.4470  -27.3339  -51.2362 H         1 UNK         0.0600 
    208 H208       -4.9853  -26.5003  -51.1019 H         1 UNK         0.0600 
    209 H209       -3.5810  -25.8850  -50.2475 H         1 UNK         0.0600 
    210 H210       -4.0108  -26.8458  -46.9217 H         1 UNK         0.3000 
    211 H211       -5.0429  -25.8498  -45.2376 H         1 UNK         0.0600 
    212 H212       -7.5142  -27.3451  -46.2607 H         1 UNK         0.0600 
    213 H213       -7.2759  -26.7302  -44.6306 H         1 UNK         0.0600 
    214 H214       -6.2502  -28.0216  -45.2357 H         1 UNK         0.0600 
    215 H215       -4.5938  -23.9978  -46.8483 H         1 UNK         0.3000 
    216 H216       -4.9126  -21.8548  -47.2672 H         1 UNK         0.0600 
    217 H217       -6.0686  -21.6740  -45.0880 H         1 UNK         0.0600 
    218 H218       -6.7536  -20.5600  -46.2579 H         1 UNK         0.0600 
    219 H219       -7.6173  -22.0241  -45.8546 H         1 UNK         0.0600 
    220 H220       -6.7382  -24.1713  -48.8054 H         1 UNK         0.3000 
    221 H221       -8.5453  -22.7016  -50.3591 H         1 UNK         0.0600 
    222 H222       -7.1242  -25.3207  -51.0585 H         1 UNK         0.0600 
    223 H223       -8.5853  -25.1778  -50.0800 H         1 UNK         0.0600 
    224 H224       -8.6156  -24.7316  -51.7780 H         1 UNK         0.0600 
    225 H225       -5.1136  -22.7257  -50.6863 H         1 UNK         0.3000 
    226 H226       -4.9234  -22.0164  -53.4793 H         1 UNK         0.0600 
    227 H227       -3.0228  -22.9862  -52.1111 H         1 UNK         0.0600 
    228 H228       -2.5940  -21.4987  -52.9397 H         1 UNK         0.0600 
    229 H229       -2.9286  -21.4637  -51.2196 H         1 UNK         0.0600 
    230 H230       -5.9928  -20.2684  -50.7032 H         1 UNK         0.3000 
    231 H231       -6.5600  -18.1798  -50.2481 H         1 UNK         0.0600 
    232 H232       -7.7116  -16.9463  -52.0550 H         1 UNK         0.0600 
    233 H233       -8.0803  -18.6589  -52.1767 H         1 UNK         0.0600 
    234 H234       -6.9187  -17.9264  -53.2820 H         1 UNK         0.0600 
    235 H235       -3.8215  -18.5144  -50.3220 H         1 UNK         0.3000 
    236 H236       -1.8605  -17.4992  -50.1943 H         1 UNK         0.0600 
    237 H237       -3.4116  -14.8534  -50.3020 H         1 UNK         0.0600 
    238 H238       -3.1301  -15.8081  -48.8492 H         1 UNK         0.0600 
    239 H239       -1.7813  -15.0681  -49.6948 H         1 UNK         0.0600 
    240 H240       -3.0737  -18.0655  -52.9032 H         1 UNK         0.3000 
    241 H241       -2.6062  -17.9718  -55.0269 H         1 UNK         0.0600 
    242 H242       -4.1123  -15.6264  -53.6564 H         1 UNK         0.3800 
    243 H243       -4.1649  -14.4582  -54.9538 H         1 UNK         0.3800 
    244 H244       -0.4052  -17.1754  -55.9238 H         1 UNK         0.0800 
    245 H245        0.0080  -16.5375  -54.3532 H         1 UNK         0.0800 
    246 H246        1.9673  -18.1959  -55.6832 H         1 UNK         0.0800 
    247 H247        2.2677  -19.7397  -54.9323 H         1 UNK         0.0800 
@<TRIPOS>BOND
     1    1    2 1    
     2    1  127 1    
     3    1  128 1    
     4    1  129 1    
     5    2    3 2    
     6    2    4 am   BACKBONE|DICT|INTERRES
     7    4    5 1    
     8    4  130 1    
     9    5    6 1    
    10    5   65 1    
    11    5  131 1    
    12    6    7 1    
    13    6  132 1    
    14    6  133 1    
    15    7    8 1    
    16    8    9 1    
    17    8  134 1    
    18    8  135 1    
    19    9   10 ar   
    20    9   14 ar   
    21   10   11 ar   
    22   10  136 1    
    23   11   12 ar   
    24   11  126 1    
    25   12   13 ar   
    26   12  137 1    
    27   13   14 ar   
    28   13   15 1    
    29   14  138 1    
    30   15   16 1    
    31   15  139 1    
    32   15  140 1    
    33   16   17 1    
    34   17   18 1    
    35   17  141 1    
    36   17  142 1    
    37   18   19 1    
    38   18   67 1    
    39   18  143 1    
    40   19   20 am   BACKBONE|DICT|INTERRES
    41   19  144 1    
    42   20   21 2    
    43   20   22 1    
    44   22   23 1    
    45   22   24 1    
    46   22  145 1    
    47   23  146 1    
    48   23  147 1    
    49   23  148 1    
    50   24   25 am   BACKBONE|DICT|INTERRES
    51   24  149 1    
    52   25   26 2    
    53   25   27 1    
    54   27   28 1    
    55   27   29 1    
    56   27  150 1    
    57   28  151 1    
    58   28  152 1    
    59   28  153 1    
    60   29   30 am   BACKBONE|DICT|INTERRES
    61   29  154 1    
    62   30   31 2    
    63   30   32 1    
    64   32   33 1    
    65   32   34 1    
    66   32  155 1    
    67   33  156 1    
    68   33  157 1    
    69   33  158 1    
    70   34   35 am   BACKBONE|DICT|INTERRES
    71   34  159 1    
    72   35   36 2    
    73   35   37 1    
    74   37   38 1    
    75   37   39 1    
    76   37  160 1    
    77   38  161 1    
    78   38  162 1    
    79   38  163 1    
    80   39   40 am   BACKBONE|DICT|INTERRES
    81   39  164 1    
    82   40   41 2    
    83   40   42 1    
    84   42   43 1    
    85   42   44 1    
    86   42  165 1    
    87   43  166 1    
    88   43  167 1    
    89   43  168 1    
    90   44   45 am   BACKBONE|DICT|INTERRES
    91   44  169 1    
    92   45   46 2    
    93   45   47 1    
    94   47   48 1    
    95   47   49 1    
    96   47  170 1    
    97   48  171 1    
    98   48  172 1    
    99   48  173 1    
   100   49   50 am   BACKBONE|DICT|INTERRES
   101   49  174 1    
   102   50   51 2    
   103   50   52 1    
   104   52   53 1    
   105   52   54 1    
   106   52  175 1    
   107   53  176 1    
   108   53  177 1    
   109   53  178 1    
   110   54   55 am   BACKBONE|DICT|INTERRES
   111   54  179 1    
   112   55   56 2    
   113   55   57 1    
   114   57   58 1    
   115   57   59 1    
   116   57  180 1    
   117   58  181 1    
   118   58  182 1    
   119   58  183 1    
   120   59   60 am   BACKBONE|DICT|INTERRES
   121   59  184 1    
   122   60   61 2    
   123   60   62 1    
   124   62   63 1    
   125   62   64 1    
   126   62  185 1    
   127   63  186 1    
   128   63  187 1    
   129   63  188 1    
   130   64   65 am   BACKBONE|DICT|INTERRES
   131   64  189 1    
   132   65   66 2    
   133   67   68 2    
   134   67   69 am   BACKBONE|DICT|INTERRES
   135   69   70 1    
   136   69  190 1    
   137   70   71 1    
   138   70   72 1    
   139   70  191 1    
   140   71  192 1    
   141   71  193 1    
   142   71  194 1    
   143   72   73 2    
   144   72   74 am   BACKBONE|DICT|INTERRES
   145   74   75 1    
   146   74  195 1    
   147   75   76 1    
   148   75   77 1    
   149   75  196 1    
   150   76  197 1    
   151   76  198 1    
   152   76  199 1    
   153   77   78 2    
   154   77   79 am   BACKBONE|DICT|INTERRES
   155   79   80 1    
   156   79  200 1    
   157   80   81 1    
   158   80   82 1    
   159   80  201 1    
   160   81  202 1    
   161   81  203 1    
   162   81  204 1    
   163   82   83 2    
   164   82   84 am   BACKBONE|DICT|INTERRES
   165   84   85 1    
   166   84  205 1    
   167   85   86 1    
   168   85   87 1    
   169   85  206 1    
   170   86  207 1    
   171   86  208 1    
   172   86  209 1    
   173   87   88 2    
   174   87   89 am   BACKBONE|DICT|INTERRES
   175   89   90 1    
   176   89  210 1    
   177   90   91 1    
   178   90   92 1    
   179   90  211 1    
   180   91  212 1    
   181   91  213 1    
   182   91  214 1    
   183   92   93 2    
   184   92   94 am   BACKBONE|DICT|INTERRES
   185   94   95 1    
   186   94  215 1    
   187   95   96 1    
   188   95   97 1    
   189   95  216 1    
   190   96  217 1    
   191   96  218 1    
   192   96  219 1    
   193   97   98 2    
   194   97   99 am   BACKBONE|DICT|INTERRES
   195   99  100 1    
   196   99  220 1    
   197  100  101 1    
   198  100  102 1    
   199  100  221 1    
   200  101  222 1    
   201  101  223 1    
   202  101  224 1    
   203  102  103 2    
   204  102  104 am   BACKBONE|DICT|INTERRES
   205  104  105 1    
   206  104  225 1    
   207  105  106 1    
   208  105  107 1    
   209  105  226 1    
   210  106  227 1    
   211  106  228 1    
   212  106  229 1    
   213  107  108 2    
   214  107  109 am   BACKBONE|DICT|INTERRES
   215  109  110 1    
   216  109  230 1    
   217  110  111 1    
   218  110  112 1    
   219  110  231 1    
   220  111  232 1    
   221  111  233 1    
   222  111  234 1    
   223  112  113 2    
   224  112  114 am   BACKBONE|DICT|INTERRES
   225  114  115 1    
   226  114  235 1    
   227  115  116 1    
   228  115  117 1    
   229  115  236 1    
   230  116  237 1    
   231  116  238 1    
   232  116  239 1    
   233  117  118 2    
   234  117  119 am   BACKBONE|DICT|INTERRES
   235  119  120 1    
   236  119  240 1    
   237  120  121 1    
   238  120  124 1    
   239  120  241 1    
   240  121  122 am   BACKBONE|DICT|INTERRES
   241  121  123 2    
   242  122  242 1    
   243  122  243 1    
   244  124  125 1    
   245  124  244 1    
   246  124  245 1    
   247  125  126 1    
   248  126  246 1    
   249  126  247 1    
@<TRIPOS>SUBSTRUCTURE
     1 UNK         1 GROUP             0       ****    0 ROOT    
