@<TRIPOS>MOLECULE
3R540
247   249    1
SMALL
USER_CHARGES


@<TRIPOS>ATOM
      1 CA          0.0760   -9.0500  -48.7759 C.3       0 UNK        -0.1800 
      2 C          -1.0085  -10.0900  -48.5351 C.2       0 UNK         0.5000 
      3 O          -1.3140  -10.8754  -49.4307 O.2       0 UNK        -0.5000 
      4 N          -1.5823  -10.1047  -47.3282 N.am      1 UNK        -0.5000 
      5 CA         -2.6135  -11.0457  -46.9004 C.3       1 UNK         0.1400 
      6 C6         -4.0219  -10.6037  -47.3760 C.3       23 UNK        -0.0398 
      7 S7         -5.3265  -11.8474  -47.0723 S.3       23 UNK        -0.2404 
      8 C8         -5.4371  -12.7067  -48.6741 C.3       23 UNK        -0.0205 
      9 C9         -4.6095  -13.9829  -48.6888 C.ar      23 UNK        -0.0193 
     10 C10        -3.2835  -13.9673  -49.1319 C.ar      23 UNK        -0.1150 
     11 C11        -2.5357  -15.1477  -49.1688 C.ar      23 UNK        -0.0193 
     12 C12        -3.1255  -16.3483  -48.7681 C.ar      23 UNK        -0.1150 
     13 C13        -4.4504  -16.3806  -48.3291 C.ar      23 UNK        -0.0193 
     14 C14        -5.1852  -15.1922  -48.2849 C.ar      23 UNK        -0.1150 
     15 C15        -5.1010  -17.7017  -47.9453 C.3       23 UNK        -0.0205 
     16 S16        -4.9719  -18.0554  -46.1639 S.3       23 UNK        -0.2404 
     17 C17        -3.2684  -18.6971  -46.0114 C.3       23 UNK        -0.0398 
     18 CA         -3.1369  -20.1990  -46.3689 C.3       11 UNK         0.1400 
     19 N          -1.7385  -20.6043  -46.5354 N.am      11 UNK        -0.5000 
     20 C          -1.3295  -21.8065  -46.9660 C.2       10 UNK         0.5000 
     21 O          -2.0958  -22.6919  -47.3424 O.2       10 UNK        -0.5000 
     22 CA          0.1838  -22.0858  -46.9357 C.3       10 UNK         0.1400 
     23 CB          0.8817  -21.4746  -48.1589 C.3       10 UNK        -0.1800 
     24 N           0.8175  -21.6070  -45.7066 N.am      10 UNK        -0.5000 
     25 C           0.5365  -22.0759  -44.4818 C.2       9 UNK         0.5000 
     26 O          -0.2440  -23.0024  -44.2692 O.2       9 UNK        -0.5000 
     27 CA          1.1909  -21.3566  -43.2891 C.3       9 UNK         0.1400 
     28 CB          2.6364  -21.8322  -43.0832 C.3       9 UNK        -0.1800 
     29 N           1.1622  -19.9010  -43.4290 N.am      9 UNK        -0.5000 
     30 C           0.0435  -19.1643  -43.4935 C.2       8 UNK         0.5000 
     31 O          -1.0919  -19.6283  -43.3913 O.2       8 UNK        -0.5000 
     32 CA          0.2241  -17.6638  -43.7773 C.3       8 UNK         0.1400 
     33 CB          0.6521  -16.9191  -42.5028 C.3       8 UNK        -0.1800 
     34 N           1.1933  -17.4230  -44.8473 N.am      8 UNK        -0.5000 
     35 C           1.0392  -17.8161  -46.1203 C.2       7 UNK         0.5000 
     36 O           0.0242  -18.3620  -46.5491 O.2       7 UNK        -0.5000 
     37 CA          2.2391  -17.6128  -47.0614 C.3       7 UNK         0.1400 
     38 CB          2.2432  -16.1993  -47.6603 C.3       7 UNK        -0.1800 
     39 N           3.5101  -17.8644  -46.3836 N.am      7 UNK        -0.5000 
     40 C           3.9321  -19.0775  -45.9998 C.2       6 UNK         0.5000 
     41 O           3.3095  -20.1165  -46.2168 O.2       6 UNK        -0.5000 
     42 CA          5.2489  -19.1292  -45.2032 C.3       6 UNK         0.1400 
     43 CB          6.4553  -19.1478  -46.1532 C.3       6 UNK        -0.1800 
     44 N           5.3816  -18.0069  -44.2722 N.am      6 UNK        -0.5000 
     45 C           4.6088  -17.8256  -43.1916 C.2       5 UNK         0.5000 
     46 O           3.7399  -18.6208  -42.8356 O.2       5 UNK        -0.5000 
     47 CA          4.8014  -16.5071  -42.4155 C.3       5 UNK         0.1400 
     48 CB          5.9019  -16.6599  -41.3554 C.3       5 UNK        -0.1800 
     49 N           5.1157  -15.3679  -43.2858 N.am      5 UNK        -0.5000 
     50 C           4.2965  -14.8977  -44.2351 C.2       4 UNK         0.5000 
     51 O           3.1725  -15.3599  -44.4520 O.2       4 UNK        -0.5000 
     52 CA          4.8410  -13.7747  -45.1297 C.3       4 UNK         0.1400 
     53 CB          5.9708  -14.3088  -46.0345 C.3       4 UNK        -0.1800 
     54 N           3.7383  -13.2758  -45.9442 N.am      4 UNK        -0.5000 
     55 C           3.7293  -12.1800  -46.7101 C.2       3 UNK         0.5000 
     56 O           4.6772  -11.3990  -46.7978 O.2       3 UNK        -0.5000 
     57 CA          2.4493  -11.9107  -47.5279 C.3       3 UNK         0.1400 
     58 CB          2.6365  -12.3607  -48.9855 C.3       3 UNK        -0.1800 
     59 N           1.2540  -12.5668  -46.9903 N.am      3 UNK        -0.5000 
     60 C           0.5880  -12.1487  -45.9082 C.2       2 UNK         0.5000 
     61 O           0.9294  -11.1816  -45.2242 O.2       2 UNK        -0.5000 
     62 CA         -0.6698  -12.9521  -45.5317 C.3       2 UNK         0.1400 
     63 CB         -0.2865  -14.1108  -44.6043 C.3       2 UNK        -0.1800 
     64 N          -1.6521  -12.1107  -44.8424 N.am      2 UNK        -0.5000 
     65 C          -2.4858  -11.1990  -45.3681 C.2       1 UNK         0.5000 
     66 O          -3.1302  -10.4439  -44.6407 O.2       1 UNK        -0.5000 
     67 C          -3.8778  -21.1171  -45.3732 C.2       11 UNK         0.5000 
     68 O          -4.9331  -21.6545  -45.7170 O.2       11 UNK        -0.5000 
     69 N          -3.2748  -21.3278  -44.1928 N.am      12 UNK        -0.5000 
     70 CA         -3.7671  -22.2187  -43.1399 C.3       12 UNK         0.1400 
     71 CB         -2.8671  -22.0954  -41.9015 C.3       12 UNK        -0.1800 
     72 C          -3.8829  -23.6878  -43.5880 C.2       12 UNK         0.5000 
     73 O          -4.8495  -24.3579  -43.2229 O.2       12 UNK        -0.5000 
     74 N          -2.9414  -24.1469  -44.4231 N.am      13 UNK        -0.5000 
     75 CA         -2.9346  -25.4549  -45.0829 C.3       13 UNK         0.1400 
     76 CB         -1.4904  -25.7992  -45.4893 C.3       13 UNK        -0.1800 
     77 C          -3.9151  -25.5297  -46.2765 C.2       13 UNK         0.5000 
     78 O          -3.5447  -26.0092  -47.3497 O.2       13 UNK        -0.5000 
     79 N          -5.1521  -25.0571  -46.0660 N.am      14 UNK        -0.5000 
     80 CA         -6.2886  -25.0597  -46.9919 C.3       14 UNK         0.1400 
     81 CB         -6.8382  -26.4936  -47.1424 C.3       14 UNK        -0.1800 
     82 C          -5.9765  -24.3960  -48.3491 C.2       14 UNK         0.5000 
     83 O          -6.3065  -24.9581  -49.3946 O.2       14 UNK        -0.5000 
     84 N          -5.3199  -23.2263  -48.3059 N.am      15 UNK        -0.5000 
     85 CA         -4.8490  -22.4505  -49.4599 C.3       15 UNK         0.1400 
     86 CB         -6.0377  -21.8191  -50.2128 C.3       15 UNK        -0.1800 
     87 C          -3.9258  -23.2798  -50.3750 C.2       15 UNK         0.5000 
     88 O          -4.2262  -23.4752  -51.5543 O.2       15 UNK        -0.5000 
     89 N          -2.8357  -23.7812  -49.7805 N.am      16 UNK        -0.5000 
     90 CA         -1.8157  -24.6508  -50.3695 C.3       16 UNK         0.1400 
     91 CB         -1.0010  -23.8771  -51.4280 C.3       16 UNK        -0.1800 
     92 C          -2.4117  -25.9671  -50.9089 C.2       16 UNK         0.5000 
     93 O          -2.1128  -26.3621  -52.0350 O.2       16 UNK        -0.5000 
     94 N          -3.2829  -26.5996  -50.1090 N.am      17 UNK        -0.5000 
     95 CA         -4.0760  -27.7899  -50.4395 C.3       17 UNK         0.1400 
     96 CB         -3.1732  -29.0384  -50.5139 C.3       17 UNK        -0.1800 
     97 C          -4.9406  -27.5860  -51.7039 C.2       17 UNK         0.5000 
     98 O          -4.9554  -28.4344  -52.5974 O.2       17 UNK        -0.5000 
     99 N          -5.6167  -26.4304  -51.7541 N.am      18 UNK        -0.5000 
    100 CA        -6.4656  -25.9156  -52.8311 C.3       18 UNK         0.1400 
    101 CB        -7.6736  -26.8437  -53.0765 C.3       18 UNK        -0.1800 
    102 C         -5.7215  -25.5542  -54.1365 C.2       18 UNK         0.5000 
    103 O         -6.3811  -25.2946  -55.1446 O.2       18 UNK        -0.5000 
    104 N         -4.3808  -25.4968  -54.1131 N.am      19 UNK        -0.5000 
    105 CA        -3.5589  -25.0471  -55.2438 C.3       19 UNK         0.1400 
    106 CB        -2.1473  -25.6410  -55.1232 C.3       19 UNK        -0.1800 
    107 C         -3.4868  -23.5100  -55.3667 C.2       19 UNK         0.5000 
    108 O         -3.0172  -23.0207  -56.3946 O.2       19 UNK        -0.5000 
    109 N         -3.9543  -22.7996  -54.3294 N.am      20 UNK        -0.5000 
    110 CA        -3.9287  -21.3568  -54.0917 C.3       20 UNK         0.1400 
    111 CB        -4.4010  -20.5260  -55.3012 C.3       20 UNK        -0.1800 
    112 C         -2.5542  -20.9090  -53.5695 C.2       20 UNK         0.5000 
    113 O         -1.5458  -21.0350  -54.2670 O.2       20 UNK        -0.5000 
    114 N         -2.5483  -20.3871  -52.3380 N.am      21 UNK        -0.5000 
    115 CA        -1.3881  -19.7750  -51.6941 C.3       21 UNK         0.1400 
    116 CB        -1.6596  -19.7004  -50.1838 C.3       21 UNK        -0.1800 
    117 C         -1.1051  -18.3782  -52.2824 C.2       21 UNK         0.5000 
    118 O         -2.0371  -17.7221  -52.7517 O.2       21 UNK        -0.5000 
    119 N          0.1730  -17.9752  -52.2567 N.am      22 UNK        -0.5000 
    120 CA         0.7877  -16.7233  -52.7605 C.3       22 UNK         0.1400 
    121 C          0.5018  -16.2792  -54.2311 C.2       22 UNK         0.5000 
    122 N         -0.4864  -16.8221  -54.9252 N.am      22 UNK        -0.7600 
    123 O          1.2285  -15.4475  -54.7687 O.2       22 UNK        -0.5000 
    124 C124        0.7161  -15.5343  -51.7590 C.3       23 UNK        -0.0398 
    125 S125       -0.9627  -14.8901  -51.4321 S.3       23 UNK        -0.2404 
    126 C126       -1.0908  -15.1394  -49.6367 C.3       23 UNK        -0.0205 
    127 H127       -0.2890   -8.2786  -49.4537 H         1 UNK         0.0600 
    128 H128        0.9506   -9.5161  -49.2295 H         1 UNK         0.0600 
    129 H129        0.3903   -8.5716  -47.8478 H         1 UNK         0.0600 
    130 H130       -1.2824   -9.4483  -46.6189 H         1 UNK         0.3000 
    131 H131       -2.4218  -12.0104  -47.3633 H         1 UNK         0.0600 
    132 H132       -4.3159   -9.6720  -46.8899 H         1 UNK         0.0800 
    133 H133       -3.9982  -10.3746  -48.4417 H         1 UNK         0.0800 
    134 H134       -6.4838  -12.9517  -48.8609 H         1 UNK         0.0800 
    135 H135       -5.1384  -12.0492  -49.4915 H         1 UNK         0.0800 
    136 H136       -2.8348  -13.0406  -49.4607 H         1 UNK         0.1150 
    137 H137       -2.5500  -17.2602  -48.8034 H         1 UNK         0.1150 
    138 H138       -6.2125  -15.2110  -47.9483 H         1 UNK         0.1150 
    139 H139       -6.1579  -17.6743  -48.2147 H         1 UNK         0.0800 
    140 H140       -4.6699  -18.5209  -48.5219 H         1 UNK         0.0800 
    141 H141       -2.9250  -18.5124  -44.9930 H         1 UNK         0.0800 
    142 H142       -2.6171  -18.1006  -46.6478 H         1 UNK         0.0800 
    143 H143       -3.6061  -20.3396  -47.3419 H         1 UNK         0.0600 
    144 H144       -1.0364  -19.9061  -46.3044 H         1 UNK         0.3000 
    145 H145        0.3203  -23.1682  -46.9786 H         1 UNK         0.0600 
    146 H146        1.9427  -21.7246  -48.1721 H         1 UNK         0.0600 
    147 H147        0.4481  -21.8524  -49.0850 H         1 UNK         0.0600 
    148 H148        0.7952  -20.3888  -48.1735 H         1 UNK         0.0600 
    149 H149        1.5200  -20.8809  -45.8058 H         1 UNK         0.3000 
    150 H150        0.6204  -21.6133  -42.3942 H         1 UNK         0.0600 
    151 H151        2.6751  -22.9135  -42.9456 H         1 UNK         0.0600 
    152 H152        3.0789  -21.3751  -42.1980 H         1 UNK         0.0600 
    153 H153        3.2687  -21.5871  -43.9364 H         1 UNK         0.0600 
    154 H154        2.0607  -19.4291  -43.4662 H         1 UNK         0.3000 
    155 H155       -0.7376  -17.2624  -44.1028 H         1 UNK         0.0600 
    156 H156       -0.1261  -16.9790  -41.7413 H         1 UNK         0.0600 
    157 H157        0.8388  -15.8640  -42.6961 H         1 UNK         0.0600 
    158 H158        1.5603  -17.3386  -42.0716 H         1 UNK         0.0600 
    159 H159        2.0369  -16.9177  -44.5948 H         1 UNK         0.3000 
    160 H160        2.1457  -18.3257  -47.8832 H         1 UNK         0.0600 
    161 H161        2.2585  -15.4327  -46.8891 H         1 UNK         0.0600 
    162 H162        1.3526  -16.0336  -48.2621 H         1 UNK         0.0600 
    163 H163        3.1059  -16.0443  -48.3084 H         1 UNK         0.0600 
    164 H164        4.0551  -17.0572  -46.1233 H         1 UNK         0.3000 
    165 H165        5.2535  -20.0558  -44.6252 H         1 UNK         0.0600 
    166 H166        7.3893  -19.2576  -45.6018 H         1 UNK         0.0600 
    167 H167        6.3901  -19.9849  -46.8497 H         1 UNK         0.0600 
    168 H168        6.5194  -18.2331  -46.7440 H         1 UNK         0.0600 
    169 H169        6.0793  -17.3110  -44.4890 H         1 UNK         0.3000 
    170 H170        3.8627  -16.2870  -41.9030 H         1 UNK         0.0600 
    171 H171        5.6821  -17.4894  -40.6819 H         1 UNK         0.0600 
    172 H172        6.8751  -16.8535  -41.8083 H         1 UNK         0.0600 
    173 H173        5.9881  -15.7613  -40.7442 H         1 UNK         0.0600 
    174 H174        6.0233  -14.9424  -43.1623 H         1 UNK         0.3000 
    175 H175        5.2132  -12.9691  -44.4941 H         1 UNK         0.0600 
    176 H176        5.6164  -15.1040  -46.6917 H         1 UNK         0.0600 
    177 H177        6.3865  -13.5213  -46.6627 H         1 UNK         0.0600 
    178 H178        6.7966  -14.7104  -45.4465 H         1 UNK         0.0600 
    179 H179        2.9008  -13.8379  -45.8690 H         1 UNK         0.3000 
    180 H180        2.2836  -10.8314  -47.5242 H         1 UNK         0.0600 
    181 H181        2.8062  -13.4357  -49.0577 H         1 UNK         0.0600 
    182 H182        3.4931  -11.8624  -49.4413 H         1 UNK         0.0600 
    183 H183        1.7619  -12.1174  -49.5896 H         1 UNK         0.0600 
    184 H184        0.9139  -13.3635  -47.5061 H         1 UNK         0.3000 
    185 H185       -1.1060  -13.3897  -46.4298 H         1 UNK         0.0600 
    186 H186       -1.1554  -14.7167  -44.3471 H         1 UNK         0.0600 
    187 H187        0.1621  -13.7522  -43.6769 H         1 UNK         0.0600 
    188 H188        0.4376  -14.7687  -45.0841 H         1 UNK         0.0600 
    189 H189       -1.5857  -12.1387  -43.8362 H         1 UNK         0.3000 
    190 H190       -2.4114  -20.8287  -43.9904 H         1 UNK         0.3000 
    191 H191       -4.7682  -21.8791  -42.8672 H         1 UNK         0.0600 
    192 H192       -1.8421  -22.3976  -42.1172 H         1 UNK         0.0600 
    193 H193       -2.8420  -21.0697  -41.5330 H         1 UNK         0.0600 
    194 H194       -3.2315  -22.7249  -41.0888 H         1 UNK         0.0600 
    195 H195       -2.1587  -23.5389  -44.6410 H         1 UNK         0.3000 
    196 H196       -3.2604  -26.2058  -44.3606 H         1 UNK         0.0600 
    197 H197       -0.8217  -25.7744  -44.6288 H         1 UNK         0.0600 
    198 H198       -1.1067  -25.0990  -46.2316 H         1 UNK         0.0600 
    199 H199       -1.4291  -26.8004  -45.9174 H         1 UNK         0.0600 
    200 H200       -5.3385  -24.6780  -45.1436 H         1 UNK         0.3000 
    201 H201       -7.0668  -24.4521  -46.5281 H         1 UNK         0.0600 
    202 H202       -7.7441  -26.5059  -47.7497 H         1 UNK         0.0600 
    203 H203       -7.0941  -26.9208  -46.1729 H         1 UNK         0.0600 
    204 H204       -6.1145  -27.1554  -47.6188 H         1 UNK         0.0600 
    205 H205       -5.0804  -22.8514  -47.3930 H         1 UNK         0.3000 
    206 H206       -4.2400  -21.6369  -49.0691 H         1 UNK         0.0600 
    207 H207       -6.6820  -22.5744  -50.6641 H         1 UNK         0.0600 
    208 H208       -5.6905  -21.1659  -51.0132 H         1 UNK         0.0600 
    209 H209       -6.6492  -21.2141  -49.5434 H         1 UNK         0.0600 
    210 H210       -2.6879  -23.5497  -48.7987 H         1 UNK         0.3000 
    211 H211       -1.1386  -24.9251  -49.5594 H         1 UNK         0.0600 
    212 H212       -0.5920  -22.9553  -51.0160 H         1 UNK         0.0600 
    213 H213       -0.1619  -24.4733  -51.7879 H         1 UNK         0.0600 
    214 H214       -1.6084  -23.6128  -52.2939 H         1 UNK         0.0600 
    215 H215       -3.4444  -26.2168  -49.1784 H         1 UNK         0.3000 
    216 H216       -4.7717  -27.9336  -49.6119 H         1 UNK         0.0600 
    217 H217       -3.7679  -29.9422  -50.6507 H         1 UNK         0.0600 
    218 H218       -2.4689  -28.9811  -51.3443 H         1 UNK         0.0600 
    219 H219       -2.5996  -29.1635  -49.5956 H         1 UNK         0.0600 
    220 H220       -5.5603  -25.8168  -50.9442 H         1 UNK         0.3000 
    221 H221       -6.8572  -24.9704  -52.4524 H         1 UNK         0.0600 
    222 H222       -8.3969  -26.3770  -53.7460 H         1 UNK         0.0600 
    223 H223       -7.3744  -27.7887  -53.5300 H         1 UNK         0.0600 
    224 H224       -8.1946  -27.0666  -52.1453 H         1 UNK         0.0600 
    225 H225       -3.8912  -25.7234  -53.2554 H         1 UNK         0.3000 
    226 H226       -3.9990  -25.4291  -56.1673 H         1 UNK         0.0600 
    227 H227       -2.1797  -26.7190  -54.9642 H         1 UNK         0.0600 
    228 H228       -1.5730  -25.4626  -56.0330 H         1 UNK         0.0600 
    229 H229       -1.5917  -25.1930  -54.2993 H         1 UNK         0.0600 
    230 H230       -4.2393  -23.3314  -53.5115 H         1 UNK         0.3000 
    231 H231       -4.6609  -21.1946  -53.2995 H         1 UNK         0.0600 
    232 H232       -4.5408  -19.4825  -55.0167 H         1 UNK         0.0600 
    233 H233       -5.3537  -20.8906  -55.6853 H         1 UNK         0.0600 
    234 H234       -3.6787  -20.5391  -56.1176 H         1 UNK         0.0600 
    235 H235       -3.4285  -20.2686  -51.8615 H         1 UNK         0.3000 
    236 H236       -0.5158  -20.4105  -51.8615 H         1 UNK         0.0600 
    237 H237       -1.7413  -20.6988  -49.7549 H         1 UNK         0.0600 
    238 H238       -0.8578  -19.1815  -49.6569 H         1 UNK         0.0600 
    239 H239       -2.5906  -19.1754  -49.9734 H         1 UNK         0.0600 
    240 H240        0.8442  -18.6246  -51.8731 H         1 UNK         0.3000 
    241 H241        1.8446  -16.9903  -52.8021 H         1 UNK         0.0600 
    242 H242       -0.6531  -16.5380  -55.8772 H         1 UNK         0.3800 
    243 H243       -1.1620  -17.3957  -54.4320 H         1 UNK         0.3800 
    244 H244        1.3246  -14.7025  -52.1180 H         1 UNK         0.0800 
    245 H245        1.1818  -15.8338  -50.8202 H         1 UNK         0.0800 
    246 H246       -0.6225  -16.0886  -49.3750 H         1 UNK         0.0800 
    247 H247       -0.5370  -14.3544  -49.1211 H         1 UNK         0.0800 
@<TRIPOS>BOND
     1    1    2 1    
     2    1  127 1    
     3    1  128 1    
     4    1  129 1    
     5    2    3 2    
     6    2    4 am   BACKBONE|DICT|INTERRES
     7    4    5 1    
     8    4  130 1    
     9    5    6 1    
    10    5   65 1    
    11    5  131 1    
    12    6    7 1    
    13    6  132 1    
    14    6  133 1    
    15    7    8 1    
    16    8    9 1    
    17    8  134 1    
    18    8  135 1    
    19    9   10 ar   
    20    9   14 ar   
    21   10   11 ar   
    22   10  136 1    
    23   11   12 ar   
    24   11  126 1    
    25   12   13 ar   
    26   12  137 1    
    27   13   14 ar   
    28   13   15 1    
    29   14  138 1    
    30   15   16 1    
    31   15  139 1    
    32   15  140 1    
    33   16   17 1    
    34   17   18 1    
    35   17  141 1    
    36   17  142 1    
    37   18   19 1    
    38   18   67 1    
    39   18  143 1    
    40   19   20 am   BACKBONE|DICT|INTERRES
    41   19  144 1    
    42   20   21 2    
    43   20   22 1    
    44   22   23 1    
    45   22   24 1    
    46   22  145 1    
    47   23  146 1    
    48   23  147 1    
    49   23  148 1    
    50   24   25 am   BACKBONE|DICT|INTERRES
    51   24  149 1    
    52   25   26 2    
    53   25   27 1    
    54   27   28 1    
    55   27   29 1    
    56   27  150 1    
    57   28  151 1    
    58   28  152 1    
    59   28  153 1    
    60   29   30 am   BACKBONE|DICT|INTERRES
    61   29  154 1    
    62   30   31 2    
    63   30   32 1    
    64   32   33 1    
    65   32   34 1    
    66   32  155 1    
    67   33  156 1    
    68   33  157 1    
    69   33  158 1    
    70   34   35 am   BACKBONE|DICT|INTERRES
    71   34  159 1    
    72   35   36 2    
    73   35   37 1    
    74   37   38 1    
    75   37   39 1    
    76   37  160 1    
    77   38  161 1    
    78   38  162 1    
    79   38  163 1    
    80   39   40 am   BACKBONE|DICT|INTERRES
    81   39  164 1    
    82   40   41 2    
    83   40   42 1    
    84   42   43 1    
    85   42   44 1    
    86   42  165 1    
    87   43  166 1    
    88   43  167 1    
    89   43  168 1    
    90   44   45 am   BACKBONE|DICT|INTERRES
    91   44  169 1    
    92   45   46 2    
    93   45   47 1    
    94   47   48 1    
    95   47   49 1    
    96   47  170 1    
    97   48  171 1    
    98   48  172 1    
    99   48  173 1    
   100   49   50 am   BACKBONE|DICT|INTERRES
   101   49  174 1    
   102   50   51 2    
   103   50   52 1    
   104   52   53 1    
   105   52   54 1    
   106   52  175 1    
   107   53  176 1    
   108   53  177 1    
   109   53  178 1    
   110   54   55 am   BACKBONE|DICT|INTERRES
   111   54  179 1    
   112   55   56 2    
   113   55   57 1    
   114   57   58 1    
   115   57   59 1    
   116   57  180 1    
   117   58  181 1    
   118   58  182 1    
   119   58  183 1    
   120   59   60 am   BACKBONE|DICT|INTERRES
   121   59  184 1    
   122   60   61 2    
   123   60   62 1    
   124   62   63 1    
   125   62   64 1    
   126   62  185 1    
   127   63  186 1    
   128   63  187 1    
   129   63  188 1    
   130   64   65 am   BACKBONE|DICT|INTERRES
   131   64  189 1    
   132   65   66 2    
   133   67   68 2    
   134   67   69 am   BACKBONE|DICT|INTERRES
   135   69   70 1    
   136   69  190 1    
   137   70   71 1    
   138   70   72 1    
   139   70  191 1    
   140   71  192 1    
   141   71  193 1    
   142   71  194 1    
   143   72   73 2    
   144   72   74 am   BACKBONE|DICT|INTERRES
   145   74   75 1    
   146   74  195 1    
   147   75   76 1    
   148   75   77 1    
   149   75  196 1    
   150   76  197 1    
   151   76  198 1    
   152   76  199 1    
   153   77   78 2    
   154   77   79 am   BACKBONE|DICT|INTERRES
   155   79   80 1    
   156   79  200 1    
   157   80   81 1    
   158   80   82 1    
   159   80  201 1    
   160   81  202 1    
   161   81  203 1    
   162   81  204 1    
   163   82   83 2    
   164   82   84 am   BACKBONE|DICT|INTERRES
   165   84   85 1    
   166   84  205 1    
   167   85   86 1    
   168   85   87 1    
   169   85  206 1    
   170   86  207 1    
   171   86  208 1    
   172   86  209 1    
   173   87   88 2    
   174   87   89 am   BACKBONE|DICT|INTERRES
   175   89   90 1    
   176   89  210 1    
   177   90   91 1    
   178   90   92 1    
   179   90  211 1    
   180   91  212 1    
   181   91  213 1    
   182   91  214 1    
   183   92   93 2    
   184   92   94 am   BACKBONE|DICT|INTERRES
   185   94   95 1    
   186   94  215 1    
   187   95   96 1    
   188   95   97 1    
   189   95  216 1    
   190   96  217 1    
   191   96  218 1    
   192   96  219 1    
   193   97   98 2    
   194   97   99 am   BACKBONE|DICT|INTERRES
   195   99  100 1    
   196   99  220 1    
   197  100  101 1    
   198  100  102 1    
   199  100  221 1    
   200  101  222 1    
   201  101  223 1    
   202  101  224 1    
   203  102  103 2    
   204  102  104 am   BACKBONE|DICT|INTERRES
   205  104  105 1    
   206  104  225 1    
   207  105  106 1    
   208  105  107 1    
   209  105  226 1    
   210  106  227 1    
   211  106  228 1    
   212  106  229 1    
   213  107  108 2    
   214  107  109 am   BACKBONE|DICT|INTERRES
   215  109  110 1    
   216  109  230 1    
   217  110  111 1    
   218  110  112 1    
   219  110  231 1    
   220  111  232 1    
   221  111  233 1    
   222  111  234 1    
   223  112  113 2    
   224  112  114 am   BACKBONE|DICT|INTERRES
   225  114  115 1    
   226  114  235 1    
   227  115  116 1    
   228  115  117 1    
   229  115  236 1    
   230  116  237 1    
   231  116  238 1    
   232  116  239 1    
   233  117  118 2    
   234  117  119 am   BACKBONE|DICT|INTERRES
   235  119  120 1    
   236  119  240 1    
   237  120  121 1    
   238  120  124 1    
   239  120  241 1    
   240  121  122 am   BACKBONE|DICT|INTERRES
   241  121  123 2    
   242  122  242 1    
   243  122  243 1    
   244  124  125 1    
   245  124  244 1    
   246  124  245 1    
   247  125  126 1    
   248  126  246 1    
   249  126  247 1    
@<TRIPOS>SUBSTRUCTURE
     1 UNK         1 GROUP             0       ****    0 ROOT    
