@<TRIPOS>MOLECULE
3R540
247   249    1
SMALL
USER_CHARGES


@<TRIPOS>ATOM
      1 CA          7.4961  -11.2640  -45.1259 C.3       0 UNK        -0.1800 
      2 C           6.0110  -11.5953  -45.0748 C.2       0 UNK         0.5000 
      3 O           5.2903  -11.0527  -44.2363 O.2       0 UNK        -0.5000 
      4 N           5.5547  -12.4891  -45.9600 N.am      1 UNK        -0.5000 
      5 CA          4.1526  -12.8996  -46.0921 C.3       1 UNK         0.1400 
      6 C6          3.9953  -14.1871  -46.9433 C.3       23 UNK        -0.0398 
      7 S7          4.9821  -15.5872  -46.3183 S.3       23 UNK        -0.2404 
      8 C8          5.6357  -16.2829  -47.8696 C.3       23 UNK        -0.0205 
      9 C9          4.6938  -17.3164  -48.4720 C.ar      23 UNK        -0.0193 
     10 C10         3.5794  -16.9270  -49.2250 C.ar      23 UNK        -0.1150 
     11 C11         2.7304  -17.8892  -49.7848 C.ar      23 UNK        -0.0193 
     12 C12         3.0162  -19.2455  -49.6044 C.ar      23 UNK        -0.1150 
     13 C13         4.1265  -19.6460  -48.8559 C.ar      23 UNK        -0.0193 
     14 C14         4.9556  -18.6767  -48.2874 C.ar      23 UNK        -0.1150 
     15 C15         4.4450  -21.1217  -48.6680 C.3       23 UNK        -0.0205 
     16 S16         3.5854  -21.8151  -47.2225 S.3       23 UNK        -0.2404 
     17 C17         1.8927  -22.0029  -47.8735 C.3       23 UNK        -0.0398 
     18 CA          1.2176  -23.2884  -47.3488 C.3       11 UNK         0.1400 
     19 N           1.0260  -23.2584  -45.8958 N.am      11 UNK        -0.5000 
     20 C           0.5698  -24.2785  -45.1578 C.2       10 UNK         0.5000 
     21 O           0.2366  -25.3653  -45.6284 O.2       10 UNK        -0.5000 
     22 CA          0.4422  -24.0460  -43.6428 C.3       10 UNK         0.1400 
     23 CB          1.6848  -24.5789  -42.9151 C.3       10 UNK        -0.1800 
     24 N           0.2328  -22.6473  -43.2641 N.am      10 UNK        -0.5000 
     25 C          -0.8353  -21.9024  -43.5717 C.2       9 UNK         0.5000 
     26 O          -1.7347  -22.2769  -44.3259 O.2       9 UNK        -0.5000 
     27 CA         -0.9110  -20.5051  -42.9272 C.3       9 UNK         0.1400 
     28 CB         -1.0200  -20.5926  -41.3926 C.3       9 UNK        -0.1800 
     29 N           0.1605  -19.5872  -43.3327 N.am      9 UNK        -0.5000 
     30 C           1.4850  -19.6716  -43.1269 C.2       8 UNK         0.5000 
     31 O           2.0292  -20.6036  -42.5337 O.2       8 UNK        -0.5000 
     32 CA          2.3590  -18.5267  -43.6852 C.3       8 UNK         0.1400 
     33 CB          3.1110  -18.9952  -44.9404 C.3       8 UNK        -0.1800 
     34 N           1.5938  -17.3259  -44.0263 N.am      8 UNK        -0.5000 
     35 C           1.1131  -16.4350  -43.1461 C.2       7 UNK         0.5000 
     36 O           1.3432  -16.4725  -41.9375 O.2       7 UNK        -0.5000 
     37 CA          0.1823  -15.3419  -43.7163 C.3       7 UNK         0.1400 
     38 CB          0.9827  -14.0839  -44.0752 C.3       7 UNK        -0.1800 
     39 N          -0.5595  -15.7907  -44.8999 N.am      7 UNK        -0.5000 
     40 C          -1.4553  -16.7835  -44.8994 C.2       6 UNK         0.5000 
     41 O          -1.8492  -17.3369  -43.8723 O.2       6 UNK        -0.5000 
     42 CA         -1.9206  -17.2881  -46.2758 C.3       6 UNK         0.1400 
     43 CB         -2.6528  -18.6380  -46.1728 C.3       6 UNK        -0.1800 
     44 N          -2.7696  -16.3414  -46.9953 N.am      6 UNK        -0.5000 
     45 C          -2.3905  -15.1900  -47.5598 C.2       5 UNK         0.5000 
     46 O          -1.2594  -14.7028  -47.4587 O.2       5 UNK        -0.5000 
     47 CA         -3.4630  -14.4774  -48.3959 C.3       5 UNK         0.1400 
     48 CB         -4.4236  -13.6739  -47.5058 C.3       5 UNK        -0.1800 
     49 N          -2.8086  -13.5839  -49.3428 N.am      5 UNK        -0.5000 
     50 C          -3.1975  -13.3493  -50.6025 C.2       4 UNK         0.5000 
     51 O          -4.1965  -13.8477  -51.1163 O.2       4 UNK        -0.5000 
     52 CA         -2.3168  -12.4031  -51.4409 C.3       4 UNK         0.1400 
     53 CB         -2.8890  -10.9776  -51.4211 C.3       4 UNK        -0.1800 
     54 N          -0.9389  -12.3654  -50.9578 N.am      4 UNK        -0.5000 
     55 C          -0.0270  -13.3219  -51.1561 C.2       3 UNK         0.5000 
     56 O          -0.2015  -14.2795  -51.9084 O.2       3 UNK        -0.5000 
     57 CA          1.2863  -13.2217  -50.3576 C.3       3 UNK         0.1400 
     58 CB          2.3897  -12.5309  -51.1794 C.3       3 UNK        -0.1800 
     59 N           1.1633  -12.6193  -49.0209 N.am      3 UNK        -0.5000 
     60 C           0.8783  -11.3535  -48.6716 C.2       2 UNK         0.5000 
     61 O           0.5473  -10.4753  -49.4677 O.2       2 UNK        -0.5000 
     62 CA          0.9801  -11.0154  -47.1700 C.3       2 UNK         0.1400 
     63 CB         -0.3857  -11.1896  -46.4875 C.3       2 UNK        -0.1800 
     64 N           1.9787  -11.8353  -46.4763 N.am      2 UNK        -0.5000 
     65 C           3.2971  -11.7762  -46.7145 C.2       1 UNK         0.5000 
     66 O           3.8200  -10.9349  -47.4505 O.2       1 UNK        -0.5000 
     67 C          -0.0925  -23.5556  -48.1145 C.2       11 UNK         0.5000 
     68 O          -0.0806  -24.3299  -49.0709 O.2       11 UNK        -0.5000 
     69 N          -1.2007  -22.9504  -47.6623 N.am      12 UNK        -0.5000 
     70 CA         -2.5255  -23.1517  -48.2496 C.3       12 UNK         0.1400 
     71 CB         -3.5002  -22.0968  -47.7119 C.3       12 UNK        -0.1800 
     72 C          -3.0554  -24.5732  -48.0051 C.2       12 UNK         0.5000 
     73 O          -3.6013  -25.1818  -48.9242 O.2       12 UNK        -0.5000 
     74 N          -2.8343  -25.0950  -46.7904 N.am      13 UNK        -0.5000 
     75 CA         -3.1863  -26.4610  -46.4033 C.3       13 UNK         0.1400 
     76 CB         -3.0144  -26.6283  -44.8857 C.3       13 UNK        -0.1800 
     77 C          -2.3729  -27.5165  -47.1745 C.2       13 UNK         0.5000 
     78 O          -2.9473  -28.5010  -47.6394 O.2       13 UNK        -0.5000 
     79 N          -1.0642  -27.2713  -47.3316 N.am      14 UNK        -0.5000 
     80 CA         -0.1380  -28.1107  -48.0932 C.3       14 UNK         0.1400 
     81 CB          1.3010  -27.6289  -47.8533 C.3       14 UNK        -0.1800 
     82 C          -0.4568  -28.1440  -49.5996 C.2       14 UNK         0.5000 
     83 O          -0.3851  -29.2101  -50.2119 O.2       14 UNK        -0.5000 
     84 N          -0.8241  -26.9852  -50.1636 N.am      15 UNK        -0.5000 
     85 CA         -1.2372  -26.8353  -51.5606 C.3       15 UNK         0.1400 
     86 CB         -1.1513  -25.3495  -51.9450 C.3       15 UNK        -0.1800 
     87 C          -2.6548  -27.3697  -51.8473 C.2       15 UNK         0.5000 
     88 O          -2.9850  -27.5829  -53.0146 O.2       15 UNK        -0.5000 
     89 N          -3.4670  -27.5404  -50.7924 N.am      16 UNK        -0.5000 
     90 CA         -4.9074  -27.8211  -50.8110 C.3       16 UNK         0.1400 
     91 CB         -5.1988  -29.2194  -51.3942 C.3       16 UNK        -0.1800 
     92 C          -5.6931  -26.6854  -51.5027 C.2       16 UNK         0.5000 
     93 O          -6.5754  -26.9381  -52.3257 O.2       16 UNK        -0.5000 
     94 N          -5.3187  -25.4481  -51.1639 N.am      17 UNK        -0.5000 
     95 CA         -5.8381  -24.2007  -51.7102 C.3       17 UNK         0.1400 
     96 CB         -4.6470  -23.4002  -52.2638 C.3       17 UNK        -0.1800 
     97 C          -6.5607  -23.4021  -50.6135 C.2       17 UNK         0.5000 
     98 O          -6.4734  -23.7406  -49.4303 O.2       17 UNK        -0.5000 
     99 N          -7.2593  -22.3384  -51.0265 N.am      18 UNK        -0.5000 
    100 CA        -7.9138  -21.3931  -50.1261 C.3       18 UNK         0.1400 
    101 CB        -8.8948  -20.5239  -50.9280 C.3       18 UNK        -0.1800 
    102 C         -6.8787  -20.5072  -49.4141 C.2       18 UNK         0.5000 
    103 O         -5.9829  -19.9649  -50.0695 O.2       18 UNK        -0.5000 
    104 N         -7.0486  -20.3270  -48.0979 N.am      19 UNK        -0.5000 
    105 CA        -6.2131  -19.4541  -47.2683 C.3       19 UNK         0.1400 
    106 CB        -6.5872  -19.6332  -45.7906 C.3       19 UNK        -0.1800 
    107 C         -6.3062  -17.9749  -47.6820 C.2       19 UNK         0.5000 
    108 O         -5.3029  -17.2648  -47.6443 O.2       19 UNK        -0.5000 
    109 N         -7.4894  -17.5626  -48.1529 N.am      20 UNK        -0.5000 
    110 CA        -7.7687  -16.2370  -48.7069 C.3       20 UNK         0.1400 
    111 CB        -9.2925  -16.0767  -48.8321 C.3       20 UNK        -0.1800 
    112 C         -7.0796  -15.9540  -50.0606 C.2       20 UNK         0.5000 
    113 O         -7.1351  -14.8138  -50.5197 O.2       20 UNK        -0.5000 
    114 N         -6.4702  -16.9773  -50.6769 N.am      21 UNK        -0.5000 
    115 CA        -5.7409  -16.8943  -51.9435 C.3       21 UNK         0.1400 
    116 CB        -6.4330  -17.8219  -52.9575 C.3       21 UNK        -0.1800 
    117 C         -4.2522  -17.2709  -51.7912 C.2       21 UNK         0.5000 
    118 O         -3.5430  -17.3024  -52.7978 O.2       21 UNK        -0.5000 
    119 N         -3.8012  -17.5687  -50.5624 N.am      22 UNK        -0.5000 
    120 CA        -2.4569  -18.0908  -50.2522 C.3       22 UNK         0.1400 
    121 C         -2.2184  -19.5525  -50.7455 C.2       22 UNK         0.5000 
    122 N         -3.2564  -20.3644  -50.9101 N.am      22 UNK        -0.7600 
    123 O         -1.0873  -19.9723  -50.9706 O.2       22 UNK        -0.5000 
    124 C124       -1.3165  -17.0977  -50.6302 C.3       23 UNK        -0.0398 
    125 S125        0.0960  -17.1578  -49.4712 S.3       23 UNK        -0.2404 
    126 C126        1.4998  -17.4769  -50.5802 C.3       23 UNK        -0.0205 
    127 H127        8.0106  -11.8274  -45.9048 H         1 UNK         0.0600 
    128 H128        7.9661  -11.4979  -44.1707 H         1 UNK         0.0600 
    129 H129        7.6366  -10.2017  -45.3257 H         1 UNK         0.0600 
    130 H130        6.1927  -12.8947  -46.6289 H         1 UNK         0.3000 
    131 H131        3.7730  -13.1002  -45.0882 H         1 UNK         0.0600 
    132 H132        2.9549  -14.5143  -46.9680 H         1 UNK         0.0800 
    133 H133        4.2691  -13.9817  -47.9797 H         1 UNK         0.0800 
    134 H134        5.8452  -15.4954  -48.5943 H         1 UNK         0.0800 
    135 H135        6.6006  -16.7440  -47.6531 H         1 UNK         0.0800 
    136 H136        3.3677  -15.8778  -49.3695 H         1 UNK         0.1150 
    137 H137        2.3666  -19.9882  -50.0449 H         1 UNK         0.1150 
    138 H138        5.8126  -18.9839  -47.7045 H         1 UNK         0.1150 
    139 H139        4.1914  -21.6857  -49.5668 H         1 UNK         0.0800 
    140 H140        5.5191  -21.2516  -48.5276 H         1 UNK         0.0800 
    141 H141        1.9380  -22.0298  -48.9635 H         1 UNK         0.0800 
    142 H142        1.3129  -21.1161  -47.6111 H         1 UNK         0.0800 
    143 H143        1.8808  -24.1288  -47.5654 H         1 UNK         0.0600 
    144 H144        1.2970  -22.4103  -45.4213 H         1 UNK         0.3000 
    145 H145       -0.4249  -24.6145  -43.3008 H         1 UNK         0.0600 
    146 H146        1.5681  -24.5102  -41.8334 H         1 UNK         0.0600 
    147 H147        1.8605  -25.6283  -43.1563 H         1 UNK         0.0600 
    148 H148        2.5812  -24.0225  -43.1921 H         1 UNK         0.0600 
    149 H149        0.9619  -22.2039  -42.7123 H         1 UNK         0.3000 
    150 H150       -1.8374  -20.0531  -43.2845 H         1 UNK         0.0600 
    151 H151       -1.8580  -21.2253  -41.0976 H         1 UNK         0.0600 
    152 H152       -1.1886  -19.6075  -40.9572 H         1 UNK         0.0600 
    153 H153       -0.1215  -21.0086  -40.9364 H         1 UNK         0.0600 
    154 H154       -0.1766  -18.7488  -43.7858 H         1 UNK         0.3000 
    155 H155        3.0941  -18.2694  -42.9199 H         1 UNK         0.0600 
    156 H156        2.4277  -19.2492  -45.7518 H         1 UNK         0.0600 
    157 H157        3.7897  -18.2250  -45.3062 H         1 UNK         0.0600 
    158 H158        3.7138  -19.8794  -44.7295 H         1 UNK         0.0600 
    159 H159        1.3790  -17.1940  -45.0033 H         1 UNK         0.3000 
    160 H160       -0.5400  -15.0824  -42.9394 H         1 UNK         0.0600 
    161 H161        1.6870  -14.2875  -44.8801 H         1 UNK         0.0600 
    162 H162        1.5532  -13.7233  -43.2180 H         1 UNK         0.0600 
    163 H163        0.3204  -13.2770  -44.3879 H         1 UNK         0.0600 
    164 H164       -0.3651  -15.3338  -45.7853 H         1 UNK         0.3000 
    165 H165       -1.0204  -17.4546  -46.8674 H         1 UNK         0.0600 
    166 H166       -2.9361  -19.0082  -47.1541 H         1 UNK         0.0600 
    167 H167       -2.0187  -19.3984  -45.7158 H         1 UNK         0.0600 
    168 H168       -3.5600  -18.5591  -45.5732 H         1 UNK         0.0600 
    169 H169       -3.7360  -16.6380  -47.1264 H         1 UNK         0.3000 
    170 H170       -4.0282  -15.2357  -48.9403 H         1 UNK         0.0600 
    171 H171       -4.9337  -14.3242  -46.7940 H         1 UNK         0.0600 
    172 H172       -3.8971  -12.9066  -46.9367 H         1 UNK         0.0600 
    173 H173       -5.1922  -13.1825  -48.1028 H         1 UNK         0.0600 
    174 H174       -1.9272  -13.2070  -49.0219 H         1 UNK         0.3000 
    175 H175       -2.3215  -12.7635  -52.4718 H         1 UNK         0.0600 
    176 H176       -2.9000  -10.5625  -50.4124 H         1 UNK         0.0600 
    177 H177       -2.3034  -10.3092  -52.0526 H         1 UNK         0.0600 
    178 H178       -3.9138  -10.9630  -51.7943 H         1 UNK         0.0600 
    179 H179       -0.6667  -11.5752  -50.3798 H         1 UNK         0.3000 
    180 H180        1.6089  -14.2485  -50.1802 H         1 UNK         0.0600 
    181 H181        2.1331  -11.4986  -51.4186 H         1 UNK         0.0600 
    182 H182        2.5552  -13.0521  -52.1231 H         1 UNK         0.0600 
    183 H183        3.3369  -12.5252  -50.6400 H         1 UNK         0.0600 
    184 H184        1.3239  -13.2639  -48.2618 H         1 UNK         0.3000 
    185 H185        1.2766   -9.9678  -47.0845 H         1 UNK         0.0600 
    186 H186       -1.1465  -10.5779  -46.9744 H         1 UNK         0.0600 
    187 H187       -0.7278  -12.2242  -46.5216 H         1 UNK         0.0600 
    188 H188       -0.3460  -10.8834  -45.4421 H         1 UNK         0.0600 
    189 H189        1.6203  -12.5244  -45.8328 H         1 UNK         0.3000 
    190 H190       -1.1471  -22.3753  -46.8334 H         1 UNK         0.3000 
    191 H191       -2.4444  -23.0123  -49.3297 H         1 UNK         0.0600 
    192 H192       -3.5599  -22.1116  -46.6230 H         1 UNK         0.0600 
    193 H193       -4.5059  -22.2585  -48.1014 H         1 UNK         0.0600 
    194 H194       -3.1924  -21.1006  -48.0234 H         1 UNK         0.0600 
    195 H195       -2.3478  -24.5358  -46.1046 H         1 UNK         0.3000 
    196 H196       -4.2407  -26.6143  -46.6429 H         1 UNK         0.0600 
    197 H197       -3.3105  -27.6292  -44.5694 H         1 UNK         0.0600 
    198 H198       -3.6340  -25.9180  -44.3381 H         1 UNK         0.0600 
    199 H199       -1.9803  -26.4801  -44.5745 H         1 UNK         0.0600 
    200 H200       -0.6615  -26.4625  -46.8641 H         1 UNK         0.3000 
    201 H201       -0.2228  -29.1308  -47.7131 H         1 UNK         0.0600 
    202 H202        1.5603  -27.6745  -46.7954 H         1 UNK         0.0600 
    203 H203        1.4415  -26.6004  -48.1871 H         1 UNK         0.0600 
    204 H204        2.0170  -28.2510  -48.3916 H         1 UNK         0.0600 
    205 H205       -0.7929  -26.1354  -49.6087 H         1 UNK         0.3000 
    206 H206       -0.5412  -27.3921  -52.1913 H         1 UNK         0.0600 
    207 H207       -0.1369  -24.9688  -51.8246 H         1 UNK         0.0600 
    208 H208       -1.4348  -25.1942  -52.9867 H         1 UNK         0.0600 
    209 H209       -1.8134  -24.7388  -51.3299 H         1 UNK         0.0600 
    210 H210       -3.0916  -27.3016  -49.8840 H         1 UNK         0.3000 
    211 H211       -5.2289  -27.8254  -49.7684 H         1 UNK         0.0600 
    212 H212       -4.9600  -29.2777  -52.4563 H         1 UNK         0.0600 
    213 H213       -6.2533  -29.4739  -51.2835 H         1 UNK         0.0600 
    214 H214       -4.6234  -29.9878  -50.8778 H         1 UNK         0.0600 
    215 H215       -4.6573  -25.3419  -50.3958 H         1 UNK         0.3000 
    216 H216       -6.5468  -24.3958  -52.5174 H         1 UNK         0.0600 
    217 H217       -4.9669  -22.4499  -52.6927 H         1 UNK         0.0600 
    218 H218       -4.1352  -23.9547  -53.0508 H         1 UNK         0.0600 
    219 H219       -3.9175  -23.1843  -51.4830 H         1 UNK         0.0600 
    220 H220       -7.2604  -22.0987  -52.0070 H         1 UNK         0.3000 
    221 H221       -8.4810  -21.9554  -49.3812 H         1 UNK         0.0600 
    222 H222       -8.3870  -19.9495  -51.7034 H         1 UNK         0.0600 
    223 H223       -9.6583  -21.1346  -51.4101 H         1 UNK         0.0600 
    224 H224       -9.4099  -19.8140  -50.2795 H         1 UNK         0.0600 
    225 H225       -7.8011  -20.8100  -47.6282 H         1 UNK         0.3000 
    226 H226       -5.1763  -19.7642  -47.3984 H         1 UNK         0.0600 
    227 H227       -6.4247  -20.6613  -45.4662 H         1 UNK         0.0600 
    228 H228       -5.9784  -18.9926  -45.1512 H         1 UNK         0.0600 
    229 H229       -7.6323  -19.3825  -45.6053 H         1 UNK         0.0600 
    230 H230       -8.2543  -18.2209  -48.1591 H         1 UNK         0.3000 
    231 H231       -7.4018  -15.4908  -47.9988 H         1 UNK         0.0600 
    232 H232       -9.5548  -15.0828  -49.1972 H         1 UNK         0.0600 
    233 H233       -9.7840  -16.2048  -47.8675 H         1 UNK         0.0600 
    234 H234       -9.7168  -16.8036  -49.5260 H         1 UNK         0.0600 
    235 H235       -6.4920  -17.8935  -50.2465 H         1 UNK         0.3000 
    236 H236       -5.7678  -15.8761  -52.3362 H         1 UNK         0.0600 
    237 H237       -7.4881  -17.5707  -53.0672 H         1 UNK         0.0600 
    238 H238       -5.9760  -17.7366  -53.9441 H         1 UNK         0.0600 
    239 H239       -6.3653  -18.8674  -52.6546 H         1 UNK         0.0600 
    240 H240       -4.4477  -17.5192  -49.7878 H         1 UNK         0.3000 
    241 H241       -2.4568  -18.1742  -49.1687 H         1 UNK         0.0600 
    242 H242       -4.2057  -20.0708  -50.6950 H         1 UNK         0.3800 
    243 H243       -3.0851  -21.2931  -51.2523 H         1 UNK         0.3800 
    244 H244       -0.9825  -17.2505  -51.6576 H         1 UNK         0.0800 
    245 H245       -1.6939  -16.0761  -50.5958 H         1 UNK         0.0800 
    246 H246        1.2320  -18.2634  -51.2877 H         1 UNK         0.0800 
    247 H247        1.7096  -16.5845  -51.1714 H         1 UNK         0.0800 
@<TRIPOS>BOND
     1    1    2 1    
     2    1  127 1    
     3    1  128 1    
     4    1  129 1    
     5    2    3 2    
     6    2    4 am   BACKBONE|DICT|INTERRES
     7    4    5 1    
     8    4  130 1    
     9    5    6 1    
    10    5   65 1    
    11    5  131 1    
    12    6    7 1    
    13    6  132 1    
    14    6  133 1    
    15    7    8 1    
    16    8    9 1    
    17    8  134 1    
    18    8  135 1    
    19    9   10 ar   
    20    9   14 ar   
    21   10   11 ar   
    22   10  136 1    
    23   11   12 ar   
    24   11  126 1    
    25   12   13 ar   
    26   12  137 1    
    27   13   14 ar   
    28   13   15 1    
    29   14  138 1    
    30   15   16 1    
    31   15  139 1    
    32   15  140 1    
    33   16   17 1    
    34   17   18 1    
    35   17  141 1    
    36   17  142 1    
    37   18   19 1    
    38   18   67 1    
    39   18  143 1    
    40   19   20 am   BACKBONE|DICT|INTERRES
    41   19  144 1    
    42   20   21 2    
    43   20   22 1    
    44   22   23 1    
    45   22   24 1    
    46   22  145 1    
    47   23  146 1    
    48   23  147 1    
    49   23  148 1    
    50   24   25 am   BACKBONE|DICT|INTERRES
    51   24  149 1    
    52   25   26 2    
    53   25   27 1    
    54   27   28 1    
    55   27   29 1    
    56   27  150 1    
    57   28  151 1    
    58   28  152 1    
    59   28  153 1    
    60   29   30 am   BACKBONE|DICT|INTERRES
    61   29  154 1    
    62   30   31 2    
    63   30   32 1    
    64   32   33 1    
    65   32   34 1    
    66   32  155 1    
    67   33  156 1    
    68   33  157 1    
    69   33  158 1    
    70   34   35 am   BACKBONE|DICT|INTERRES
    71   34  159 1    
    72   35   36 2    
    73   35   37 1    
    74   37   38 1    
    75   37   39 1    
    76   37  160 1    
    77   38  161 1    
    78   38  162 1    
    79   38  163 1    
    80   39   40 am   BACKBONE|DICT|INTERRES
    81   39  164 1    
    82   40   41 2    
    83   40   42 1    
    84   42   43 1    
    85   42   44 1    
    86   42  165 1    
    87   43  166 1    
    88   43  167 1    
    89   43  168 1    
    90   44   45 am   BACKBONE|DICT|INTERRES
    91   44  169 1    
    92   45   46 2    
    93   45   47 1    
    94   47   48 1    
    95   47   49 1    
    96   47  170 1    
    97   48  171 1    
    98   48  172 1    
    99   48  173 1    
   100   49   50 am   BACKBONE|DICT|INTERRES
   101   49  174 1    
   102   50   51 2    
   103   50   52 1    
   104   52   53 1    
   105   52   54 1    
   106   52  175 1    
   107   53  176 1    
   108   53  177 1    
   109   53  178 1    
   110   54   55 am   BACKBONE|DICT|INTERRES
   111   54  179 1    
   112   55   56 2    
   113   55   57 1    
   114   57   58 1    
   115   57   59 1    
   116   57  180 1    
   117   58  181 1    
   118   58  182 1    
   119   58  183 1    
   120   59   60 am   BACKBONE|DICT|INTERRES
   121   59  184 1    
   122   60   61 2    
   123   60   62 1    
   124   62   63 1    
   125   62   64 1    
   126   62  185 1    
   127   63  186 1    
   128   63  187 1    
   129   63  188 1    
   130   64   65 am   BACKBONE|DICT|INTERRES
   131   64  189 1    
   132   65   66 2    
   133   67   68 2    
   134   67   69 am   BACKBONE|DICT|INTERRES
   135   69   70 1    
   136   69  190 1    
   137   70   71 1    
   138   70   72 1    
   139   70  191 1    
   140   71  192 1    
   141   71  193 1    
   142   71  194 1    
   143   72   73 2    
   144   72   74 am   BACKBONE|DICT|INTERRES
   145   74   75 1    
   146   74  195 1    
   147   75   76 1    
   148   75   77 1    
   149   75  196 1    
   150   76  197 1    
   151   76  198 1    
   152   76  199 1    
   153   77   78 2    
   154   77   79 am   BACKBONE|DICT|INTERRES
   155   79   80 1    
   156   79  200 1    
   157   80   81 1    
   158   80   82 1    
   159   80  201 1    
   160   81  202 1    
   161   81  203 1    
   162   81  204 1    
   163   82   83 2    
   164   82   84 am   BACKBONE|DICT|INTERRES
   165   84   85 1    
   166   84  205 1    
   167   85   86 1    
   168   85   87 1    
   169   85  206 1    
   170   86  207 1    
   171   86  208 1    
   172   86  209 1    
   173   87   88 2    
   174   87   89 am   BACKBONE|DICT|INTERRES
   175   89   90 1    
   176   89  210 1    
   177   90   91 1    
   178   90   92 1    
   179   90  211 1    
   180   91  212 1    
   181   91  213 1    
   182   91  214 1    
   183   92   93 2    
   184   92   94 am   BACKBONE|DICT|INTERRES
   185   94   95 1    
   186   94  215 1    
   187   95   96 1    
   188   95   97 1    
   189   95  216 1    
   190   96  217 1    
   191   96  218 1    
   192   96  219 1    
   193   97   98 2    
   194   97   99 am   BACKBONE|DICT|INTERRES
   195   99  100 1    
   196   99  220 1    
   197  100  101 1    
   198  100  102 1    
   199  100  221 1    
   200  101  222 1    
   201  101  223 1    
   202  101  224 1    
   203  102  103 2    
   204  102  104 am   BACKBONE|DICT|INTERRES
   205  104  105 1    
   206  104  225 1    
   207  105  106 1    
   208  105  107 1    
   209  105  226 1    
   210  106  227 1    
   211  106  228 1    
   212  106  229 1    
   213  107  108 2    
   214  107  109 am   BACKBONE|DICT|INTERRES
   215  109  110 1    
   216  109  230 1    
   217  110  111 1    
   218  110  112 1    
   219  110  231 1    
   220  111  232 1    
   221  111  233 1    
   222  111  234 1    
   223  112  113 2    
   224  112  114 am   BACKBONE|DICT|INTERRES
   225  114  115 1    
   226  114  235 1    
   227  115  116 1    
   228  115  117 1    
   229  115  236 1    
   230  116  237 1    
   231  116  238 1    
   232  116  239 1    
   233  117  118 2    
   234  117  119 am   BACKBONE|DICT|INTERRES
   235  119  120 1    
   236  119  240 1    
   237  120  121 1    
   238  120  124 1    
   239  120  241 1    
   240  121  122 am   BACKBONE|DICT|INTERRES
   241  121  123 2    
   242  122  242 1    
   243  122  243 1    
   244  124  125 1    
   245  124  244 1    
   246  124  245 1    
   247  125  126 1    
   248  126  246 1    
   249  126  247 1    
@<TRIPOS>SUBSTRUCTURE
     1 UNK         1 GROUP             0       ****    0 ROOT    
