@<TRIPOS>MOLECULE
3R540
247   249    1
SMALL
USER_CHARGES


@<TRIPOS>ATOM
      1 CA          6.2695  -12.2681  -50.1020 C.3       0 UNK        -0.1800 
      2 C           5.8792  -13.7355  -49.9930 C.2       0 UNK         0.5000 
      3 O           6.6528  -14.6073  -50.3901 O.2       0 UNK        -0.5000 
      4 N           4.6875  -14.0086  -49.4550 N.am      1 UNK        -0.5000 
      5 CA          4.1453  -15.3518  -49.2560 C.3       1 UNK         0.1400 
      6 C6          3.6022  -16.0120  -50.5566 C.3       23 UNK        -0.0398 
      7 S7          2.4308  -14.9835  -51.5221 S.3       23 UNK        -0.2404 
      8 C8          1.8088  -16.1788  -52.7605 C.3       23 UNK        -0.0205 
      9 C9          0.9877  -17.3510  -52.2169 C.ar      23 UNK        -0.0193 
     10 C10         0.7380  -18.4424  -53.0570 C.ar      23 UNK        -0.1150 
     11 C11         0.0060  -19.5449  -52.6030 C.ar      23 UNK        -0.0193 
     12 C12        -0.4609  -19.5658  -51.2877 C.ar      23 UNK        -0.1150 
     13 C13        -0.2189  -18.4855  -50.4386 C.ar      23 UNK        -0.0193 
     14 C14         0.4767  -17.3740  -50.9136 C.ar      23 UNK        -0.1150 
     15 C15        -0.6997  -18.5144  -49.0018 C.3       23 UNK        -0.0205 
     16 S16         0.6833  -18.6574  -47.8294 S.3       23 UNK        -0.2404 
     17 C17         1.4063  -20.2932  -48.1811 C.3       23 UNK        -0.0398 
     18 CA          0.8003  -21.4952  -47.4112 C.3       11 UNK         0.1400 
     19 N           0.6495  -21.2994  -45.9617 N.am      11 UNK        -0.5000 
     20 C           0.4709  -22.3183  -45.1046 C.2       10 UNK         0.5000 
     21 O           0.4256  -23.4975  -45.4551 O.2       10 UNK        -0.5000 
     22 CA          0.2601  -21.9848  -43.6182 C.3       10 UNK         0.1400 
     23 CB          1.5730  -21.5594  -42.9432 C.3       10 UNK        -0.1800 
     24 N          -0.7756  -20.9765  -43.4054 N.am      10 UNK        -0.5000 
     25 C          -2.0707  -21.1496  -43.7074 C.2       9 UNK         0.5000 
     26 O          -2.5279  -22.1831  -44.1971 O.2       9 UNK        -0.5000 
     27 CA         -3.0109  -19.9586  -43.4457 C.3       9 UNK         0.1400 
     28 CB         -3.4336  -19.9116  -41.9700 C.3       9 UNK        -0.1800 
     29 N          -2.4188  -18.6768  -43.8243 N.am      9 UNK        -0.5000 
     30 C          -2.0699  -18.3461  -45.0757 C.2       8 UNK         0.5000 
     31 O          -2.2592  -19.0664  -46.0546 O.2       8 UNK        -0.5000 
     32 CA         -1.3421  -17.0039  -45.2513 C.3       8 UNK         0.1400 
     33 CB         -2.3363  -15.8347  -45.1907 C.3       8 UNK        -0.1800 
     34 N          -0.2808  -16.8046  -44.2642 N.am      8 UNK        -0.5000 
     35 C           0.7656  -17.6187  -44.0540 C.2       7 UNK         0.5000 
     36 O           0.9804  -18.6528  -44.6822 O.2       7 UNK        -0.5000 
     37 CA          1.6969  -17.2477  -42.8898 C.3       7 UNK         0.1400 
     38 CB          2.6525  -16.1100  -43.2832 C.3       7 UNK        -0.1800 
     39 N           0.9389  -16.8798  -41.6942 N.am      7 UNK        -0.5000 
     40 C           0.1972  -17.7379  -40.9783 C.2       6 UNK         0.5000 
     41 O           0.1118  -18.9413  -41.2240 O.2       6 UNK        -0.5000 
     42 CA         -0.6145  -17.1402  -39.8149 C.3       6 UNK         0.1400 
     43 CB          0.2605  -16.9934  -38.5610 C.3       6 UNK        -0.1800 
     44 N          -1.2016  -15.8424  -40.1528 N.am      6 UNK        -0.5000 
     45 C          -2.1806  -15.6691  -41.0518 C.2       5 UNK         0.5000 
     46 O          -2.7163  -16.5922  -41.6661 O.2       5 UNK        -0.5000 
     47 CA         -2.5927  -14.2131  -41.3482 C.3       5 UNK         0.1400 
     48 CB         -3.6196  -13.7213  -40.3174 C.3       5 UNK        -0.1800 
     49 N          -1.4609  -13.2784  -41.3953 N.am      5 UNK        -0.5000 
     50 C          -0.4386  -13.3776  -42.2541 C.2       4 UNK         0.5000 
     51 O          -0.3276  -14.2929  -43.0732 O.2       4 UNK        -0.5000 
     52 CA          0.6616  -12.3115  -42.1716 C.3       4 UNK         0.1400 
     53 CB          1.5295  -12.5073  -40.9154 C.3       4 UNK        -0.1800 
     54 N           1.4849  -12.4503  -43.3658 N.am      4 UNK        -0.5000 
     55 C           2.2693  -11.5255  -43.9222 C.2       3 UNK         0.5000 
     56 O           2.4310  -10.3967  -43.4568 O.2       3 UNK        -0.5000 
     57 CA          3.0052  -11.9300  -45.2168 C.3       3 UNK         0.1400 
     58 CB          4.4818  -12.2350  -44.9207 C.3       3 UNK        -0.1800 
     59 N           2.4246  -13.0865  -45.9088 N.am      3 UNK        -0.5000 
     60 C           1.2673  -13.0892  -46.5832 C.2       2 UNK         0.5000 
     61 O           0.5175  -12.1141  -46.6468 O.2       2 UNK        -0.5000 
     62 CA          0.9349  -14.3859  -47.3535 C.3       2 UNK         0.1400 
     63 CB         -0.4198  -14.3188  -48.0818 C.3       2 UNK        -0.1800 
     64 N           1.9737  -14.6824  -48.3411 N.am      2 UNK        -0.5000 
     65 C           3.1421  -15.2852  -48.0921 C.2       1 UNK         0.5000 
     66 O           3.4705  -15.6866  -46.9747 O.2       1 UNK        -0.5000 
     67 C          -0.4816  -22.0321  -48.0768 C.2       11 UNK         0.5000 
     68 O          -0.3787  -22.8692  -48.9735 O.2       11 UNK        -0.5000 
     69 N          -1.6583  -21.5942  -47.6039 N.am      12 UNK        -0.5000 
     70 CA         -2.9618  -22.0685  -48.0709 C.3       12 UNK         0.1400 
     71 CB         -4.0751  -21.2474  -47.4076 C.3       12 UNK        -0.1800 
     72 C          -3.1760  -23.5682  -47.8081 C.2       12 UNK         0.5000 
     73 O          -3.6971  -24.2687  -48.6791 O.2       12 UNK        -0.5000 
     74 N          -2.7513  -24.0260  -46.6228 N.am      13 UNK        -0.5000 
     75 CA         -2.7673  -25.4282  -46.2201 C.3       13 UNK         0.1400 
     76 CB         -2.5839  -25.5270  -44.6982 C.3       13 UNK        -0.1800 
     77 C          -1.7002  -26.2560  -46.9558 C.2       13 UNK         0.5000 
     78 O          -2.0190  -27.3340  -47.4566 O.2       13 UNK        -0.5000 
     79 N          -0.4640  -25.7389  -47.0252 N.am      14 UNK        -0.5000 
     80 CA          0.6867  -26.4085  -47.6397 C.3       14 UNK         0.1400 
     81 CB          1.9698  -25.6196  -47.3409 C.3       14 UNK        -0.1800 
     82 C           0.5327  -26.6302  -49.1543 C.2       14 UNK         0.5000 
     83 O           0.8948  -27.6981  -49.6497 O.2       14 UNK        -0.5000 
     84 N          -0.0253  -25.6356  -49.8578 N.am      15 UNK        -0.5000 
     85 CA         -0.3469  -25.7208  -51.2839 C.3       15 UNK         0.1400 
     86 CB         -0.4886  -24.2976  -51.8463 C.3       15 UNK        -0.1800 
     87 C          -1.6287  -26.5294  -51.5651 C.2       15 UNK         0.5000 
     88 O          -1.8724  -26.8806  -52.7199 O.2       15 UNK        -0.5000 
     89 N          -2.4381  -26.7696  -50.5202 N.am      16 UNK        -0.5000 
     90 CA         -3.7830  -27.3584  -50.5417 C.3       16 UNK         0.1400 
     91 CB         -3.7355  -28.8339  -50.9884 C.3       16 UNK        -0.1800 
     92 C          -4.7909  -26.5119  -51.3508 C.2       16 UNK         0.5000 
     93 O          -5.7633  -27.0443  -51.8888 O.2       16 UNK        -0.5000 
     94 N          -4.5289  -25.2012  -51.4228 N.am      17 UNK        -0.5000 
     95 CA         -5.3230  -24.2168  -52.1499 C.3       17 UNK         0.1400 
     96 CB         -4.4063  -23.0480  -52.5449 C.3       17 UNK        -0.1800 
     97 C          -6.5155  -23.7100  -51.3229 C.2       17 UNK         0.5000 
     98 O          -7.5140  -23.2891  -51.9070 O.2       17 UNK        -0.5000 
     99 N          -6.3793  -23.7407  -49.9862 N.am      18 UNK        -0.5000 
    100 CA        -7.3399  -23.2645  -48.9794 C.3       18 UNK         0.1400 
    101 CB        -8.6457  -24.0843  -49.0296 C.3       18 UNK        -0.1800 
    102 C         -7.5970  -21.7390  -49.0195 C.2       18 UNK         0.5000 
    103 O         -8.5468  -21.2602  -48.3982 O.2       18 UNK        -0.5000 
    104 N         -6.7256  -21.0015  -49.7147 N.am      19 UNK        -0.5000 
    105 CA        -6.6999  -19.5537  -49.8591 C.3       19 UNK         0.1400 
    106 CB        -7.8089  -19.0960  -50.8261 C.3       19 UNK        -0.1800 
    107 C         -5.3134  -19.1663  -50.3941 C.2       19 UNK         0.5000 
    108 O         -4.5835  -20.0305  -50.8863 O.2       19 UNK        -0.5000 
    109 N         -4.9845  -17.8722  -50.3135 N.am      20 UNK        -0.5000 
    110 CA        -3.7495  -17.3022  -50.8624 C.3       20 UNK         0.1400 
    111 CB        -3.3797  -16.0506  -50.0492 C.3       20 UNK        -0.1800 
    112 C         -3.8539  -16.9643  -52.3647 C.2       20 UNK         0.5000 
    113 O         -2.8515  -16.5933  -52.9763 O.2       20 UNK        -0.5000 
    114 N         -5.0615  -17.0750  -52.9353 N.am      21 UNK        -0.5000 
    115 CA        -5.4112  -16.7395  -54.3165 C.3       21 UNK         0.1400 
    116 CB        -6.9319  -16.5072  -54.3862 C.3       21 UNK        -0.1800 
    117 C         -4.9207  -17.7847  -55.3443 C.2       21 UNK         0.5000 
    118 O         -5.7149  -18.2958  -56.1364 O.2       21 UNK        -0.5000 
    119 N         -3.6172  -18.0800  -55.3198 N.am      22 UNK        -0.5000 
    120 CA        -2.9318  -18.9697  -56.2726 C.3       22 UNK         0.1400 
    121 C         -2.6567  -18.3267  -57.6652 C.2       22 UNK         0.5000 
    122 N         -2.8321  -17.0235  -57.8502 N.am      22 UNK        -0.7600 
    123 O         -2.2840  -19.0279  -58.6019 O.2       22 UNK        -0.5000 
    124 C124       -1.6271  -19.5502  -55.6735 C.3       23 UNK        -0.0398 
    125 S125       -1.9360  -20.6383  -54.2435 S.3       23 UNK        -0.2404 
    126 C126       -0.2710  -20.7279  -53.5160 C.3       23 UNK        -0.0205 
    127 H127        6.4413  -12.0024  -51.1450 H         1 UNK         0.0600 
    128 H128        5.4940  -11.6112  -49.7074 H         1 UNK         0.0600 
    129 H129        7.1880  -12.0816  -49.5456 H         1 UNK         0.0600 
    130 H130        4.1006  -13.2533  -49.1293 H         1 UNK         0.3000 
    131 H131        4.9596  -15.9861  -48.8978 H         1 UNK         0.0600 
    132 H132        3.1452  -16.9736  -50.3202 H         1 UNK         0.0800 
    133 H133        4.4417  -16.2463  -51.2123 H         1 UNK         0.0800 
    134 H134        2.6618  -16.5644  -53.3210 H         1 UNK         0.0800 
    135 H135        1.1901  -15.6352  -53.4755 H         1 UNK         0.0800 
    136 H136        1.1167  -18.4336  -54.0693 H         1 UNK         0.1150 
    137 H137       -1.0133  -20.4234  -50.9282 H         1 UNK         0.1150 
    138 H138        0.6374  -16.5451  -50.2417 H         1 UNK         0.1150 
    139 H139       -1.2340  -17.5907  -48.7847 H         1 UNK         0.0800 
    140 H140       -1.4225  -19.3126  -48.8462 H         1 UNK         0.0800 
    141 H141        2.4608  -20.2166  -47.9140 H         1 UNK         0.0800 
    142 H142        1.4043  -20.4745  -49.2570 H         1 UNK         0.0800 
    143 H143        1.5316  -22.2977  -47.5252 H         1 UNK         0.0600 
    144 H144        0.6716  -20.3426  -45.6147 H         1 UNK         0.3000 
    145 H145       -0.0766  -22.8997  -43.1260 H         1 UNK         0.0600 
    146 H146        1.4294  -21.3876  -41.8764 H         1 UNK         0.0600 
    147 H147        2.3315  -22.3360  -43.0480 H         1 UNK         0.0600 
    148 H148        1.9805  -20.6470  -43.3761 H         1 UNK         0.0600 
    149 H149       -0.4786  -20.0976  -42.9984 H         1 UNK         0.3000 
    150 H150       -3.9075  -20.1037  -44.0516 H         1 UNK         0.0600 
    151 H151       -3.8921  -20.8529  -41.6643 H         1 UNK         0.0600 
    152 H152       -4.1638  -19.1214  -41.7949 H         1 UNK         0.0600 
    153 H153       -2.5825  -19.7305  -41.3126 H         1 UNK         0.0600 
    154 H154       -2.2655  -18.0055  -43.0790 H         1 UNK         0.3000 
    155 H155       -0.8803  -16.9895  -46.2367 H         1 UNK         0.0600 
    156 H156       -2.8862  -15.8189  -44.2502 H         1 UNK         0.0600 
    157 H157       -3.0674  -15.9054  -45.9969 H         1 UNK         0.0600 
    158 H158       -1.8296  -14.8757  -45.2915 H         1 UNK         0.0600 
    159 H159       -0.3539  -15.9606  -43.6994 H         1 UNK         0.3000 
    160 H160        2.3003  -18.1258  -42.6498 H         1 UNK         0.0600 
    161 H161        3.3301  -15.8611  -42.4665 H         1 UNK         0.0600 
    162 H162        2.1164  -15.2051  -43.5625 H         1 UNK         0.0600 
    163 H163        3.2653  -16.3991  -44.1381 H         1 UNK         0.0600 
    164 H164        0.9116  -15.9008  -41.4546 H         1 UNK         0.3000 
    165 H165       -1.4268  -17.8332  -39.5853 H         1 UNK         0.0600 
    166 H166       -0.3249  -16.6418  -37.7112 H         1 UNK         0.0600 
    167 H167        0.6994  -17.9511  -38.2780 H         1 UNK         0.0600 
    168 H168        1.0795  -16.2906  -38.7189 H         1 UNK         0.0600 
    169 H169       -0.8177  -15.0298  -39.6937 H         1 UNK         0.3000 
    170 H170       -3.0688  -14.2029  -42.3308 H         1 UNK         0.0600 
    171 H171       -4.4807  -14.3897  -40.2746 H         1 UNK         0.0600 
    172 H172       -3.1930  -13.6707  -39.3148 H         1 UNK         0.0600 
    173 H173       -3.9928  -12.7298  -40.5745 H         1 UNK         0.0600 
    174 H174       -1.4851  -12.5066  -40.7445 H         1 UNK         0.3000 
    175 H175        0.1938  -11.3251  -42.1598 H         1 UNK         0.0600 
    176 H176        2.0028  -13.4900  -40.9034 H         1 UNK         0.0600 
    177 H177        2.3190  -11.7576  -40.8603 H         1 UNK         0.0600 
    178 H178        0.9355  -12.4153  -40.0055 H         1 UNK         0.0600 
    179 H179        1.3457  -13.3280  -43.8494 H         1 UNK         0.3000 
    180 H180        2.9629  -11.0741  -45.8937 H         1 UNK         0.0600 
    181 H181        4.5885  -13.0978  -44.2618 H         1 UNK         0.0600 
    182 H182        4.9679  -11.3880  -44.4347 H         1 UNK         0.0600 
    183 H183        5.0340  -12.4423  -45.8377 H         1 UNK         0.0600 
    184 H184        2.9863  -13.9305  -45.9386 H         1 UNK         0.3000 
    185 H185        0.8850  -15.1971  -46.6240 H         1 UNK         0.0600 
    186 H186       -1.2283  -14.0631  -47.3975 H         1 UNK         0.0600 
    187 H187       -0.4149  -13.5694  -48.8740 H         1 UNK         0.0600 
    188 H188       -0.6690  -15.2786  -48.5318 H         1 UNK         0.0600 
    189 H189        1.8005  -14.3569  -49.2831 H         1 UNK         0.3000 
    190 H190       -1.6677  -20.8768  -46.8856 H         1 UNK         0.3000 
    191 H191       -3.0141  -21.9101  -49.1503 H         1 UNK         0.0600 
    192 H192       -3.9824  -21.2461  -46.3220 H         1 UNK         0.0600 
    193 H193       -5.0568  -21.6524  -47.6415 H         1 UNK         0.0600 
    194 H194       -4.0559  -20.2121  -47.7474 H         1 UNK         0.0600 
    195 H195       -2.3774  -23.3657  -45.9496 H         1 UNK         0.3000 
    196 H196       -3.7456  -25.8446  -46.4701 H         1 UNK         0.0600 
    197 H197       -2.5986  -26.5665  -44.3684 H         1 UNK         0.0600 
    198 H198       -3.3845  -25.0067  -44.1721 H         1 UNK         0.0600 
    199 H199       -1.6374  -25.0914  -44.3757 H         1 UNK         0.0600 
    200 H200       -0.2724  -24.8571  -46.5552 H         1 UNK         0.3000 
    201 H201        0.7810  -27.3911  -47.1729 H         1 UNK         0.0600 
    202 H202        2.1363  -25.5275  -46.2676 H         1 UNK         0.0600 
    203 H203        1.9297  -24.6157  -47.7631 H         1 UNK         0.0600 
    204 H204        2.8431  -26.1185  -47.7628 H         1 UNK         0.0600 
    205 H205       -0.2521  -24.7597  -49.3932 H         1 UNK         0.3000 
    206 H206        0.4775  -26.2126  -51.8044 H         1 UNK         0.0600 
    207 H207        0.4176  -23.7161  -51.6758 H         1 UNK         0.0600 
    208 H208       -0.6669  -24.3155  -52.9222 H         1 UNK         0.0600 
    209 H209       -1.3208  -23.7628  -51.3863 H         1 UNK         0.0600 
    210 H210       -2.1234  -26.4636  -49.6090 H         1 UNK         0.3000 
    211 H211       -4.1353  -27.3379  -49.5094 H         1 UNK         0.0600 
    212 H212       -3.4633  -28.9323  -52.0394 H         1 UNK         0.0600 
    213 H213       -4.7061  -29.3133  -50.8568 H         1 UNK         0.0600 
    214 H214       -3.0133  -29.3993  -50.3993 H         1 UNK         0.0600 
    215 H215       -3.7442  -24.8513  -50.8898 H         1 UNK         0.3000 
    216 H216       -5.7145  -24.6708  -53.0627 H         1 UNK         0.0600 
    217 H217       -4.9609  -22.2708  -53.0725 H         1 UNK         0.0600 
    218 H218       -3.6065  -23.3812  -53.2068 H         1 UNK         0.0600 
    219 H219       -3.9430  -22.5845  -51.6731 H         1 UNK         0.0600 
    220 H220       -5.5034  -24.0950  -49.6143 H         1 UNK         0.3000 
    221 H221       -6.8726  -23.4596  -48.0133 H         1 UNK         0.0600 
    222 H222       -9.2184  -23.8819  -49.9349 H         1 UNK         0.0600 
    223 H223       -8.4410  -25.1543  -48.9935 H         1 UNK         0.0600 
    224 H224       -9.2881  -23.8497  -48.1802 H         1 UNK         0.0600 
    225 H225       -5.9539  -21.4601  -50.1831 H         1 UNK         0.3000 
    226 H226       -6.8404  -19.0934  -48.8791 H         1 UNK         0.0600 
    227 H227       -7.6883  -19.5442  -51.8135 H         1 UNK         0.0600 
    228 H228       -8.7971  -19.3693  -50.4563 H         1 UNK         0.0600 
    229 H229       -7.8039  -18.0129  -50.9517 H         1 UNK         0.0600 
    230 H230       -5.6295  -17.2212  -49.8882 H         1 UNK         0.3000 
    231 H231       -2.9455  -18.0304  -50.7552 H         1 UNK         0.0600 
    232 H232       -3.2830  -16.2807  -48.9880 H         1 UNK         0.0600 
    233 H233       -4.1296  -15.2659  -50.1548 H         1 UNK         0.0600 
    234 H234       -2.4251  -15.6393  -50.3805 H         1 UNK         0.0600 
    235 H235       -5.8156  -17.4182  -52.3614 H         1 UNK         0.3000 
    236 H236       -4.9236  -15.7963  -54.5713 H         1 UNK         0.0600 
    237 H237       -7.2369  -16.1970  -55.3865 H         1 UNK         0.0600 
    238 H238       -7.4890  -17.4113  -54.1368 H         1 UNK         0.0600 
    239 H239       -7.2431  -15.7209  -53.6980 H         1 UNK         0.0600 
    240 H240       -3.0416  -17.6325  -54.6126 H         1 UNK         0.3000 
    241 H241       -3.5971  -19.8121  -56.4719 H         1 UNK         0.0600 
    242 H242       -2.6551  -16.6230  -58.7583 H         1 UNK         0.3800 
    243 H243       -3.1316  -16.4324  -57.0919 H         1 UNK         0.3800 
    244 H244       -1.0864  -20.1410  -56.4152 H         1 UNK         0.0800 
    245 H245       -0.9597  -18.7395  -55.3792 H         1 UNK         0.0800 
    246 H246       -0.1913  -21.6507  -52.9416 H         1 UNK         0.0800 
    247 H247        0.4800  -20.7964  -54.3046 H         1 UNK         0.0800 
@<TRIPOS>BOND
     1    1    2 1    
     2    1  127 1    
     3    1  128 1    
     4    1  129 1    
     5    2    3 2    
     6    2    4 am   BACKBONE|DICT|INTERRES
     7    4    5 1    
     8    4  130 1    
     9    5    6 1    
    10    5   65 1    
    11    5  131 1    
    12    6    7 1    
    13    6  132 1    
    14    6  133 1    
    15    7    8 1    
    16    8    9 1    
    17    8  134 1    
    18    8  135 1    
    19    9   10 ar   
    20    9   14 ar   
    21   10   11 ar   
    22   10  136 1    
    23   11   12 ar   
    24   11  126 1    
    25   12   13 ar   
    26   12  137 1    
    27   13   14 ar   
    28   13   15 1    
    29   14  138 1    
    30   15   16 1    
    31   15  139 1    
    32   15  140 1    
    33   16   17 1    
    34   17   18 1    
    35   17  141 1    
    36   17  142 1    
    37   18   19 1    
    38   18   67 1    
    39   18  143 1    
    40   19   20 am   BACKBONE|DICT|INTERRES
    41   19  144 1    
    42   20   21 2    
    43   20   22 1    
    44   22   23 1    
    45   22   24 1    
    46   22  145 1    
    47   23  146 1    
    48   23  147 1    
    49   23  148 1    
    50   24   25 am   BACKBONE|DICT|INTERRES
    51   24  149 1    
    52   25   26 2    
    53   25   27 1    
    54   27   28 1    
    55   27   29 1    
    56   27  150 1    
    57   28  151 1    
    58   28  152 1    
    59   28  153 1    
    60   29   30 am   BACKBONE|DICT|INTERRES
    61   29  154 1    
    62   30   31 2    
    63   30   32 1    
    64   32   33 1    
    65   32   34 1    
    66   32  155 1    
    67   33  156 1    
    68   33  157 1    
    69   33  158 1    
    70   34   35 am   BACKBONE|DICT|INTERRES
    71   34  159 1    
    72   35   36 2    
    73   35   37 1    
    74   37   38 1    
    75   37   39 1    
    76   37  160 1    
    77   38  161 1    
    78   38  162 1    
    79   38  163 1    
    80   39   40 am   BACKBONE|DICT|INTERRES
    81   39  164 1    
    82   40   41 2    
    83   40   42 1    
    84   42   43 1    
    85   42   44 1    
    86   42  165 1    
    87   43  166 1    
    88   43  167 1    
    89   43  168 1    
    90   44   45 am   BACKBONE|DICT|INTERRES
    91   44  169 1    
    92   45   46 2    
    93   45   47 1    
    94   47   48 1    
    95   47   49 1    
    96   47  170 1    
    97   48  171 1    
    98   48  172 1    
    99   48  173 1    
   100   49   50 am   BACKBONE|DICT|INTERRES
   101   49  174 1    
   102   50   51 2    
   103   50   52 1    
   104   52   53 1    
   105   52   54 1    
   106   52  175 1    
   107   53  176 1    
   108   53  177 1    
   109   53  178 1    
   110   54   55 am   BACKBONE|DICT|INTERRES
   111   54  179 1    
   112   55   56 2    
   113   55   57 1    
   114   57   58 1    
   115   57   59 1    
   116   57  180 1    
   117   58  181 1    
   118   58  182 1    
   119   58  183 1    
   120   59   60 am   BACKBONE|DICT|INTERRES
   121   59  184 1    
   122   60   61 2    
   123   60   62 1    
   124   62   63 1    
   125   62   64 1    
   126   62  185 1    
   127   63  186 1    
   128   63  187 1    
   129   63  188 1    
   130   64   65 am   BACKBONE|DICT|INTERRES
   131   64  189 1    
   132   65   66 2    
   133   67   68 2    
   134   67   69 am   BACKBONE|DICT|INTERRES
   135   69   70 1    
   136   69  190 1    
   137   70   71 1    
   138   70   72 1    
   139   70  191 1    
   140   71  192 1    
   141   71  193 1    
   142   71  194 1    
   143   72   73 2    
   144   72   74 am   BACKBONE|DICT|INTERRES
   145   74   75 1    
   146   74  195 1    
   147   75   76 1    
   148   75   77 1    
   149   75  196 1    
   150   76  197 1    
   151   76  198 1    
   152   76  199 1    
   153   77   78 2    
   154   77   79 am   BACKBONE|DICT|INTERRES
   155   79   80 1    
   156   79  200 1    
   157   80   81 1    
   158   80   82 1    
   159   80  201 1    
   160   81  202 1    
   161   81  203 1    
   162   81  204 1    
   163   82   83 2    
   164   82   84 am   BACKBONE|DICT|INTERRES
   165   84   85 1    
   166   84  205 1    
   167   85   86 1    
   168   85   87 1    
   169   85  206 1    
   170   86  207 1    
   171   86  208 1    
   172   86  209 1    
   173   87   88 2    
   174   87   89 am   BACKBONE|DICT|INTERRES
   175   89   90 1    
   176   89  210 1    
   177   90   91 1    
   178   90   92 1    
   179   90  211 1    
   180   91  212 1    
   181   91  213 1    
   182   91  214 1    
   183   92   93 2    
   184   92   94 am   BACKBONE|DICT|INTERRES
   185   94   95 1    
   186   94  215 1    
   187   95   96 1    
   188   95   97 1    
   189   95  216 1    
   190   96  217 1    
   191   96  218 1    
   192   96  219 1    
   193   97   98 2    
   194   97   99 am   BACKBONE|DICT|INTERRES
   195   99  100 1    
   196   99  220 1    
   197  100  101 1    
   198  100  102 1    
   199  100  221 1    
   200  101  222 1    
   201  101  223 1    
   202  101  224 1    
   203  102  103 2    
   204  102  104 am   BACKBONE|DICT|INTERRES
   205  104  105 1    
   206  104  225 1    
   207  105  106 1    
   208  105  107 1    
   209  105  226 1    
   210  106  227 1    
   211  106  228 1    
   212  106  229 1    
   213  107  108 2    
   214  107  109 am   BACKBONE|DICT|INTERRES
   215  109  110 1    
   216  109  230 1    
   217  110  111 1    
   218  110  112 1    
   219  110  231 1    
   220  111  232 1    
   221  111  233 1    
   222  111  234 1    
   223  112  113 2    
   224  112  114 am   BACKBONE|DICT|INTERRES
   225  114  115 1    
   226  114  235 1    
   227  115  116 1    
   228  115  117 1    
   229  115  236 1    
   230  116  237 1    
   231  116  238 1    
   232  116  239 1    
   233  117  118 2    
   234  117  119 am   BACKBONE|DICT|INTERRES
   235  119  120 1    
   236  119  240 1    
   237  120  121 1    
   238  120  124 1    
   239  120  241 1    
   240  121  122 am   BACKBONE|DICT|INTERRES
   241  121  123 2    
   242  122  242 1    
   243  122  243 1    
   244  124  125 1    
   245  124  244 1    
   246  124  245 1    
   247  125  126 1    
   248  126  246 1    
   249  126  247 1    
@<TRIPOS>SUBSTRUCTURE
     1 UNK         1 GROUP             0       ****    0 ROOT    
