@<TRIPOS>MOLECULE
3R540
247   249    1
SMALL
USER_CHARGES


@<TRIPOS>ATOM
      1 CA          5.6953  -10.0369  -49.2883 C.3       0 UNK        -0.1800 
      2 C           4.9415  -11.3159  -49.6250 C.2       0 UNK         0.5000 
      3 O           4.5244  -11.4930  -50.7693 O.2       0 UNK        -0.5000 
      4 N           4.7743  -12.2014  -48.6330 N.am      1 UNK        -0.5000 
      5 CA          4.0597  -13.4805  -48.7154 C.3       1 UNK         0.1400 
      6 C6          4.7394  -14.5019  -49.6685 C.3       23 UNK        -0.0398 
      7 S7          4.2705  -16.2241  -49.2750 S.3       23 UNK        -0.2404 
      8 C8          3.4583  -16.7304  -50.8233 C.3       23 UNK        -0.0205 
      9 C9          2.5581  -17.9375  -50.6145 C.ar      23 UNK        -0.0193 
     10 C10         1.1698  -17.7763  -50.5556 C.ar      23 UNK        -0.1150 
     11 C11         0.3312  -18.8835  -50.3908 C.ar      23 UNK        -0.0193 
     12 C12         0.8997  -20.1524  -50.2539 C.ar      23 UNK        -0.1150 
     13 C13         2.2844  -20.3290  -50.2990 C.ar      23 UNK        -0.0193 
     14 C14         3.1090  -19.2170  -50.4929 C.ar      23 UNK        -0.1150 
     15 C15         2.8812  -21.7241  -50.1628 C.3       23 UNK        -0.0205 
     16 S16         3.9069  -21.9151  -48.6699 S.3       23 UNK        -0.2404 
     17 C17         2.6930  -21.7606  -47.3172 C.3       23 UNK        -0.0398 
     18 CA          2.4880  -23.0912  -46.5483 C.3       11 UNK         0.1400 
     19 N           2.2369  -22.8535  -45.1244 N.am      11 UNK        -0.5000 
     20 C           2.2428  -23.8010  -44.1763 C.2       10 UNK         0.5000 
     21 O           2.5856  -24.9668  -44.3854 O.2       10 UNK        -0.5000 
     22 CA          1.7735  -23.3712  -42.7707 C.3       10 UNK         0.1400 
     23 CB          2.0643  -24.4217  -41.6782 C.3       10 UNK        -0.1800 
     24 N           2.2716  -22.0518  -42.3757 N.am      10 UNK        -0.5000 
     25 C           3.5438  -21.6733  -42.1822 C.2       9 UNK         0.5000 
     26 O           4.5086  -22.4305  -42.2958 O.2       9 UNK        -0.5000 
     27 CA          3.7937  -20.1969  -41.8019 C.3       9 UNK         0.1400 
     28 CB          4.5424  -19.4714  -42.9314 C.3       9 UNK        -0.1800 
     29 N           2.5700  -19.4516  -41.4948 N.am      9 UNK        -0.5000 
     30 C           1.8567  -19.5599  -40.3656 C.2       8 UNK         0.5000 
     31 O           2.1968  -20.2525  -39.4062 O.2       8 UNK        -0.5000 
     32 CA          0.5121  -18.8052  -40.3230 C.3       8 UNK         0.1400 
     33 CB          0.7073  -17.3604  -39.8397 C.3       8 UNK        -0.1800 
     34 N          -0.1807  -18.8027  -41.6154 N.am      8 UNK        -0.5000 
     35 C          -0.6547  -19.9005  -42.2234 C.2       7 UNK         0.5000 
     36 O          -0.6021  -21.0280  -41.7329 O.2       7 UNK        -0.5000 
     37 CA         -1.2264  -19.7261  -43.6403 C.3       7 UNK         0.1400 
     38 CB         -2.6773  -19.2248  -43.5948 C.3       7 UNK        -0.1800 
     39 N          -0.4093  -18.8312  -44.4607 N.am      7 UNK        -0.5000 
     40 C           0.8368  -19.1078  -44.8717 C.2       6 UNK         0.5000 
     41 O           1.4002  -20.1799  -44.6554 O.2       6 UNK        -0.5000 
     42 CA          1.5983  -17.9936  -45.6128 C.3       6 UNK         0.1400 
     43 CB          1.2536  -17.9884  -47.1057 C.3       6 UNK        -0.1800 
     44 N           1.3384  -16.6696  -45.0540 N.am      6 UNK        -0.5000 
     45 C           1.6741  -16.2838  -43.8166 C.2       5 UNK         0.5000 
     46 O           2.2897  -16.9931  -43.0226 O.2       5 UNK        -0.5000 
     47 CA          1.1869  -14.8939  -43.3761 C.3       5 UNK         0.1400 
     48 CB          2.1202  -13.7892  -43.8957 C.3       5 UNK        -0.1800 
     49 N          -0.1830  -14.6382  -43.8226 N.am      5 UNK        -0.5000 
     50 C          -1.2644  -15.2593  -43.3308 C.2       4 UNK         0.5000 
     51 O          -1.2210  -16.0837  -42.4173 O.2       4 UNK        -0.5000 
     52 CA         -2.6137  -14.9299  -43.9971 C.3       4 UNK         0.1400 
     53 CB         -3.2090  -13.6429  -43.4072 C.3       4 UNK        -0.1800 
     54 N          -2.5056  -14.7927  -45.4511 N.am      4 UNK        -0.5000 
     55 C          -2.2416  -15.8078  -46.2857 C.2       3 UNK         0.5000 
     56 O          -2.1025  -16.9730  -45.9192 O.2       3 UNK        -0.5000 
     57 CA         -2.0450  -15.4564  -47.7727 C.3       3 UNK         0.1400 
     58 CB         -3.3824  -15.4959  -48.5240 C.3       3 UNK        -0.1800 
     59 N          -1.3844  -14.1663  -47.9997 N.am      3 UNK        -0.5000 
     60 C          -0.1497  -13.8774  -47.5697 C.2       2 UNK         0.5000 
     61 O           0.5138  -14.6344  -46.8579 O.2       2 UNK        -0.5000 
     62 CA          0.4318  -12.5056  -47.9587 C.3       2 UNK         0.1400 
     63 CB          0.0454  -11.4490  -46.9124 C.3       2 UNK        -0.1800 
     64 N           1.8911  -12.5769  -48.0432 N.am      2 UNK        -0.5000 
     65 C           2.5521  -13.2675  -48.9824 C.2       1 UNK         0.5000 
     66 O           2.0171  -13.7074  -50.0020 O.2       1 UNK        -0.5000 
     67 C           1.3372  -23.9295  -47.1464 C.2       11 UNK         0.5000 
     68 O           0.1734  -23.6283  -46.8757 O.2       11 UNK        -0.5000 
     69 N           1.6696  -24.9646  -47.9307 N.am      12 UNK        -0.5000 
     70 CA          0.7366  -25.9993  -48.3980 C.3       12 UNK         0.1400 
     71 CB          1.5031  -27.0305  -49.2401 C.3       12 UNK        -0.1800 
     72 C          -0.4840  -25.4676  -49.1732 C.2       12 UNK         0.5000 
     73 O          -1.6064  -25.9077  -48.9250 O.2       12 UNK        -0.5000 
     74 N          -0.2479  -24.5006  -50.0680 N.am      13 UNK        -0.5000 
     75 CA         -1.2872  -23.8440  -50.8638 C.3       13 UNK         0.1400 
     76 CB         -0.6339  -23.1680  -52.0784 C.3       13 UNK        -0.1800 
     77 C          -2.1465  -22.8437  -50.0631 C.2       13 UNK         0.5000 
     78 O          -3.2399  -22.5006  -50.5102 O.2       13 UNK        -0.5000 
     79 N          -1.6646  -22.4040  -48.8908 N.am      14 UNK        -0.5000 
     80 CA         -2.3672  -21.4674  -48.0106 C.3       14 UNK         0.1400 
     81 CB         -1.3509  -20.6823  -47.1736 C.3       14 UNK        -0.1800 
     82 C          -3.4154  -22.1549  -47.1192 C.2       14 UNK         0.5000 
     83 O          -4.1765  -21.4610  -46.4464 O.2       14 UNK        -0.5000 
     84 N          -3.4977  -23.4932  -47.1698 N.am      15 UNK        -0.5000 
     85 CA         -4.5806  -24.2850  -46.5786 C.3       15 UNK         0.1400 
     86 CB         -4.2366  -25.7762  -46.7042 C.3       15 UNK        -0.1800 
     87 C          -5.9569  -23.9890  -47.2148 C.2       15 UNK         0.5000 
     88 O          -6.9827  -24.1859  -46.5635 O.2       15 UNK        -0.5000 
     89 N          -5.9496  -23.4850  -48.4576 N.am      16 UNK        -0.5000 
     90 CA         -7.1192  -22.9825  -49.1785 C.3       16 UNK         0.1400 
     91 CB         -6.8682  -23.1624  -50.6849 C.3       16 UNK        -0.1800 
     92 C          -7.4421  -21.5057  -48.8532 C.2       16 UNK         0.5000 
     93 O          -8.3882  -20.9677  -49.4285 O.2       16 UNK        -0.5000 
     94 N          -6.6591  -20.8778  -47.9606 N.am      17 UNK        -0.5000 
     95 CA         -6.6469  -19.4520  -47.6235 C.3       17 UNK         0.1400 
     96 CB         -7.9911  -19.0003  -47.0077 C.3       17 UNK        -0.1800 
     97 C          -6.1639  -18.6038  -48.8189 C.2       17 UNK         0.5000 
     98 O          -5.2233  -19.0119  -49.5030 O.2       17 UNK        -0.5000 
     99 N          -6.7749  -17.4321  -49.0323 N.am      18 UNK        -0.5000 
    100 CA        -6.5193  -16.5711  -50.1850 C.3       18 UNK         0.1400 
    101 CB        -7.0161  -15.1517  -49.8703 C.3       18 UNK        -0.1800 
    102 C         -7.2084  -17.1242  -51.4448 C.2       18 UNK         0.5000 
    103 O         -8.3199  -17.6512  -51.3500 O.2       18 UNK        -0.5000 
    104 N         -6.5443  -16.9561  -52.5967 N.am      19 UNK        -0.5000 
    105 CA        -6.9253  -17.4725  -53.9168 C.3       19 UNK         0.1400 
    106 CB        -8.2237  -16.7980  -54.4149 C.3       19 UNK        -0.1800 
    107 C         -6.9739  -19.0184  -53.9594 C.2       19 UNK         0.5000 
    108 O         -6.3267  -19.6756  -53.1395 O.2       19 UNK        -0.5000 
    109 N         -7.7093  -19.5731  -54.9351 N.am      20 UNK        -0.5000 
    110 CA        -7.8540  -21.0032  -55.2251 C.3       20 UNK         0.1400 
    111 CB        -8.6506  -21.7109  -54.1063 C.3       20 UNK        -0.1800 
    112 C         -6.4887  -21.6505  -55.5364 C.2       20 UNK         0.5000 
    113 O         -5.9611  -21.4340  -56.6284 O.2       20 UNK        -0.5000 
    114 N         -5.9341  -22.4083  -54.5808 N.am      21 UNK        -0.5000 
    115 CA        -4.5963  -22.9953  -54.6646 C.3       21 UNK         0.1400 
    116 CB        -4.4537  -24.0857  -53.5913 C.3       21 UNK        -0.1800 
    117 C         -3.4703  -21.9516  -54.5249 C.2       21 UNK         0.5000 
    118 O         -2.3942  -22.1538  -55.0885 O.2       21 UNK        -0.5000 
    119 N         -3.7264  -20.8685  -53.7795 N.am      22 UNK        -0.5000 
    120 CA        -2.8033  -19.7447  -53.5900 C.3       22 UNK         0.1400 
    121 C         -2.7388  -18.8590  -54.8655 C.2       22 UNK         0.5000 
    122 N         -1.5525  -18.6076  -55.4019 N.am      22 UNK        -0.7600 
    123 O         -3.7561  -18.3731  -55.3546 O.2       22 UNK        -0.5000 
    124 C124       -3.1929  -18.9251  -52.3336 C.3       23 UNK        -0.0398 
    125 S125       -1.8557  -17.8190  -51.7609 S.3       23 UNK        -0.2404 
    126 C126       -1.1828  -18.7207  -50.3269 C.3       23 UNK        -0.0205 
    127 H127        5.0613   -9.1690  -49.4704 H         1 UNK         0.0600 
    128 H128        6.5833   -9.9489  -49.9142 H         1 UNK         0.0600 
    129 H129        6.0114  -10.0136  -48.2451 H         1 UNK         0.0600 
    130 H130        5.1484  -11.9785  -47.7210 H         1 UNK         0.3000 
    131 H131        4.1243  -13.8959  -47.7079 H         1 UNK         0.0600 
    132 H132        5.8228  -14.4387  -49.5598 H         1 UNK         0.0800 
    133 H133        4.5348  -14.2682  -50.7145 H         1 UNK         0.0800 
    134 H134        4.2188  -16.9603  -51.5709 H         1 UNK         0.0800 
    135 H135        2.8743  -15.9016  -51.2252 H         1 UNK         0.0800 
    136 H136        0.7397  -16.7882  -50.6434 H         1 UNK         0.1150 
    137 H137        0.2604  -21.0066  -50.1041 H         1 UNK         0.1150 
    138 H138        4.1815  -19.3457  -50.5357 H         1 UNK         0.1150 
    139 H139        2.1016  -22.4855  -50.1557 H         1 UNK         0.0800 
    140 H140        3.4980  -21.9278  -51.0392 H         1 UNK         0.0800 
    141 H141        1.7499  -21.3488  -47.6788 H         1 UNK         0.0800 
    142 H142        3.0992  -21.0015  -46.6470 H         1 UNK         0.0800 
    143 H143        3.4089  -23.6759  -46.6036 H         1 UNK         0.0600 
    144 H144        1.9237  -21.9169  -44.8753 H         1 UNK         0.3000 
    145 H145        0.6896  -23.2707  -42.8408 H         1 UNK         0.0600 
    146 H146        1.7005  -24.0888  -40.7061 H         1 UNK         0.0600 
    147 H147        1.5677  -25.3662  -41.9033 H         1 UNK         0.0600 
    148 H148        3.1308  -24.6283  -41.5853 H         1 UNK         0.0600 
    149 H149        1.5577  -21.3422  -42.2740 H         1 UNK         0.3000 
    150 H150        4.4304  -20.1930  -40.9150 H         1 UNK         0.0600 
    151 H151        5.4948  -19.9571  -43.1469 H         1 UNK         0.0600 
    152 H152        4.7591  -18.4376  -42.6620 H         1 UNK         0.0600 
    153 H153        3.9632  -19.4630  -43.8547 H         1 UNK         0.0600 
    154 H154        2.2581  -18.7899  -42.1994 H         1 UNK         0.3000 
    155 H155       -0.1302  -19.3173  -39.6036 H         1 UNK         0.0600 
    156 H156        1.1825  -17.3384  -38.8583 H         1 UNK         0.0600 
    157 H157       -0.2478  -16.8423  -39.7508 H         1 UNK         0.0600 
    158 H158        1.3356  -16.7870  -40.5209 H         1 UNK         0.0600 
    159 H159       -0.3023  -17.9020  -42.0664 H         1 UNK         0.3000 
    160 H160       -1.2287  -20.7096  -44.1141 H         1 UNK         0.0600 
    161 H161       -2.7465  -18.2226  -43.1723 H         1 UNK         0.0600 
    162 H162       -3.2986  -19.8827  -42.9862 H         1 UNK         0.0600 
    163 H163       -3.1167  -19.1991  -44.5922 H         1 UNK         0.0600 
    164 H164       -0.8423  -17.9614  -44.7542 H         1 UNK         0.3000 
    165 H165        2.6670  -18.1926  -45.5134 H         1 UNK         0.0600 
    166 H166        1.7795  -17.1903  -47.6297 H         1 UNK         0.0600 
    167 H167        1.5451  -18.9274  -47.5746 H         1 UNK         0.0600 
    168 H168        0.1861  -17.8501  -47.2747 H         1 UNK         0.0600 
    169 H169        0.8810  -15.9965  -45.6652 H         1 UNK         0.3000 
    170 H170        1.2019  -14.8639  -42.2845 H         1 UNK         0.0600 
    171 H171        1.7938  -12.8058  -43.5574 H         1 UNK         0.0600 
    172 H172        3.1368  -13.9380  -43.5295 H         1 UNK         0.0600 
    173 H173        2.1661  -13.7714  -44.9845 H         1 UNK         0.0600 
    174 H174       -0.2933  -14.0289  -44.6192 H         1 UNK         0.3000 
    175 H175       -3.2999  -15.7520  -43.7824 H         1 UNK         0.0600 
    176 H176       -3.3163  -13.7236  -42.3247 H         1 UNK         0.0600 
    177 H177       -2.5799  -12.7755  -43.6112 H         1 UNK         0.0600 
    178 H178       -4.1995  -13.4433  -43.8166 H         1 UNK         0.0600 
    179 H179       -2.6027  -13.8644  -45.8348 H         1 UNK         0.3000 
    180 H180       -1.3977  -16.2239  -48.1991 H         1 UNK         0.0600 
    181 H181       -3.8772  -16.4574  -48.3809 H         1 UNK         0.0600 
    182 H182       -4.0642  -14.7189  -48.1769 H         1 UNK         0.0600 
    183 H183       -3.2362  -15.3650  -49.5963 H         1 UNK         0.0600 
    184 H184       -1.8818  -13.4948  -48.5666 H         1 UNK         0.3000 
    185 H185        0.0342  -12.2097  -48.9317 H         1 UNK         0.0600 
    186 H186       -1.0381  -11.3489  -46.8376 H         1 UNK         0.0600 
    187 H187        0.4209  -11.7057  -45.9207 H         1 UNK         0.0600 
    188 H188        0.4428  -10.4690  -47.1774 H         1 UNK         0.0600 
    189 H189        2.4019  -12.2424  -47.2403 H         1 UNK         0.3000 
    190 H190        2.6476  -25.1361  -48.1155 H         1 UNK         0.3000 
    191 H191        0.3541  -26.5081  -47.5107 H         1 UNK         0.0600 
    192 H192        2.2922  -27.5072  -48.6582 H         1 UNK         0.0600 
    193 H193        1.9621  -26.5740  -50.1179 H         1 UNK         0.0600 
    194 H194        0.8386  -27.8214  -49.5908 H         1 UNK         0.0600 
    195 H195        0.7048  -24.2058  -50.2176 H         1 UNK         0.3000 
    196 H196       -1.9708  -24.6085  -51.2397 H         1 UNK         0.0600 
    197 H197        0.1901  -22.5151  -51.7970 H         1 UNK         0.0600 
    198 H198       -1.3549  -22.5619  -52.6244 H         1 UNK         0.0600 
    199 H199       -0.2440  -23.9103  -52.7748 H         1 UNK         0.0600 
    200 H200       -0.8145  -22.8097  -48.5171 H         1 UNK         0.3000 
    201 H201       -2.9119  -20.7477  -48.6252 H         1 UNK         0.0600 
    202 H202       -1.8439  -19.8657  -46.6460 H         1 UNK         0.0600 
    203 H203       -0.8631  -21.3100  -46.4290 H         1 UNK         0.0600 
    204 H204       -0.5773  -20.2391  -47.7965 H         1 UNK         0.0600 
    205 H205       -2.8198  -23.9976  -47.7249 H         1 UNK         0.3000 
    206 H206       -4.6435  -24.0325  -45.5182 H         1 UNK         0.0600 
    207 H207       -3.2848  -26.0042  -46.2239 H         1 UNK         0.0600 
    208 H208       -4.9984  -26.3945  -46.2278 H         1 UNK         0.0600 
    209 H209       -4.1675  -26.0857  -47.7478 H         1 UNK         0.0600 
    210 H210       -5.0590  -23.3533  -48.9178 H         1 UNK         0.3000 
    211 H211       -7.9921  -23.5786  -48.9050 H         1 UNK         0.0600 
    212 H212       -7.7686  -22.9352  -51.2552 H         1 UNK         0.0600 
    213 H213       -6.5866  -24.1883  -50.9231 H         1 UNK         0.0600 
    214 H214       -6.0757  -22.5017  -51.0399 H         1 UNK         0.0600 
    215 H215       -5.8964  -21.4012  -47.5477 H         1 UNK         0.3000 
    216 H216       -5.8843  -19.3361  -46.8523 H         1 UNK         0.0600 
    217 H217       -7.9109  -18.0022  -46.5757 H         1 UNK         0.0600 
    218 H218       -8.2953  -19.6698  -46.2031 H         1 UNK         0.0600 
    219 H219       -8.7960  -18.9797  -47.7431 H         1 UNK         0.0600 
    220 H220       -7.5665  -17.1873  -48.4564 H         1 UNK         0.3000 
    221 H221       -5.4426  -16.5298  -50.3621 H         1 UNK         0.0600 
    222 H222       -8.0917  -15.1323  -49.6900 H         1 UNK         0.0600 
    223 H223       -6.5205  -14.7457  -48.9884 H         1 UNK         0.0600 
    224 H224       -6.8102  -14.4738  -50.6996 H         1 UNK         0.0600 
    225 H225       -5.6404  -16.5076  -52.5621 H         1 UNK         0.3000 
    226 H226       -6.1223  -17.1782  -54.5935 H         1 UNK         0.0600 
    227 H227       -8.3874  -16.9840  -55.4766 H         1 UNK         0.0600 
    228 H228       -9.1016  -17.1576  -53.8771 H         1 UNK         0.0600 
    229 H229       -8.1771  -15.7163  -54.2882 H         1 UNK         0.0600 
    230 H230       -8.1780  -18.9543  -55.5811 H         1 UNK         0.3000 
    231 H231       -8.4424  -21.0790  -56.1408 H         1 UNK         0.0600 
    232 H232       -9.6593  -21.3039  -54.0351 H         1 UNK         0.0600 
    233 H233       -8.1855  -21.5944  -53.1281 H         1 UNK         0.0600 
    234 H234       -8.7491  -22.7787  -54.3059 H         1 UNK         0.0600 
    235 H235       -6.4211  -22.5052  -53.7022 H         1 UNK         0.3000 
    236 H236       -4.4898  -23.4682  -55.6433 H         1 UNK         0.0600 
    237 H237       -5.2100  -24.8615  -53.7111 H         1 UNK         0.0600 
    238 H238       -3.4780  -24.5693  -53.6543 H         1 UNK         0.0600 
    239 H239       -4.5485  -23.6753  -52.5862 H         1 UNK         0.0600 
    240 H240       -4.6659  -20.7280  -53.4209 H         1 UNK         0.3000 
    241 H241       -1.8140  -20.1703  -53.4093 H         1 UNK         0.0600 
    242 H242       -0.7057  -18.9890  -55.0102 H         1 UNK         0.3800 
    243 H243       -1.4998  -18.0243  -56.2223 H         1 UNK         0.3800 
    244 H244       -4.0780  -18.3198  -52.5265 H         1 UNK         0.0800 
    245 H245       -3.4793  -19.5959  -51.5225 H         1 UNK         0.0800 
    246 H246       -1.6512  -19.7015  -50.2654 H         1 UNK         0.0800 
    247 H247       -1.4535  -18.1970  -49.4110 H         1 UNK         0.0800 
@<TRIPOS>BOND
     1    1    2 1    
     2    1  127 1    
     3    1  128 1    
     4    1  129 1    
     5    2    3 2    
     6    2    4 am   BACKBONE|DICT|INTERRES
     7    4    5 1    
     8    4  130 1    
     9    5    6 1    
    10    5   65 1    
    11    5  131 1    
    12    6    7 1    
    13    6  132 1    
    14    6  133 1    
    15    7    8 1    
    16    8    9 1    
    17    8  134 1    
    18    8  135 1    
    19    9   10 ar   
    20    9   14 ar   
    21   10   11 ar   
    22   10  136 1    
    23   11   12 ar   
    24   11  126 1    
    25   12   13 ar   
    26   12  137 1    
    27   13   14 ar   
    28   13   15 1    
    29   14  138 1    
    30   15   16 1    
    31   15  139 1    
    32   15  140 1    
    33   16   17 1    
    34   17   18 1    
    35   17  141 1    
    36   17  142 1    
    37   18   19 1    
    38   18   67 1    
    39   18  143 1    
    40   19   20 am   BACKBONE|DICT|INTERRES
    41   19  144 1    
    42   20   21 2    
    43   20   22 1    
    44   22   23 1    
    45   22   24 1    
    46   22  145 1    
    47   23  146 1    
    48   23  147 1    
    49   23  148 1    
    50   24   25 am   BACKBONE|DICT|INTERRES
    51   24  149 1    
    52   25   26 2    
    53   25   27 1    
    54   27   28 1    
    55   27   29 1    
    56   27  150 1    
    57   28  151 1    
    58   28  152 1    
    59   28  153 1    
    60   29   30 am   BACKBONE|DICT|INTERRES
    61   29  154 1    
    62   30   31 2    
    63   30   32 1    
    64   32   33 1    
    65   32   34 1    
    66   32  155 1    
    67   33  156 1    
    68   33  157 1    
    69   33  158 1    
    70   34   35 am   BACKBONE|DICT|INTERRES
    71   34  159 1    
    72   35   36 2    
    73   35   37 1    
    74   37   38 1    
    75   37   39 1    
    76   37  160 1    
    77   38  161 1    
    78   38  162 1    
    79   38  163 1    
    80   39   40 am   BACKBONE|DICT|INTERRES
    81   39  164 1    
    82   40   41 2    
    83   40   42 1    
    84   42   43 1    
    85   42   44 1    
    86   42  165 1    
    87   43  166 1    
    88   43  167 1    
    89   43  168 1    
    90   44   45 am   BACKBONE|DICT|INTERRES
    91   44  169 1    
    92   45   46 2    
    93   45   47 1    
    94   47   48 1    
    95   47   49 1    
    96   47  170 1    
    97   48  171 1    
    98   48  172 1    
    99   48  173 1    
   100   49   50 am   BACKBONE|DICT|INTERRES
   101   49  174 1    
   102   50   51 2    
   103   50   52 1    
   104   52   53 1    
   105   52   54 1    
   106   52  175 1    
   107   53  176 1    
   108   53  177 1    
   109   53  178 1    
   110   54   55 am   BACKBONE|DICT|INTERRES
   111   54  179 1    
   112   55   56 2    
   113   55   57 1    
   114   57   58 1    
   115   57   59 1    
   116   57  180 1    
   117   58  181 1    
   118   58  182 1    
   119   58  183 1    
   120   59   60 am   BACKBONE|DICT|INTERRES
   121   59  184 1    
   122   60   61 2    
   123   60   62 1    
   124   62   63 1    
   125   62   64 1    
   126   62  185 1    
   127   63  186 1    
   128   63  187 1    
   129   63  188 1    
   130   64   65 am   BACKBONE|DICT|INTERRES
   131   64  189 1    
   132   65   66 2    
   133   67   68 2    
   134   67   69 am   BACKBONE|DICT|INTERRES
   135   69   70 1    
   136   69  190 1    
   137   70   71 1    
   138   70   72 1    
   139   70  191 1    
   140   71  192 1    
   141   71  193 1    
   142   71  194 1    
   143   72   73 2    
   144   72   74 am   BACKBONE|DICT|INTERRES
   145   74   75 1    
   146   74  195 1    
   147   75   76 1    
   148   75   77 1    
   149   75  196 1    
   150   76  197 1    
   151   76  198 1    
   152   76  199 1    
   153   77   78 2    
   154   77   79 am   BACKBONE|DICT|INTERRES
   155   79   80 1    
   156   79  200 1    
   157   80   81 1    
   158   80   82 1    
   159   80  201 1    
   160   81  202 1    
   161   81  203 1    
   162   81  204 1    
   163   82   83 2    
   164   82   84 am   BACKBONE|DICT|INTERRES
   165   84   85 1    
   166   84  205 1    
   167   85   86 1    
   168   85   87 1    
   169   85  206 1    
   170   86  207 1    
   171   86  208 1    
   172   86  209 1    
   173   87   88 2    
   174   87   89 am   BACKBONE|DICT|INTERRES
   175   89   90 1    
   176   89  210 1    
   177   90   91 1    
   178   90   92 1    
   179   90  211 1    
   180   91  212 1    
   181   91  213 1    
   182   91  214 1    
   183   92   93 2    
   184   92   94 am   BACKBONE|DICT|INTERRES
   185   94   95 1    
   186   94  215 1    
   187   95   96 1    
   188   95   97 1    
   189   95  216 1    
   190   96  217 1    
   191   96  218 1    
   192   96  219 1    
   193   97   98 2    
   194   97   99 am   BACKBONE|DICT|INTERRES
   195   99  100 1    
   196   99  220 1    
   197  100  101 1    
   198  100  102 1    
   199  100  221 1    
   200  101  222 1    
   201  101  223 1    
   202  101  224 1    
   203  102  103 2    
   204  102  104 am   BACKBONE|DICT|INTERRES
   205  104  105 1    
   206  104  225 1    
   207  105  106 1    
   208  105  107 1    
   209  105  226 1    
   210  106  227 1    
   211  106  228 1    
   212  106  229 1    
   213  107  108 2    
   214  107  109 am   BACKBONE|DICT|INTERRES
   215  109  110 1    
   216  109  230 1    
   217  110  111 1    
   218  110  112 1    
   219  110  231 1    
   220  111  232 1    
   221  111  233 1    
   222  111  234 1    
   223  112  113 2    
   224  112  114 am   BACKBONE|DICT|INTERRES
   225  114  115 1    
   226  114  235 1    
   227  115  116 1    
   228  115  117 1    
   229  115  236 1    
   230  116  237 1    
   231  116  238 1    
   232  116  239 1    
   233  117  118 2    
   234  117  119 am   BACKBONE|DICT|INTERRES
   235  119  120 1    
   236  119  240 1    
   237  120  121 1    
   238  120  124 1    
   239  120  241 1    
   240  121  122 am   BACKBONE|DICT|INTERRES
   241  121  123 2    
   242  122  242 1    
   243  122  243 1    
   244  124  125 1    
   245  124  244 1    
   246  124  245 1    
   247  125  126 1    
   248  126  246 1    
   249  126  247 1    
@<TRIPOS>SUBSTRUCTURE
     1 UNK         1 GROUP             0       ****    0 ROOT    
