@<TRIPOS>MOLECULE
3R540
247   249    1
SMALL
USER_CHARGES


@<TRIPOS>ATOM
      1 CA          4.2739  -14.1432  -49.2013 C.3       0 UNK        -0.1800 
      2 C           2.8450  -14.5130  -48.8350 C.2       0 UNK         0.5000 
      3 O           2.6055  -15.0576  -47.7581 O.2       0 UNK        -0.5000 
      4 N           1.8895  -14.2115  -49.7241 N.am      1 UNK        -0.5000 
      5 CA          0.4609  -14.5458  -49.6013 C.3       1 UNK         0.1400 
      6 C6         -0.3002  -14.2534  -50.9275 C.3       23 UNK        -0.0398 
      7 S7         -0.5287  -15.7420  -51.9638 S.3       23 UNK        -0.2404 
      8 C8          0.8886  -15.7026  -53.1044 C.3       23 UNK        -0.0205 
      9 C9          1.7830  -16.9168  -52.9028 C.ar      23 UNK        -0.0193 
     10 C10         1.5162  -18.1175  -53.5707 C.ar      23 UNK        -0.1150 
     11 C11         2.3398  -19.2331  -53.3815 C.ar      23 UNK        -0.0193 
     12 C12         3.4303  -19.1423  -52.5125 C.ar      23 UNK        -0.1150 
     13 C13         3.6914  -17.9567  -51.8233 C.ar      23 UNK        -0.0193 
     14 C14         2.8771  -16.8422  -52.0389 C.ar      23 UNK        -0.1150 
     15 C15         4.8302  -17.8909  -50.8177 C.3       23 UNK        -0.0205 
     16 S16         4.4723  -18.8651  -49.3177 S.3       23 UNK        -0.2404 
     17 C17         2.8682  -18.1768  -48.7793 C.3       23 UNK        -0.0398 
     18 CA          1.7083  -19.1924  -48.9078 C.3       11 UNK         0.1400 
     19 N           1.9330  -20.3662  -48.0611 N.am      11 UNK        -0.5000 
     20 C           1.1473  -21.4490  -47.9943 C.2       10 UNK         0.5000 
     21 O           0.1670  -21.6285  -48.7135 O.2       10 UNK        -0.5000 
     22 CA          1.4862  -22.4738  -46.8938 C.3       10 UNK         0.1400 
     23 CB          2.3866  -23.5840  -47.4550 C.3       10 UNK        -0.1800 
     24 N           2.1316  -21.8632  -45.7258 N.am      10 UNK        -0.5000 
     25 C           1.5502  -20.9741  -44.9077 C.2       9 UNK         0.5000 
     26 O           0.3811  -20.5993  -45.0199 O.2       9 UNK        -0.5000 
     27 CA          2.4617  -20.3260  -43.8592 C.3       9 UNK         0.1400 
     28 CB          2.7598  -18.8680  -44.2481 C.3       9 UNK        -0.1800 
     29 N           1.8353  -20.3484  -42.5395 N.am      9 UNK        -0.5000 
     30 C           2.3811  -20.9136  -41.4540 C.2       8 UNK         0.5000 
     31 O           3.4436  -21.5372  -41.4678 O.2       8 UNK        -0.5000 
     32 CA          1.6342  -20.7545  -40.1205 C.3       8 UNK         0.1400 
     33 CB          1.8906  -19.3620  -39.5221 C.3       8 UNK        -0.1800 
     34 N           0.1947  -20.9501  -40.2709 N.am      8 UNK        -0.5000 
     35 C          -0.4636  -22.0691  -39.9371 C.2       7 UNK         0.5000 
     36 O           0.0879  -23.0819  -39.5045 O.2       7 UNK        -0.5000 
     37 CA         -2.0003  -22.0589  -40.0786 C.3       7 UNK         0.1400 
     38 CB         -2.6609  -21.8533  -38.7063 C.3       7 UNK        -0.1800 
     39 N          -2.4855  -21.0231  -40.9894 N.am      7 UNK        -0.5000 
     40 C          -2.4045  -21.0905  -42.3242 C.2       6 UNK         0.5000 
     41 O          -2.0060  -22.0843  -42.9296 O.2       6 UNK        -0.5000 
     42 CA         -2.8162  -19.8287  -43.1096 C.3       6 UNK         0.1400 
     43 CB         -4.2576  -19.9603  -43.6244 C.3       6 UNK        -0.1800 
     44 N          -2.6948  -18.5772  -42.3491 N.am      6 UNK        -0.5000 
     45 C          -1.5501  -18.0858  -41.8569 C.2       5 UNK         0.5000 
     46 O          -0.4610  -18.6525  -41.9774 O.2       5 UNK        -0.5000 
     47 CA         -1.6558  -16.7926  -41.0281 C.3       5 UNK         0.1400 
     48 CB         -2.0623  -17.1287  -39.5844 C.3       5 UNK        -0.1800 
     49 N          -0.3809  -16.0772  -40.9969 N.am      5 UNK        -0.5000 
     50 C           0.1109  -15.3608  -42.0140 C.2       4 UNK         0.5000 
     51 O          -0.5256  -15.1003  -43.0382 O.2       4 UNK        -0.5000 
     52 CA          1.5550  -14.8550  -41.8596 C.3       4 UNK         0.1400 
     53 CB          2.5222  -15.9855  -41.4488 C.3       4 UNK        -0.1800 
     54 N           1.9813  -14.2624  -43.1236 N.am      4 UNK        -0.5000 
     55 C           2.9970  -13.4092  -43.2887 C.2       3 UNK         0.5000 
     56 O           3.7138  -13.0150  -42.3675 O.2       3 UNK        -0.5000 
     57 CA          3.2715  -12.9129  -44.7217 C.3       3 UNK         0.1400 
     58 CB          4.4072  -13.7318  -45.3540 C.3       3 UNK        -0.1800 
     59 N           2.0963  -12.9487  -45.6007 N.am      3 UNK        -0.5000 
     60 C           1.0658  -12.0919  -45.5091 C.2       2 UNK         0.5000 
     61 O           1.0062  -11.2059  -44.6551 O.2       2 UNK        -0.5000 
     62 CA         -0.0733  -12.2264  -46.5408 C.3       2 UNK         0.1400 
     63 CB         -0.7027  -10.8691  -46.9055 C.3       2 UNK        -0.1800 
     64 N           0.3867  -12.8819  -47.7655 N.am      2 UNK        -0.5000 
     65 C          -0.2382  -13.8950  -48.3791 C.2       1 UNK         0.5000 
     66 O          -1.3245  -14.3363  -48.0073 O.2       1 UNK        -0.5000 
     67 C           0.3637  -18.5111  -48.5763 C.2       11 UNK         0.5000 
     68 O          -0.4125  -18.2026  -49.4780 O.2       11 UNK        -0.5000 
     69 N           0.0908  -18.3308  -47.2774 N.am      12 UNK        -0.5000 
     70 CA         -1.1605  -17.7660  -46.7784 C.3       12 UNK         0.1400 
     71 CB         -0.9533  -17.2875  -45.3398 C.3       12 UNK        -0.1800 
     72 C          -2.3345  -18.7541  -46.8839 C.2       12 UNK         0.5000 
     73 O          -3.4643  -18.3269  -47.1183 O.2       12 UNK        -0.5000 
     74 N          -2.0522  -20.0597  -46.7666 N.am      13 UNK        -0.5000 
     75 CA         -3.0228  -21.1279  -47.0155 C.3       13 UNK         0.1400 
     76 CB         -2.4466  -22.4799  -46.5727 C.3       13 UNK        -0.1800 
     77 C          -3.4787  -21.1844  -48.4850 C.2       13 UNK         0.5000 
     78 O          -4.6325  -21.5203  -48.7391 O.2       13 UNK        -0.5000 
     79 N          -2.5831  -20.8334  -49.4186 N.am      14 UNK        -0.5000 
     80 CA         -2.8910  -20.7017  -50.8413 C.3       14 UNK         0.1400 
     81 CB         -1.5919  -20.7261  -51.6574 C.3       14 UNK        -0.1800 
     82 C          -3.7092  -19.4367  -51.1527 C.2       14 UNK         0.5000 
     83 O          -4.5204  -19.4535  -52.0768 O.2       14 UNK        -0.5000 
     84 N          -3.5029  -18.3643  -50.3755 N.am      15 UNK        -0.5000 
     85 CA         -4.2943  -17.1370  -50.4565 C.3       15 UNK         0.1400 
     86 CB         -3.6110  -16.0196  -49.6560 C.3       15 UNK        -0.1800 
     87 C          -5.7340  -17.3596  -49.9617 C.2       15 UNK         0.5000 
     88 O          -6.6788  -16.9279  -50.6248 O.2       15 UNK        -0.5000 
     89 N          -5.8686  -18.0507  -48.8198 N.am      16 UNK        -0.5000 
     90 CA         -7.1303  -18.4240  -48.1818 C.3       16 UNK         0.1400 
     91 CB         -6.8324  -19.1873  -46.8811 C.3       16 UNK        -0.1800 
     92 C          -8.0340  -19.2452  -49.1217 C.2       16 UNK         0.5000 
     93 O          -7.7030  -20.3834  -49.4574 O.2       16 UNK        -0.5000 
     94 N          -9.1341  -18.6201  -49.5660 N.am      17 UNK        -0.5000 
     95 CA        -10.1408  -19.1413  -50.5010 C.3       17 UNK         0.1400 
     96 CB        -10.9165  -20.3101  -49.8573 C.3       17 UNK        -0.1800 
     97 C          -9.5919  -19.5055  -51.9008 C.2       17 UNK         0.5000 
     98 O         -10.2584  -20.2361  -52.6360 O.2       17 UNK        -0.5000 
     99 N          -8.3985  -18.9941  -52.2467 N.am      18 UNK        -0.5000 
    100 CA        -7.6364  -19.2701  -53.4710 C.3       18 UNK         0.1400 
    101 CB        -8.3279  -18.6280  -54.6921 C.3       18 UNK        -0.1800 
    102 C         -7.3243  -20.7731  -53.6736 C.2       18 UNK         0.5000 
    103 O         -7.3590  -21.2627  -54.8051 O.2       18 UNK        -0.5000 
    104 N         -7.0617  -21.4881  -52.5699 N.am      19 UNK        -0.5000 
    105 CA        -6.7767  -22.9228  -52.5450 C.3       19 UNK         0.1400 
    106 CB        -6.7716  -23.3973  -51.0846 C.3       19 UNK        -0.1800 
    107 C         -5.4460  -23.2908  -53.2306 C.2       19 UNK         0.5000 
    108 O         -4.5157  -22.4852  -53.2729 O.2       19 UNK        -0.5000 
    109 N         -5.3508  -24.5371  -53.7066 N.am      20 UNK        -0.5000 
    110 CA        -4.1784  -25.0935  -54.3891 C.3       20 UNK         0.1400 
    111 CB        -4.6547  -26.1732  -55.3779 C.3       20 UNK        -0.1800 
    112 C         -3.1054  -25.6253  -53.4109 C.2       20 UNK         0.5000 
    113 O         -2.4689  -26.6425  -53.6933 O.2       20 UNK        -0.5000 
    114 N         -2.9077  -24.9376  -52.2762 N.am      21 UNK        -0.5000 
    115 CA        -1.9872  -25.3287  -51.1999 C.3       21 UNK         0.1400 
    116 CB        -2.2011  -24.4139  -49.9854 C.3       21 UNK        -0.1800 
    117 C         -0.5011  -25.3436  -51.6151 C.2       21 UNK         0.5000 
    118 O          0.2868  -26.0718  -51.0102 O.2       21 UNK        -0.5000 
    119 N         -0.1553  -24.5726  -52.6539 N.am      22 UNK        -0.5000 
    120 CA         1.1581  -24.5961  -53.3182 C.3       22 UNK         0.1400 
    121 C          1.3793  -25.8255  -54.2522 C.2       22 UNK         0.5000 
    122 N          0.3870  -26.6695  -54.5143 N.am      22 UNK        -0.7600 
    123 O          2.4856  -26.0255  -54.7464 O.2       22 UNK        -0.5000 
    124 C124        1.4427  -23.2718  -54.0734 C.3       23 UNK        -0.0398 
    125 S125        1.5087  -21.8338  -52.9562 S.3       23 UNK        -0.2404 
    126 C126        2.0642  -20.5404  -54.1083 C.3       23 UNK        -0.0205 
    127 H127        4.4005  -14.0535  -50.2803 H         1 UNK         0.0600 
    128 H128        4.9643  -14.9066  -48.8423 H         1 UNK         0.0600 
    129 H129        4.5459  -13.1925  -48.7440 H         1 UNK         0.0600 
    130 H130        2.1508  -13.7314  -50.5732 H         1 UNK         0.3000 
    131 H131        0.4124  -15.6175  -49.4035 H         1 UNK         0.0600 
    132 H132       -1.3078  -13.8793  -50.7353 H         1 UNK         0.0800 
    133 H133        0.1811  -13.4622  -51.5038 H         1 UNK         0.0800 
    134 H134        0.5153  -15.6858  -54.1293 H         1 UNK         0.0800 
    135 H135        1.4632  -14.7846  -52.9769 H         1 UNK         0.0800 
    136 H136        0.6652  -18.1822  -54.2341 H         1 UNK         0.1150 
    137 H137        4.0583  -20.0068  -52.3481 H         1 UNK         0.1150 
    138 H138        3.0811  -15.9206  -51.5163 H         1 UNK         0.1150 
    139 H139        5.7430  -18.2704  -51.2791 H         1 UNK         0.0800 
    140 H140        5.0374  -16.8587  -50.5327 H         1 UNK         0.0800 
    141 H141        2.6463  -17.2839  -49.3599 H         1 UNK         0.0800 
    142 H142        2.9757  -17.8388  -47.7471 H         1 UNK         0.0800 
    143 H143        1.6554  -19.5331  -49.9447 H         1 UNK         0.0600 
    144 H144        2.7415  -20.3291  -47.4593 H         1 UNK         0.3000 
    145 H145        0.5528  -22.9286  -46.5590 H         1 UNK         0.0600 
    146 H146        2.5763  -24.3544  -46.7074 H         1 UNK         0.0600 
    147 H147        1.9160  -24.0714  -48.3103 H         1 UNK         0.0600 
    148 H148        3.3488  -23.1933  -47.7886 H         1 UNK         0.0600 
    149 H149        3.0966  -22.1159  -45.5672 H         1 UNK         0.3000 
    150 H150        3.4095  -20.8680  -43.8492 H         1 UNK         0.0600 
    151 H151        3.1732  -18.8027  -45.2552 H         1 UNK         0.0600 
    152 H152        3.4924  -18.4280  -43.5718 H         1 UNK         0.0600 
    153 H153        1.8621  -18.2491  -44.2171 H         1 UNK         0.0600 
    154 H154        0.9476  -19.8589  -42.4589 H         1 UNK         0.3000 
    155 H155        2.0425  -21.4897  -39.4236 H         1 UNK         0.0600 
    156 H156        1.4933  -18.5712  -40.1574 H         1 UNK         0.0600 
    157 H157        1.4277  -19.2650  -38.5400 H         1 UNK         0.0600 
    158 H158        2.9588  -19.1790  -39.3987 H         1 UNK         0.0600 
    159 H159       -0.3152  -20.1832  -40.6928 H         1 UNK         0.3000 
    160 H160       -2.3044  -23.0355  -40.4615 H         1 UNK         0.0600 
    161 H161       -2.3968  -20.8878  -38.2728 H         1 UNK         0.0600 
    162 H162       -2.3484  -22.6256  -38.0022 H         1 UNK         0.0600 
    163 H163       -3.7474  -21.9036  -38.7797 H         1 UNK         0.0600 
    164 H164       -2.8457  -20.1790  -40.5703 H         1 UNK         0.3000 
    165 H165       -2.1478  -19.7666  -43.9688 H         1 UNK         0.0600 
    166 H166       -4.4941  -19.1696  -44.3368 H         1 UNK         0.0600 
    167 H167       -4.4091  -20.9128  -44.1329 H         1 UNK         0.0600 
    168 H168       -4.9815  -19.9103  -42.8104 H         1 UNK         0.0600 
    169 H169       -3.5520  -18.0661  -42.1942 H         1 UNK         0.3000 
    170 H170       -2.4170  -16.1476  -41.4722 H         1 UNK         0.0600 
    171 H171       -1.3378  -17.7880  -39.1038 H         1 UNK         0.0600 
    172 H172       -2.1462  -16.2259  -38.9789 H         1 UNK         0.0600 
    173 H173       -3.0316  -17.6277  -39.5533 H         1 UNK         0.0600 
    174 H174        0.2136  -16.2648  -40.2039 H         1 UNK         0.3000 
    175 H175        1.5541  -14.0794  -41.0913 H         1 UNK         0.0600 
    176 H176        3.5622  -15.6612  -41.4786 H         1 UNK         0.0600 
    177 H177        2.4244  -16.8516  -42.1030 H         1 UNK         0.0600 
    178 H178        2.3281  -16.3181  -40.4294 H         1 UNK         0.0600 
    179 H179        1.3859  -14.4871  -43.9104 H         1 UNK         0.3000 
    180 H180        3.6093  -11.8770  -44.6465 H         1 UNK         0.0600 
    181 H181        4.1244  -14.7768  -45.4873 H         1 UNK         0.0600 
    182 H182        5.3004  -13.7118  -44.7282 H         1 UNK         0.0600 
    183 H183        4.6878  -13.3302  -46.3266 H         1 UNK         0.0600 
    184 H184        2.0823  -13.6773  -46.3071 H         1 UNK         0.3000 
    185 H185       -0.8378  -12.8344  -46.0528 H         1 UNK         0.0600 
    186 H186       -1.1150  -10.3742  -46.0255 H         1 UNK         0.0600 
    187 H187        0.0296  -10.1954  -47.3518 H         1 UNK         0.0600 
    188 H188       -1.5201  -10.9938  -47.6159 H         1 UNK         0.0600 
    189 H189        1.2779  -12.5755  -48.1293 H         1 UNK         0.3000 
    190 H190        0.7414  -18.6668  -46.5833 H         1 UNK         0.3000 
    191 H191       -1.4155  -16.8972  -47.3873 H         1 UNK         0.0600 
    192 H192       -0.2090  -16.4923  -45.3026 H         1 UNK         0.0600 
    193 H193       -1.8774  -16.8897  -44.9185 H         1 UNK         0.0600 
    194 H194       -0.6108  -18.0933  -44.6925 H         1 UNK         0.0600 
    195 H195       -1.1128  -20.3367  -46.5069 H         1 UNK         0.3000 
    196 H196       -3.9046  -20.9197  -46.4084 H         1 UNK         0.0600 
    197 H197       -3.2261  -23.2424  -46.5566 H         1 UNK         0.0600 
    198 H198       -2.0206  -22.4258  -45.5715 H         1 UNK         0.0600 
    199 H199       -1.6709  -22.8303  -47.2517 H         1 UNK         0.0600 
    200 H200       -1.6244  -20.6597  -49.1381 H         1 UNK         0.3000 
    201 H201       -3.4895  -21.5656  -51.1309 H         1 UNK         0.0600 
    202 H202       -1.0087  -21.6201  -51.4416 H         1 UNK         0.0600 
    203 H203       -1.8055  -20.7269  -52.7269 H         1 UNK         0.0600 
    204 H204       -0.9621  -19.8608  -51.4505 H         1 UNK         0.0600 
    205 H205       -2.7837  -18.4082  -49.6661 H         1 UNK         0.3000 
    206 H206       -4.3325  -16.8286  -51.5034 H         1 UNK         0.0600 
    207 H207       -2.5558  -15.9417  -49.9089 H         1 UNK         0.0600 
    208 H208       -4.0715  -15.0540  -49.8667 H         1 UNK         0.0600 
    209 H209       -3.6762  -16.1806  -48.5804 H         1 UNK         0.0600 
    210 H210       -5.0233  -18.3399  -48.3370 H         1 UNK         0.3000 
    211 H211       -7.6461  -17.4997  -47.9145 H         1 UNK         0.0600 
    212 H212       -6.2816  -20.1085  -47.0721 H         1 UNK         0.0600 
    213 H213       -7.7553  -19.4575  -46.3668 H         1 UNK         0.0600 
    214 H214       -6.2409  -18.5815  -46.1944 H         1 UNK         0.0600 
    215 H215       -9.2837  -17.6651  -49.2703 H         1 UNK         0.3000 
    216 H216      -10.8492  -18.3279  -50.6635 H         1 UNK         0.0600 
    217 H217      -11.7696  -20.6018  -50.4709 H         1 UNK         0.0600 
    218 H218      -11.3052  -20.0339  -48.8772 H         1 UNK         0.0600 
    219 H219      -10.2879  -21.1925  -49.7329 H         1 UNK         0.0600 
    220 H220       -7.9325  -18.3931  -51.5757 H         1 UNK         0.3000 
    221 H221       -6.6754  -18.7713  -53.3481 H         1 UNK         0.0600 
    222 H222       -9.2804  -19.1081  -54.9180 H         1 UNK         0.0600 
    223 H223       -8.5176  -17.5677  -54.5250 H         1 UNK         0.0600 
    224 H224       -7.7025  -18.7074  -55.5819 H         1 UNK         0.0600 
    225 H225       -7.0392  -21.0094  -51.6784 H         1 UNK         0.3000 
    226 H226       -7.5869  -23.4304  -53.0724 H         1 UNK         0.0600 
    227 H227       -7.7188  -23.1743  -50.5926 H         1 UNK         0.0600 
    228 H228       -6.6156  -24.4747  -51.0179 H         1 UNK         0.0600 
    229 H229       -5.9787  -22.9151  -50.5131 H         1 UNK         0.0600 
    230 H230       -6.1346  -25.1640  -53.5934 H         1 UNK         0.3000 
    231 H231       -3.7026  -24.3036  -54.9741 H         1 UNK         0.0600 
    232 H232       -5.1086  -27.0195  -54.8610 H         1 UNK         0.0600 
    233 H233       -3.8251  -26.5568  -55.9733 H         1 UNK         0.0600 
    234 H234       -5.3900  -25.7720  -56.0757 H         1 UNK         0.0600 
    235 H235       -3.4358  -24.0852  -52.1446 H         1 UNK         0.3000 
    236 H236       -2.2496  -26.3465  -50.9040 H         1 UNK         0.0600 
    237 H237       -3.2476  -24.3861  -49.6809 H         1 UNK         0.0600 
    238 H238       -1.6213  -24.7617  -49.1295 H         1 UNK         0.0600 
    239 H239       -1.8821  -23.3950  -50.1949 H         1 UNK         0.0600 
    240 H240       -0.8643  -23.9984  -53.0832 H         1 UNK         0.3000 
    241 H241        1.9169  -24.6894  -52.5387 H         1 UNK         0.0600 
    242 H242        0.5626  -27.4576  -55.1171 H         1 UNK         0.3800 
    243 H243       -0.5385  -26.5487  -54.1164 H         1 UNK         0.3800 
    244 H244        2.4002  -23.3270  -54.5948 H         1 UNK         0.0800 
    245 H245        0.6844  -23.0942  -54.8376 H         1 UNK         0.0800 
    246 H246        2.9748  -20.8662  -54.6131 H         1 UNK         0.0800 
    247 H247        1.3092  -20.4009  -54.8834 H         1 UNK         0.0800 
@<TRIPOS>BOND
     1    1    2 1    
     2    1  127 1    
     3    1  128 1    
     4    1  129 1    
     5    2    3 2    
     6    2    4 am   BACKBONE|DICT|INTERRES
     7    4    5 1    
     8    4  130 1    
     9    5    6 1    
    10    5   65 1    
    11    5  131 1    
    12    6    7 1    
    13    6  132 1    
    14    6  133 1    
    15    7    8 1    
    16    8    9 1    
    17    8  134 1    
    18    8  135 1    
    19    9   10 ar   
    20    9   14 ar   
    21   10   11 ar   
    22   10  136 1    
    23   11   12 ar   
    24   11  126 1    
    25   12   13 ar   
    26   12  137 1    
    27   13   14 ar   
    28   13   15 1    
    29   14  138 1    
    30   15   16 1    
    31   15  139 1    
    32   15  140 1    
    33   16   17 1    
    34   17   18 1    
    35   17  141 1    
    36   17  142 1    
    37   18   19 1    
    38   18   67 1    
    39   18  143 1    
    40   19   20 am   BACKBONE|DICT|INTERRES
    41   19  144 1    
    42   20   21 2    
    43   20   22 1    
    44   22   23 1    
    45   22   24 1    
    46   22  145 1    
    47   23  146 1    
    48   23  147 1    
    49   23  148 1    
    50   24   25 am   BACKBONE|DICT|INTERRES
    51   24  149 1    
    52   25   26 2    
    53   25   27 1    
    54   27   28 1    
    55   27   29 1    
    56   27  150 1    
    57   28  151 1    
    58   28  152 1    
    59   28  153 1    
    60   29   30 am   BACKBONE|DICT|INTERRES
    61   29  154 1    
    62   30   31 2    
    63   30   32 1    
    64   32   33 1    
    65   32   34 1    
    66   32  155 1    
    67   33  156 1    
    68   33  157 1    
    69   33  158 1    
    70   34   35 am   BACKBONE|DICT|INTERRES
    71   34  159 1    
    72   35   36 2    
    73   35   37 1    
    74   37   38 1    
    75   37   39 1    
    76   37  160 1    
    77   38  161 1    
    78   38  162 1    
    79   38  163 1    
    80   39   40 am   BACKBONE|DICT|INTERRES
    81   39  164 1    
    82   40   41 2    
    83   40   42 1    
    84   42   43 1    
    85   42   44 1    
    86   42  165 1    
    87   43  166 1    
    88   43  167 1    
    89   43  168 1    
    90   44   45 am   BACKBONE|DICT|INTERRES
    91   44  169 1    
    92   45   46 2    
    93   45   47 1    
    94   47   48 1    
    95   47   49 1    
    96   47  170 1    
    97   48  171 1    
    98   48  172 1    
    99   48  173 1    
   100   49   50 am   BACKBONE|DICT|INTERRES
   101   49  174 1    
   102   50   51 2    
   103   50   52 1    
   104   52   53 1    
   105   52   54 1    
   106   52  175 1    
   107   53  176 1    
   108   53  177 1    
   109   53  178 1    
   110   54   55 am   BACKBONE|DICT|INTERRES
   111   54  179 1    
   112   55   56 2    
   113   55   57 1    
   114   57   58 1    
   115   57   59 1    
   116   57  180 1    
   117   58  181 1    
   118   58  182 1    
   119   58  183 1    
   120   59   60 am   BACKBONE|DICT|INTERRES
   121   59  184 1    
   122   60   61 2    
   123   60   62 1    
   124   62   63 1    
   125   62   64 1    
   126   62  185 1    
   127   63  186 1    
   128   63  187 1    
   129   63  188 1    
   130   64   65 am   BACKBONE|DICT|INTERRES
   131   64  189 1    
   132   65   66 2    
   133   67   68 2    
   134   67   69 am   BACKBONE|DICT|INTERRES
   135   69   70 1    
   136   69  190 1    
   137   70   71 1    
   138   70   72 1    
   139   70  191 1    
   140   71  192 1    
   141   71  193 1    
   142   71  194 1    
   143   72   73 2    
   144   72   74 am   BACKBONE|DICT|INTERRES
   145   74   75 1    
   146   74  195 1    
   147   75   76 1    
   148   75   77 1    
   149   75  196 1    
   150   76  197 1    
   151   76  198 1    
   152   76  199 1    
   153   77   78 2    
   154   77   79 am   BACKBONE|DICT|INTERRES
   155   79   80 1    
   156   79  200 1    
   157   80   81 1    
   158   80   82 1    
   159   80  201 1    
   160   81  202 1    
   161   81  203 1    
   162   81  204 1    
   163   82   83 2    
   164   82   84 am   BACKBONE|DICT|INTERRES
   165   84   85 1    
   166   84  205 1    
   167   85   86 1    
   168   85   87 1    
   169   85  206 1    
   170   86  207 1    
   171   86  208 1    
   172   86  209 1    
   173   87   88 2    
   174   87   89 am   BACKBONE|DICT|INTERRES
   175   89   90 1    
   176   89  210 1    
   177   90   91 1    
   178   90   92 1    
   179   90  211 1    
   180   91  212 1    
   181   91  213 1    
   182   91  214 1    
   183   92   93 2    
   184   92   94 am   BACKBONE|DICT|INTERRES
   185   94   95 1    
   186   94  215 1    
   187   95   96 1    
   188   95   97 1    
   189   95  216 1    
   190   96  217 1    
   191   96  218 1    
   192   96  219 1    
   193   97   98 2    
   194   97   99 am   BACKBONE|DICT|INTERRES
   195   99  100 1    
   196   99  220 1    
   197  100  101 1    
   198  100  102 1    
   199  100  221 1    
   200  101  222 1    
   201  101  223 1    
   202  101  224 1    
   203  102  103 2    
   204  102  104 am   BACKBONE|DICT|INTERRES
   205  104  105 1    
   206  104  225 1    
   207  105  106 1    
   208  105  107 1    
   209  105  226 1    
   210  106  227 1    
   211  106  228 1    
   212  106  229 1    
   213  107  108 2    
   214  107  109 am   BACKBONE|DICT|INTERRES
   215  109  110 1    
   216  109  230 1    
   217  110  111 1    
   218  110  112 1    
   219  110  231 1    
   220  111  232 1    
   221  111  233 1    
   222  111  234 1    
   223  112  113 2    
   224  112  114 am   BACKBONE|DICT|INTERRES
   225  114  115 1    
   226  114  235 1    
   227  115  116 1    
   228  115  117 1    
   229  115  236 1    
   230  116  237 1    
   231  116  238 1    
   232  116  239 1    
   233  117  118 2    
   234  117  119 am   BACKBONE|DICT|INTERRES
   235  119  120 1    
   236  119  240 1    
   237  120  121 1    
   238  120  124 1    
   239  120  241 1    
   240  121  122 am   BACKBONE|DICT|INTERRES
   241  121  123 2    
   242  122  242 1    
   243  122  243 1    
   244  124  125 1    
   245  124  244 1    
   246  124  245 1    
   247  125  126 1    
   248  126  246 1    
   249  126  247 1    
@<TRIPOS>SUBSTRUCTURE
     1 UNK         1 GROUP             0       ****    0 ROOT    
