@<TRIPOS>MOLECULE
3R540
247   249    1
SMALL
USER_CHARGES


@<TRIPOS>ATOM
      1 CA         -3.4464  -14.6793  -48.9248 C.3       0 UNK        -0.1800 
      2 C          -1.9597  -14.3571  -48.8651 C.2       0 UNK         0.5000 
      3 O          -1.5754  -13.1985  -49.0196 O.2       0 UNK        -0.5000 
      4 N          -1.1262  -15.3807  -48.6470 N.am      1 UNK        -0.5000 
      5 CA          0.3288  -15.2717  -48.5153 C.3       1 UNK         0.1400 
      6 C6          0.9913  -16.6577  -48.7071 C.3       23 UNK        -0.0398 
      7 S7          2.8120  -16.6020  -48.8151 S.3       23 UNK        -0.2404 
      8 C8          3.0986  -17.0031  -50.5667 C.3       23 UNK        -0.0205 
      9 C9          2.8460  -18.4717  -50.8840 C.ar      23 UNK        -0.0193 
     10 C10         1.8058  -18.8410  -51.7431 C.ar      23 UNK        -0.1150 
     11 C11         1.6270  -20.1790  -52.1070 C.ar      23 UNK        -0.0193 
     12 C12         2.4874  -21.1517  -51.5895 C.ar      23 UNK        -0.1150 
     13 C13         3.5211  -20.8008  -50.7154 C.ar      23 UNK        -0.0193 
     14 C14         3.6934  -19.4576  -50.3671 C.ar      23 UNK        -0.1150 
     15 C15         4.4994  -21.8573  -50.2133 C.3       23 UNK        -0.0205 
     16 S16         3.6862  -23.2780  -49.4118 S.3       23 UNK        -0.2404 
     17 C17         3.3473  -22.6201  -47.7459 C.3       23 UNK        -0.0398 
     18 CA          2.2949  -23.4699  -46.9884 C.3       11 UNK         0.1400 
     19 N           2.4270  -23.3225  -45.5385 N.am      11 UNK        -0.5000 
     20 C           2.5246  -24.3363  -44.6684 C.2       10 UNK         0.5000 
     21 O           2.6300  -25.5180  -44.9988 O.2       10 UNK        -0.5000 
     22 CA          2.4762  -23.9806  -43.1664 C.3       10 UNK         0.1400 
     23 CB          3.8986  -23.8362  -42.6044 C.3       10 UNK        -0.1800 
     24 N           1.7184  -22.7645  -42.8566 N.am      10 UNK        -0.5000 
     25 C           0.4283  -22.5585  -43.1563 C.2       9 UNK         0.5000 
     26 O          -0.2837  -23.3868  -43.7210 O.2       9 UNK        -0.5000 
     27 CA         -0.1559  -21.1717  -42.8337 C.3       9 UNK         0.1400 
     28 CB         -0.7593  -21.1674  -41.4220 C.3       9 UNK        -0.1800 
     29 N           0.7682  -20.0378  -42.9714 N.am      9 UNK        -0.5000 
     30 C           1.5728  -19.7696  -44.0122 C.2       8 UNK         0.5000 
     31 O           1.7491  -20.5439  -44.9548 O.2       8 UNK        -0.5000 
     32 CA          2.2858  -18.4046  -44.0321 C.3       8 UNK         0.1400 
     33 CB          2.1251  -17.7340  -45.4039 C.3       8 UNK        -0.1800 
     34 N           1.7825  -17.4843  -43.0111 N.am      8 UNK        -0.5000 
     35 C           2.3393  -17.2800  -41.8114 C.2       7 UNK         0.5000 
     36 O           3.3365  -17.8775  -41.4071 O.2       7 UNK        -0.5000 
     37 CA          1.6594  -16.2336  -40.9092 C.3       7 UNK         0.1400 
     38 CB          2.3328  -14.8634  -41.0762 C.3       7 UNK        -0.1800 
     39 N           0.2209  -16.1058  -41.1682 N.am      7 UNK        -0.5000 
     40 C          -0.6950  -16.9813  -40.7308 C.2       6 UNK         0.5000 
     41 O          -0.4188  -17.9847  -40.0739 O.2       6 UNK        -0.5000 
     42 CA         -2.1575  -16.6979  -41.1112 C.3       6 UNK         0.1400 
     43 CB         -2.7431  -15.5736  -40.2429 C.3       6 UNK        -0.1800 
     44 N          -2.2958  -16.3618  -42.5304 N.am      6 UNK        -0.5000 
     45 C          -2.2917  -17.2793  -43.5097 C.2       5 UNK         0.5000 
     46 O          -2.1460  -18.4818  -43.2941 O.2       5 UNK        -0.5000 
     47 CA         -2.4383  -16.8140  -44.9732 C.3       5 UNK         0.1400 
     48 CB         -3.5658  -17.5711  -45.7104 C.3       5 UNK        -0.1800 
     49 N          -2.5447  -15.3623  -45.1581 N.am      5 UNK        -0.5000 
     50 C          -3.5822  -14.5639  -44.8688 C.2       4 UNK         0.5000 
     51 O          -4.6396  -14.9626  -44.3788 O.2       4 UNK        -0.5000 
     52 CA         -3.3808  -13.0582  -45.1521 C.3       4 UNK         0.1400 
     53 CB         -4.5237  -12.1905  -44.5867 C.3       4 UNK        -0.1800 
     54 N          -2.0902  -12.5259  -44.6986 N.am      4 UNK        -0.5000 
     55 C          -1.5494  -12.6250  -43.4765 C.2       3 UNK         0.5000 
     56 O          -2.0062  -13.3336  -42.5788 O.2       3 UNK        -0.5000 
     57 CA         -0.2584  -11.8150  -43.2389 C.3       3 UNK         0.1400 
     58 CB          0.1439  -11.7705  -41.7541 C.3       3 UNK        -0.1800 
     59 N           0.8507  -12.3640  -44.0157 N.am      3 UNK        -0.5000 
     60 C           1.0433  -12.1750  -45.3266 C.2       2 UNK         0.5000 
     61 O           0.3429  -11.4256  -46.0113 O.2       2 UNK        -0.5000 
     62 CA          2.1781  -12.9754  -46.0029 C.3       2 UNK         0.1400 
     63 CB          2.9536  -13.9084  -45.0442 C.3       2 UNK        -0.1800 
     64 N           1.6826  -13.7327  -47.1573 N.am      2 UNK        -0.5000 
     65 C           0.6881  -14.6325  -47.1564 C.2       1 UNK         0.5000 
     66 O           0.0678  -14.9735  -46.1458 O.2       1 UNK        -0.5000 
     67 C           0.8629  -23.1021  -47.4191 C.2       11 UNK         0.5000 
     68 O           0.2490  -23.8291  -48.2017 O.2       11 UNK        -0.5000 
     69 N           0.3496  -21.9799  -46.8951 N.am      12 UNK        -0.5000 
     70 CA         -0.8970  -21.3600  -47.3297 C.3       12 UNK         0.1400 
     71 CB         -1.0273  -19.9632  -46.7111 C.3       12 UNK        -0.1800 
     72 C          -2.1542  -22.2012  -47.0625 C.2       12 UNK         0.5000 
     73 O          -3.0714  -22.1480  -47.8788 O.2       12 UNK        -0.5000 
     74 N          -2.1892  -22.9768  -45.9678 N.am      13 UNK        -0.5000 
     75 CA         -3.3260  -23.8457  -45.6438 C.3       13 UNK         0.1400 
     76 CB         -3.2270  -24.3417  -44.1944 C.3       13 UNK        -0.1800 
     77 C          -3.4489  -25.0302  -46.6180 C.2       13 UNK         0.5000 
     78 O          -4.5585  -25.3567  -47.0400 O.2       13 UNK        -0.5000 
     79 N          -2.3040  -25.6131  -47.0024 N.am      14 UNK        -0.5000 
     80 CA         -2.2094  -26.6731  -48.0102 C.3       14 UNK         0.1400 
     81 CB         -0.7988  -27.2808  -47.9788 C.3       14 UNK        -0.1800 
     82 C          -2.5572  -26.1659  -49.4229 C.2       14 UNK         0.5000 
     83 O          -3.1470  -26.9030  -50.2126 O.2       14 UNK        -0.5000 
     84 N          -2.2247  -24.8974  -49.6897 N.am      15 UNK        -0.5000 
     85 CA         -2.5480  -24.1618  -50.9108 C.3       15 UNK         0.1400 
     86 CB         -1.4550  -23.1053  -51.1270 C.3       15 UNK        -0.1800 
     87 C          -3.9623  -23.5336  -50.9048 C.2       15 UNK         0.5000 
     88 O          -4.2688  -22.7544  -51.8075 O.2       15 UNK        -0.5000 
     89 N          -4.7911  -23.8728  -49.9030 N.am      16 UNK        -0.5000 
     90 CA         -6.1860  -23.4605  -49.7083 C.3       16 UNK         0.1400 
     91 CB         -7.0949  -24.0857  -50.7859 C.3       16 UNK        -0.1800 
     92 C          -6.3450  -21.9319  -49.5743 C.2       16 UNK         0.5000 
     93 O          -7.0009  -21.2900  -50.3963 O.2       16 UNK        -0.5000 
     94 N          -5.7026  -21.3896  -48.5309 N.am      17 UNK        -0.5000 
     95 CA         -5.5721  -19.9693  -48.1824 C.3       17 UNK         0.1400 
     96 CB         -6.9443  -19.3071  -47.9416 C.3       17 UNK        -0.1800 
     97 C          -4.6898  -19.1934  -49.1805 C.2       17 UNK         0.5000 
     98 O          -4.8633  -17.9858  -49.3501 O.2       17 UNK        -0.5000 
     99 N          -3.7531  -19.9116  -49.8167 N.am      18 UNK        -0.5000 
    100 CA        -2.7804  -19.5000  -50.8342 C.3       18 UNK         0.1400 
    101 CB        -1.7806  -18.4773  -50.2736 C.3       18 UNK        -0.1800 
    102 C         -3.3807  -18.9980  -52.1585 C.2       18 UNK         0.5000 
    103 O         -2.9421  -19.4396  -53.2198 O.2       18 UNK        -0.5000 
    104 N         -4.3544  -18.0847  -52.0835 N.am      19 UNK        -0.5000 
    105 CA        -4.9652  -17.3698  -53.2058 C.3       19 UNK         0.1400 
    106 CB        -5.9805  -16.3587  -52.6534 C.3       19 UNK        -0.1800 
    107 C         -5.6244  -18.2766  -54.2616 C.2       19 UNK         0.5000 
    108 O         -5.6632  -17.9061  -55.4350 O.2       19 UNK        -0.5000 
    109 N         -6.0991  -19.4559  -53.8412 N.am      20 UNK        -0.5000 
    110 CA        -6.6739  -20.4753  -54.7181 C.3       20 UNK         0.1400 
    111 CB        -7.3563  -21.5417  -53.8521 C.3       20 UNK        -0.1800 
    112 C         -5.6417  -21.1307  -55.6580 C.2       20 UNK         0.5000 
    113 O         -6.0210  -21.5797  -56.7407 O.2       20 UNK        -0.5000 
    114 N         -4.3718  -21.1799  -55.2342 N.am      21 UNK        -0.5000 
    115 CA        -3.2700  -21.7828  -55.9819 C.3       21 UNK         0.1400 
    116 CB        -2.4570  -22.6776  -55.0333 C.3       21 UNK        -0.1800 
    117 C         -2.3599  -20.7155  -56.6095 C.2       21 UNK         0.5000 
    118 O         -1.9797  -20.8541  -57.7730 O.2       21 UNK        -0.5000 
    119 N         -2.0142  -19.6882  -55.8253 N.am      22 UNK        -0.5000 
    120 CA        -1.0048  -18.6681  -56.1539 C.3       22 UNK         0.1400 
    121 C         -1.6062  -17.2699  -56.4754 C.2       22 UNK         0.5000 
    122 N         -2.9205  -17.0900  -56.4990 N.am      22 UNK        -0.7600 
    123 O         -0.8644  -16.3253  -56.7314 O.2       22 UNK        -0.5000 
    124 C124        0.0842  -18.5767  -55.0493 C.3       23 UNK        -0.0398 
    125 S125        0.9555  -20.1655  -54.7964 S.3       23 UNK        -0.2404 
    126 C126        0.5249  -20.5802  -53.0764 C.3       23 UNK        -0.0205 
    127 H127       -3.6665  -15.6495  -48.4806 H         1 UNK         0.0600 
    128 H128       -4.0231  -13.9258  -48.3891 H         1 UNK         0.0600 
    129 H129       -3.7851  -14.6949  -49.9607 H         1 UNK         0.0600 
    130 H130       -1.5121  -16.2979  -48.4859 H         1 UNK         0.3000 
    131 H131        0.6836  -14.6150  -49.3128 H         1 UNK         0.0600 
    132 H132        0.7089  -17.3376  -47.9043 H         1 UNK         0.0800 
    133 H133        0.6136  -17.1131  -49.6212 H         1 UNK         0.0800 
    134 H134        2.4842  -16.3538  -51.1925 H         1 UNK         0.0800 
    135 H135        4.1349  -16.7665  -50.8119 H         1 UNK         0.0800 
    136 H136        1.1558  -18.0838  -52.1571 H         1 UNK         0.1150 
    137 H137        2.3643  -22.1858  -51.8794 H         1 UNK         0.1150 
    138 H138        4.5051  -19.1697  -49.7137 H         1 UNK         0.1150 
    139 H139        5.0707  -22.2242  -51.0669 H         1 UNK         0.0800 
    140 H140        5.2265  -21.4245  -49.5243 H         1 UNK         0.0800 
    141 H141        3.0544  -21.5697  -47.8071 H         1 UNK         0.0800 
    142 H142        4.2942  -22.6344  -47.2042 H         1 UNK         0.0800 
    143 H143        2.4472  -24.5171  -47.2588 H         1 UNK         0.0600 
    144 H144        2.3177  -22.3819  -45.1721 H         1 UNK         0.3000 
    145 H145        1.9867  -24.8103  -42.6525 H         1 UNK         0.0600 
    146 H146        3.8836  -23.6800  -41.5256 H         1 UNK         0.0600 
    147 H147        4.4868  -24.7354  -42.7927 H         1 UNK         0.0600 
    148 H148        4.4266  -22.9971  -43.0593 H         1 UNK         0.0600 
    149 H149        2.2280  -22.0141  -42.4142 H         1 UNK         0.3000 
    150 H150       -0.9702  -21.0045  -43.5397 H         1 UNK         0.0600 
    151 H151       -1.4313  -22.0146  -41.2777 H         1 UNK         0.0600 
    152 H152       -1.3437  -20.2640  -41.2488 H         1 UNK         0.0600 
    153 H153        0.0125  -21.2221  -40.6535 H         1 UNK         0.0600 
    154 H154        0.6973  -19.3339  -42.2511 H         1 UNK         0.3000 
    155 H155        3.3485  -18.5981  -43.8741 H         1 UNK         0.0600 
    156 H156        2.7068  -16.8156  -45.4653 H         1 UNK         0.0600 
    157 H157        1.0825  -17.4868  -45.6015 H         1 UNK         0.0600 
    158 H158        2.4726  -18.3807  -46.2108 H         1 UNK         0.0600 
    159 H159        0.9513  -16.9630  -43.2462 H         1 UNK         0.3000 
    160 H160        1.8029  -16.5523  -39.8743 H         1 UNK         0.0600 
    161 H161        2.1703  -14.4515  -42.0715 H         1 UNK         0.0600 
    162 H162        3.4105  -14.9355  -40.9235 H         1 UNK         0.0600 
    163 H163        1.9542  -14.1495  -40.3450 H         1 UNK         0.0600 
    164 H164       -0.0914  -15.2991  -41.6886 H         1 UNK         0.3000 
    165 H165       -2.7369  -17.6018  -40.9101 H         1 UNK         0.0600 
    166 H166       -2.1704  -14.6500  -40.3270 H         1 UNK         0.0600 
    167 H167       -3.7740  -15.3552  -40.5221 H         1 UNK         0.0600 
    168 H168       -2.7441  -15.8590  -39.1902 H         1 UNK         0.0600 
    169 H169       -2.4039  -15.3800  -42.7616 H         1 UNK         0.3000 
    170 H170       -1.5015  -17.0976  -45.4542 H         1 UNK         0.0600 
    171 H171       -3.4446  -18.6499  -45.6148 H         1 UNK         0.0600 
    172 H172       -4.5525  -17.3364  -45.3130 H         1 UNK         0.0600 
    173 H173       -3.5678  -17.3381  -46.7743 H         1 UNK         0.0600 
    174 H174       -1.6892  -14.9343  -45.5070 H         1 UNK         0.3000 
    175 H175       -3.3904  -12.9491  -46.2368 H         1 UNK         0.0600 
    176 H176       -4.3847  -11.1400  -44.8421 H         1 UNK         0.0600 
    177 H177       -5.4885  -12.4959  -44.9937 H         1 UNK         0.0600 
    178 H178       -4.5858  -12.2658  -43.5004 H         1 UNK         0.0600 
    179 H179       -1.5675  -11.9915  -45.3849 H         1 UNK         0.3000 
    180 H180       -0.4467  -10.7884  -43.5603 H         1 UNK         0.0600 
    181 H181        0.3083  -12.7678  -41.3481 H         1 UNK         0.0600 
    182 H182       -0.6379  -11.3016  -41.1554 H         1 UNK         0.0600 
    183 H183        1.0560  -11.1918  -41.6073 H         1 UNK         0.0600 
    184 H184        1.4558  -13.0124  -43.5365 H         1 UNK         0.3000 
    185 H185        2.8821  -12.2387  -46.3920 H         1 UNK         0.0600 
    186 H186        3.7400  -14.4437  -45.5764 H         1 UNK         0.0600 
    187 H187        3.4386  -13.3434  -44.2473 H         1 UNK         0.0600 
    188 H188        2.3054  -14.6531  -44.5817 H         1 UNK         0.0600 
    189 H189        2.1185  -13.5035  -48.0392 H         1 UNK         0.3000 
    190 H190        0.9028  -21.4461  -46.2282 H         1 UNK         0.3000 
    191 H191       -0.8212  -21.2258  -48.4096 H         1 UNK         0.0600 
    192 H192       -0.1396  -19.3624  -46.9047 H         1 UNK         0.0600 
    193 H193       -1.8762  -19.4345  -47.1432 H         1 UNK         0.0600 
    194 H194       -1.1756  -20.0059  -45.6327 H         1 UNK         0.0600 
    195 H195       -1.3953  -23.0068  -45.3358 H         1 UNK         0.3000 
    196 H196       -4.2382  -23.2508  -45.7276 H         1 UNK         0.0600 
    197 H197       -4.1148  -24.9115  -43.9177 H         1 UNK         0.0600 
    198 H198       -3.1439  -23.5089  -43.4958 H         1 UNK         0.0600 
    199 H199       -2.3643  -24.9924  -44.0477 H         1 UNK         0.0600 
    200 H200       -1.4334  -25.2533  -46.6383 H         1 UNK         0.3000 
    201 H201       -2.9255  -27.4557  -47.7507 H         1 UNK         0.0600 
    202 H202       -0.5668  -27.6891  -46.9950 H         1 UNK         0.0600 
    203 H203       -0.0345  -26.5427  -48.2242 H         1 UNK         0.0600 
    204 H204       -0.7100  -28.0958  -48.6982 H         1 UNK         0.0600 
    205 H205       -1.6914  -24.3905  -48.9928 H         1 UNK         0.3000 
    206 H206       -2.5169  -24.8501  -51.7577 H         1 UNK         0.0600 
    207 H207       -0.4755  -23.5697  -51.2436 H         1 UNK         0.0600 
    208 H208       -1.6444  -22.5188  -52.0237 H         1 UNK         0.0600 
    209 H209       -1.3954  -22.4179  -50.2855 H         1 UNK         0.0600 
    210 H210       -4.4246  -24.4867  -49.1876 H         1 UNK         0.3000 
    211 H211       -6.4961  -23.8799  -48.7498 H         1 UNK         0.0600 
    212 H212       -6.8010  -23.7912  -51.7916 H         1 UNK         0.0600 
    213 H213       -8.1342  -23.7865  -50.6455 H         1 UNK         0.0600 
    214 H214       -7.0619  -25.1741  -50.7388 H         1 UNK         0.0600 
    215 H215       -5.0910  -22.0014  -48.0012 H         1 UNK         0.3000 
    216 H216       -5.0323  -19.9476  -47.2349 H         1 UNK         0.0600 
    217 H217       -7.5465  -19.8884  -47.2436 H         1 UNK         0.0600 
    218 H218       -7.5115  -19.1966  -48.8661 H         1 UNK         0.0600 
    219 H219       -6.8247  -18.3108  -47.5143 H         1 UNK         0.0600 
    220 H220       -3.7183  -20.8935  -49.5711 H         1 UNK         0.3000 
    221 H221       -2.2173  -20.3972  -51.0817 H         1 UNK         0.0600 
    222 H222       -2.2797  -17.5689  -49.9398 H         1 UNK         0.0600 
    223 H223       -1.2213  -18.8899  -49.4356 H         1 UNK         0.0600 
    224 H224       -1.0566  -18.1876  -51.0354 H         1 UNK         0.0600 
    225 H225       -4.6578  -17.8172  -51.1492 H         1 UNK         0.3000 
    226 H226       -4.1694  -16.8160  -53.7079 H         1 UNK         0.0600 
    227 H227       -5.5019  -15.6470  -51.9804 H         1 UNK         0.0600 
    228 H228       -6.4413  -15.7850  -53.4587 H         1 UNK         0.0600 
    229 H229       -6.7801  -16.8551  -52.1019 H         1 UNK         0.0600 
    230 H230       -6.0193  -19.6895  -52.8614 H         1 UNK         0.3000 
    231 H231       -7.4352  -20.0004  -55.3406 H         1 UNK         0.0600 
    232 H232       -8.1399  -21.1086  -53.2301 H         1 UNK         0.0600 
    233 H233       -6.6354  -22.0254  -53.1937 H         1 UNK         0.0600 
    234 H234       -7.8161  -22.3164  -54.4670 H         1 UNK         0.0600 
    235 H235       -4.1367  -20.7574  -54.3439 H         1 UNK         0.3000 
    236 H236       -3.6532  -22.4134  -56.7867 H         1 UNK         0.0600 
    237 H237       -3.0825  -23.4470  -54.5802 H         1 UNK         0.0600 
    238 H238       -1.6493  -23.1810  -55.5658 H         1 UNK         0.0600 
    239 H239       -2.0067  -22.0960  -54.2296 H         1 UNK         0.0600 
    240 H240       -2.3830  -19.6419  -54.8772 H         1 UNK         0.3000 
    241 H241       -0.4930  -18.9602  -57.0724 H         1 UNK         0.0600 
    242 H242       -3.2870  -16.1791  -56.7248 H         1 UNK         0.3800 
    243 H243       -3.5610  -17.8460  -56.3048 H         1 UNK         0.3800 
    244 H244        0.8399  -17.8362  -55.3163 H         1 UNK         0.0800 
    245 H245       -0.3569  -18.2325  -54.1131 H         1 UNK         0.0800 
    246 H246       -0.4173  -20.1172  -52.7886 H         1 UNK         0.0800 
    247 H247        0.3590  -21.6565  -53.0249 H         1 UNK         0.0800 
@<TRIPOS>BOND
     1    1    2 1    
     2    1  127 1    
     3    1  128 1    
     4    1  129 1    
     5    2    3 2    
     6    2    4 am   BACKBONE|DICT|INTERRES
     7    4    5 1    
     8    4  130 1    
     9    5    6 1    
    10    5   65 1    
    11    5  131 1    
    12    6    7 1    
    13    6  132 1    
    14    6  133 1    
    15    7    8 1    
    16    8    9 1    
    17    8  134 1    
    18    8  135 1    
    19    9   10 ar   
    20    9   14 ar   
    21   10   11 ar   
    22   10  136 1    
    23   11   12 ar   
    24   11  126 1    
    25   12   13 ar   
    26   12  137 1    
    27   13   14 ar   
    28   13   15 1    
    29   14  138 1    
    30   15   16 1    
    31   15  139 1    
    32   15  140 1    
    33   16   17 1    
    34   17   18 1    
    35   17  141 1    
    36   17  142 1    
    37   18   19 1    
    38   18   67 1    
    39   18  143 1    
    40   19   20 am   BACKBONE|DICT|INTERRES
    41   19  144 1    
    42   20   21 2    
    43   20   22 1    
    44   22   23 1    
    45   22   24 1    
    46   22  145 1    
    47   23  146 1    
    48   23  147 1    
    49   23  148 1    
    50   24   25 am   BACKBONE|DICT|INTERRES
    51   24  149 1    
    52   25   26 2    
    53   25   27 1    
    54   27   28 1    
    55   27   29 1    
    56   27  150 1    
    57   28  151 1    
    58   28  152 1    
    59   28  153 1    
    60   29   30 am   BACKBONE|DICT|INTERRES
    61   29  154 1    
    62   30   31 2    
    63   30   32 1    
    64   32   33 1    
    65   32   34 1    
    66   32  155 1    
    67   33  156 1    
    68   33  157 1    
    69   33  158 1    
    70   34   35 am   BACKBONE|DICT|INTERRES
    71   34  159 1    
    72   35   36 2    
    73   35   37 1    
    74   37   38 1    
    75   37   39 1    
    76   37  160 1    
    77   38  161 1    
    78   38  162 1    
    79   38  163 1    
    80   39   40 am   BACKBONE|DICT|INTERRES
    81   39  164 1    
    82   40   41 2    
    83   40   42 1    
    84   42   43 1    
    85   42   44 1    
    86   42  165 1    
    87   43  166 1    
    88   43  167 1    
    89   43  168 1    
    90   44   45 am   BACKBONE|DICT|INTERRES
    91   44  169 1    
    92   45   46 2    
    93   45   47 1    
    94   47   48 1    
    95   47   49 1    
    96   47  170 1    
    97   48  171 1    
    98   48  172 1    
    99   48  173 1    
   100   49   50 am   BACKBONE|DICT|INTERRES
   101   49  174 1    
   102   50   51 2    
   103   50   52 1    
   104   52   53 1    
   105   52   54 1    
   106   52  175 1    
   107   53  176 1    
   108   53  177 1    
   109   53  178 1    
   110   54   55 am   BACKBONE|DICT|INTERRES
   111   54  179 1    
   112   55   56 2    
   113   55   57 1    
   114   57   58 1    
   115   57   59 1    
   116   57  180 1    
   117   58  181 1    
   118   58  182 1    
   119   58  183 1    
   120   59   60 am   BACKBONE|DICT|INTERRES
   121   59  184 1    
   122   60   61 2    
   123   60   62 1    
   124   62   63 1    
   125   62   64 1    
   126   62  185 1    
   127   63  186 1    
   128   63  187 1    
   129   63  188 1    
   130   64   65 am   BACKBONE|DICT|INTERRES
   131   64  189 1    
   132   65   66 2    
   133   67   68 2    
   134   67   69 am   BACKBONE|DICT|INTERRES
   135   69   70 1    
   136   69  190 1    
   137   70   71 1    
   138   70   72 1    
   139   70  191 1    
   140   71  192 1    
   141   71  193 1    
   142   71  194 1    
   143   72   73 2    
   144   72   74 am   BACKBONE|DICT|INTERRES
   145   74   75 1    
   146   74  195 1    
   147   75   76 1    
   148   75   77 1    
   149   75  196 1    
   150   76  197 1    
   151   76  198 1    
   152   76  199 1    
   153   77   78 2    
   154   77   79 am   BACKBONE|DICT|INTERRES
   155   79   80 1    
   156   79  200 1    
   157   80   81 1    
   158   80   82 1    
   159   80  201 1    
   160   81  202 1    
   161   81  203 1    
   162   81  204 1    
   163   82   83 2    
   164   82   84 am   BACKBONE|DICT|INTERRES
   165   84   85 1    
   166   84  205 1    
   167   85   86 1    
   168   85   87 1    
   169   85  206 1    
   170   86  207 1    
   171   86  208 1    
   172   86  209 1    
   173   87   88 2    
   174   87   89 am   BACKBONE|DICT|INTERRES
   175   89   90 1    
   176   89  210 1    
   177   90   91 1    
   178   90   92 1    
   179   90  211 1    
   180   91  212 1    
   181   91  213 1    
   182   91  214 1    
   183   92   93 2    
   184   92   94 am   BACKBONE|DICT|INTERRES
   185   94   95 1    
   186   94  215 1    
   187   95   96 1    
   188   95   97 1    
   189   95  216 1    
   190   96  217 1    
   191   96  218 1    
   192   96  219 1    
   193   97   98 2    
   194   97   99 am   BACKBONE|DICT|INTERRES
   195   99  100 1    
   196   99  220 1    
   197  100  101 1    
   198  100  102 1    
   199  100  221 1    
   200  101  222 1    
   201  101  223 1    
   202  101  224 1    
   203  102  103 2    
   204  102  104 am   BACKBONE|DICT|INTERRES
   205  104  105 1    
   206  104  225 1    
   207  105  106 1    
   208  105  107 1    
   209  105  226 1    
   210  106  227 1    
   211  106  228 1    
   212  106  229 1    
   213  107  108 2    
   214  107  109 am   BACKBONE|DICT|INTERRES
   215  109  110 1    
   216  109  230 1    
   217  110  111 1    
   218  110  112 1    
   219  110  231 1    
   220  111  232 1    
   221  111  233 1    
   222  111  234 1    
   223  112  113 2    
   224  112  114 am   BACKBONE|DICT|INTERRES
   225  114  115 1    
   226  114  235 1    
   227  115  116 1    
   228  115  117 1    
   229  115  236 1    
   230  116  237 1    
   231  116  238 1    
   232  116  239 1    
   233  117  118 2    
   234  117  119 am   BACKBONE|DICT|INTERRES
   235  119  120 1    
   236  119  240 1    
   237  120  121 1    
   238  120  124 1    
   239  120  241 1    
   240  121  122 am   BACKBONE|DICT|INTERRES
   241  121  123 2    
   242  122  242 1    
   243  122  243 1    
   244  124  125 1    
   245  124  244 1    
   246  124  245 1    
   247  125  126 1    
   248  126  246 1    
   249  126  247 1    
@<TRIPOS>SUBSTRUCTURE
     1 UNK         1 GROUP             0       ****    0 ROOT    
