@<TRIPOS>MOLECULE
3R540
247   249    1
SMALL
USER_CHARGES


@<TRIPOS>ATOM
      1 CA          3.8268  -13.9307  -45.2973 C.3       0 UNK        -0.1800 
      2 C           2.9101  -13.1773  -46.2501 C.2       0 UNK         0.5000 
      3 O           2.7469  -11.9649  -46.1147 O.2       0 UNK        -0.5000 
      4 N           2.3024  -13.8873  -47.2074 N.am      1 UNK        -0.5000 
      5 CA          1.4042  -13.3229  -48.2183 C.3       1 UNK         0.1400 
      6 C6          0.5460  -14.4185  -48.9022 C.3       23 UNK        -0.0398 
      7 S7          1.5013  -15.7870  -49.6406 S.3       23 UNK        -0.2404 
      8 C8          0.1423  -16.8871  -50.1355 C.3       23 UNK        -0.0205 
      9 C9          0.6655  -18.1996  -50.6930 C.ar      23 UNK        -0.0193 
     10 C10         0.5557  -18.4900  -52.0551 C.ar      23 UNK        -0.1150 
     11 C11         1.0278  -19.7054  -52.5582 C.ar      23 UNK        -0.0193 
     12 C12         1.6188  -20.6261  -51.6885 C.ar      23 UNK        -0.1150 
     13 C13         1.7455  -20.3487  -50.3248 C.ar      23 UNK        -0.0193 
     14 C14         1.2613  -19.1282  -49.8368 C.ar      23 UNK        -0.1150 
     15 C15         2.4383  -21.3794  -49.4304 C.3       23 UNK        -0.0205 
     16 S16         2.1068  -21.2200  -47.6431 S.3       23 UNK        -0.2404 
     17 C17         0.3173  -21.5680  -47.5808 C.3       23 UNK        -0.0398 
     18 CA          0.0216  -22.9263  -46.9144 C.3       11 UNK         0.1400 
     19 N           0.4642  -22.9577  -45.5193 N.am      11 UNK        -0.5000 
     20 C           0.7166  -24.0750  -44.8267 C.2       10 UNK         0.5000 
     21 O           0.4272  -25.2000  -45.2363 O.2       10 UNK        -0.5000 
     22 CA          1.3991  -23.9074  -43.4605 C.3       10 UNK         0.1400 
     23 CB          2.9008  -23.6414  -43.6458 C.3       10 UNK        -0.1800 
     24 N           0.8013  -22.7988  -42.7187 N.am      10 UNK        -0.5000 
     25 C           0.0696  -22.9314  -41.6038 C.2       9 UNK         0.5000 
     26 O          -0.0727  -23.9936  -40.9966 O.2       9 UNK        -0.5000 
     27 CA         -0.6579  -21.6694  -41.0908 C.3       9 UNK         0.1400 
     28 CB          0.1875  -20.9581  -40.0242 C.3       9 UNK        -0.1800 
     29 N          -0.9975  -20.7132  -42.1487 N.am      9 UNK        -0.5000 
     30 C          -1.7684  -20.9870  -43.2122 C.2       8 UNK         0.5000 
     31 O          -2.3309  -22.0667  -43.3801 O.2       8 UNK        -0.5000 
     32 CA         -1.8814  -19.9175  -44.3145 C.3       8 UNK         0.1400 
     33 CB         -3.2447  -19.2155  -44.2527 C.3       8 UNK        -0.1800 
     34 N          -0.8104  -18.9174  -44.3049 N.am      8 UNK        -0.5000 
     35 C           0.4960  -19.1812  -44.4689 C.2       7 UNK         0.5000 
     36 O           0.9467  -20.3222  -44.5851 O.2       7 UNK        -0.5000 
     37 CA          1.4629  -17.9815  -44.4541 C.3       7 UNK         0.1400 
     38 CB          1.6623  -17.4440  -45.8794 C.3       7 UNK        -0.1800 
     39 N           1.0217  -16.8887  -43.5839 N.am      7 UNK        -0.5000 
     40 C           0.8241  -16.9936  -42.2617 C.2       6 UNK         0.5000 
     41 O           1.0526  -18.0183  -41.6181 O.2       6 UNK        -0.5000 
     42 CA          0.2407  -15.7664  -41.5344 C.3       6 UNK         0.1400 
     43 CB          1.3689  -14.9498  -40.8854 C.3       6 UNK        -0.1800 
     44 N          -0.5738  -14.8645  -42.3567 N.am      6 UNK        -0.5000 
     45 C          -1.6389  -15.1856  -43.1077 C.2       5 UNK         0.5000 
     46 O          -2.0147  -16.3419  -43.2980 O.2       5 UNK        -0.5000 
     47 CA         -2.4242  -14.0226  -43.7506 C.3       5 UNK         0.1400 
     48 CB         -3.8367  -13.9336  -43.1514 C.3       5 UNK        -0.1800 
     49 N          -1.7631  -12.7230  -43.5897 N.am      5 UNK        -0.5000 
     50 C          -0.7577  -12.2871  -44.3571 C.2       4 UNK         0.5000 
     51 O          -0.3107  -12.9187  -45.3152 O.2       4 UNK        -0.5000 
     52 CA         -0.1227  -10.9526  -43.9434 C.3       4 UNK         0.1400 
     53 CB          0.8930  -11.1669  -42.8080 C.3       4 UNK        -0.1800 
     54 N           0.5611  -10.3501  -45.0824 N.am      4 UNK        -0.5000 
     55 C           0.5602   -9.0473  -45.3827 C.2       3 UNK         0.5000 
     56 O          -0.0097   -8.1890  -44.7068 O.2       3 UNK        -0.5000 
     57 CA          1.3150   -8.6221  -46.6574 C.3       3 UNK         0.1400 
     58 CB          2.7933   -8.3446  -46.3440 C.3       3 UNK        -0.1800 
     59 N           1.2279   -9.5888  -47.7556 N.am      3 UNK        -0.5000 
     60 C           0.1009   -9.9148  -48.4050 C.2       2 UNK         0.5000 
     61 O          -1.0052   -9.4598  -48.1128 O.2       2 UNK        -0.5000 
     62 CA          0.2150  -10.8927  -49.5944 C.3       2 UNK         0.1400 
     63 CB         -0.2543  -10.2145  -50.8920 C.3       2 UNK        -0.1800 
     64 N           1.5769  -11.3960  -49.8130 N.am      2 UNK        -0.5000 
     65 C           2.1776  -12.4492  -49.2390 C.2       1 UNK         0.5000 
     66 O           3.3425  -12.7368  -49.5191 O.2       1 UNK        -0.5000 
     67 C          -1.4376  -23.3737  -47.1333 C.2       11 UNK         0.5000 
     68 O          -1.7892  -23.6739  -48.2731 O.2       11 UNK        -0.5000 
     69 N          -2.2543  -23.4824  -46.0747 N.am      12 UNK        -0.5000 
     70 CA         -3.5620  -24.1440  -46.1527 C.3       12 UNK         0.1400 
     71 CB         -4.4026  -23.8045  -44.9147 C.3       12 UNK        -0.1800 
     72 C          -3.4441  -25.6728  -46.3271 C.2       12 UNK         0.5000 
     73 O          -4.3769  -26.2918  -46.8349 O.2       12 UNK        -0.5000 
     74 N          -2.3057  -26.2551  -45.9265 N.am      13 UNK        -0.5000 
     75 CA         -1.9687  -27.6529  -46.1800 C.3       13 UNK         0.1400 
     76 CB         -1.2712  -28.2487  -44.9461 C.3       13 UNK        -0.1800 
     77 C          -1.0776  -27.7625  -47.4266 C.2       13 UNK         0.5000 
     78 O          -1.3857  -28.5419  -48.3285 O.2       13 UNK        -0.5000 
     79 N           0.0064  -26.9737  -47.4604 N.am      14 UNK        -0.5000 
     80 CA          1.0545  -27.0527  -48.4810 C.3       14 UNK         0.1400 
     81 CB          2.3111  -26.3290  -47.9707 C.3       14 UNK        -0.1800 
     82 C           0.6460  -26.5230  -49.8697 C.2       14 UNK         0.5000 
     83 O           1.2613  -26.9218  -50.8593 O.2       14 UNK        -0.5000 
     84 N          -0.3635  -25.6455  -49.9318 N.am      15 UNK        -0.5000 
     85 CA         -0.8510  -25.0200  -51.1620 C.3       15 UNK         0.1400 
     86 CB         -0.1820  -23.6448  -51.3446 C.3       15 UNK        -0.1800 
     87 C          -2.3883  -24.9509  -51.1856 C.2       15 UNK         0.5000 
     88 O          -2.9464  -24.0160  -51.7574 O.2       15 UNK        -0.5000 
     89 N          -3.0478  -25.9388  -50.5620 N.am      16 UNK        -0.5000 
     90 CA         -4.4939  -26.2158  -50.5303 C.3       16 UNK         0.1400 
     91 CB         -5.0191  -26.5281  -51.9447 C.3       16 UNK        -0.1800 
     92 C          -5.3900  -25.1611  -49.8444 C.2       16 UNK         0.5000 
     93 O          -6.3202  -25.5435  -49.1340 O.2       16 UNK        -0.5000 
     94 N          -5.1250  -23.8709  -50.0682 N.am      17 UNK        -0.5000 
     95 CA         -5.8498  -22.7416  -49.4823 C.3       17 UNK         0.1400 
     96 CB         -7.2295  -22.5671  -50.1521 C.3       17 UNK        -0.1800 
     97 C          -5.0212  -21.4441  -49.5207 C.2       17 UNK         0.5000 
     98 O          -5.5957  -20.3602  -49.4053 O.2       17 UNK        -0.5000 
     99 N          -3.6933  -21.5581  -49.6838 N.am      18 UNK        -0.5000 
    100 CA        -2.7315  -20.4546  -49.7627 C.3       18 UNK         0.1400 
    101 CB        -2.5781  -19.7998  -48.3690 C.3       18 UNK        -0.1800 
    102 C         -3.0898  -19.4588  -50.8873 C.2       18 UNK         0.5000 
    103 O         -3.2646  -19.8761  -52.0333 O.2       18 UNK        -0.5000 
    104 N         -3.2405  -18.1728  -50.5421 N.am      19 UNK        -0.5000 
    105 CA        -3.6164  -17.0870  -51.4484 C.3       19 UNK         0.1400 
    106 CB        -3.6071  -15.7611  -50.6713 C.3       19 UNK        -0.1800 
    107 C         -4.9782  -17.2871  -52.1426 C.2       19 UNK         0.5000 
    108 O         -5.1481  -16.8177  -53.2672 O.2       19 UNK        -0.5000 
    109 N         -5.9130  -17.9966  -51.4929 N.am      20 UNK        -0.5000 
    110 CA        -7.2279  -18.3087  -52.0583 C.3       20 UNK         0.1400 
    111 CB        -8.1926  -18.7115  -50.9337 C.3       20 UNK        -0.1800 
    112 C         -7.1707  -19.3916  -53.1540 C.2       20 UNK         0.5000 
    113 O         -8.0640  -19.4310  -54.0010 O.2       20 UNK        -0.5000 
    114 N         -6.1272  -20.2325  -53.1352 N.am      21 UNK        -0.5000 
    115 CA        -5.8411  -21.2057  -54.1873 C.3       21 UNK         0.1400 
    116 CB        -5.1625  -22.4429  -53.5806 C.3       21 UNK        -0.1800 
    117 C         -4.9531  -20.5821  -55.2752 C.2       21 UNK         0.5000 
    118 O         -5.2514  -20.7287  -56.4614 O.2       21 UNK        -0.5000 
    119 N         -3.8774  -19.9075  -54.8508 N.am      22 UNK        -0.5000 
    120 CA        -2.8730  -19.2982  -55.7349 C.3       22 UNK         0.1400 
    121 C         -3.3418  -18.0135  -56.4758 C.2       22 UNK         0.5000 
    122 N         -4.3127  -17.2616  -55.9746 N.am      22 UNK        -0.7600 
    123 O         -2.8161  -17.6967  -57.5393 O.2       22 UNK        -0.5000 
    124 C124       -1.5414  -19.0498  -54.9864 C.3       23 UNK        -0.0398 
    125 S125       -0.7340  -20.6115  -54.4951 S.3       23 UNK        -0.2404 
    126 C126        0.9265  -20.0221  -54.0422 C.3       23 UNK        -0.0205 
    127 H127        4.7467  -13.3685  -45.1375 H         1 UNK         0.0600 
    128 H128        3.3353  -14.0646  -44.3337 H         1 UNK         0.0600 
    129 H129        4.0962  -14.9121  -45.6871 H         1 UNK         0.0600 
    130 H130        2.5086  -14.8690  -47.3173 H         1 UNK         0.3000 
    131 H131        0.7180  -12.6737  -47.6760 H         1 UNK         0.0600 
    132 H132       -0.1321  -14.8438  -48.1605 H         1 UNK         0.0800 
    133 H133       -0.0942  -13.9902  -49.6744 H         1 UNK         0.0800 
    134 H134       -0.4966  -17.0902  -49.2753 H         1 UNK         0.0800 
    135 H135       -0.4764  -16.3784  -50.8756 H         1 UNK         0.0800 
    136 H136        0.1064  -17.7705  -52.7240 H         1 UNK         0.1150 
    137 H137        1.9936  -21.5617  -52.0792 H         1 UNK         0.1150 
    138 H138        1.3563  -18.8778  -48.7911 H         1 UNK         0.1150 
    139 H139        2.1593  -22.3872  -49.7405 H         1 UNK         0.0800 
    140 H140        3.5144  -21.2962  -49.5861 H         1 UNK         0.0800 
    141 H141       -0.0822  -21.5408  -48.5936 H         1 UNK         0.0800 
    142 H142       -0.1644  -20.7563  -47.0378 H         1 UNK         0.0800 
    143 H143        0.6154  -23.6662  -47.4516 H         1 UNK         0.0600 
    144 H144        0.7423  -22.0576  -45.1353 H         1 UNK         0.3000 
    145 H145        1.2842  -24.8483  -42.9187 H         1 UNK         0.0600 
    146 H146        3.4088  -23.5770  -42.6834 H         1 UNK         0.0600 
    147 H147        3.3736  -24.4461  -44.2105 H         1 UNK         0.0600 
    148 H148        3.0840  -22.7098  -44.1833 H         1 UNK         0.0600 
    149 H149        0.8531  -21.8841  -43.1515 H         1 UNK         0.3000 
    150 H150       -1.5922  -21.9946  -40.6289 H         1 UNK         0.0600 
    151 H151        0.4218  -21.6304  -39.1979 H         1 UNK         0.0600 
    152 H152       -0.3415  -20.1012  -39.6065 H         1 UNK         0.0600 
    153 H153        1.1325  -20.6003  -40.4351 H         1 UNK         0.0600 
    154 H154       -0.5467  -19.8090  -42.1006 H         1 UNK         0.3000 
    155 H155       -1.8217  -20.4440  -45.2677 H         1 UNK         0.0600 
    156 H156       -3.3799  -18.6849  -43.3096 H         1 UNK         0.0600 
    157 H157       -4.0591  -19.9355  -44.3437 H         1 UNK         0.0600 
    158 H158       -3.3563  -18.4952  -45.0634 H         1 UNK         0.0600 
    159 H159       -1.0990  -17.9592  -44.1326 H         1 UNK         0.3000 
    160 H160        2.4251  -18.3391  -44.0820 H         1 UNK         0.0600 
    161 H161        2.4066  -16.6497  -45.8989 H         1 UNK         0.0600 
    162 H162        0.7357  -17.0490  -46.2985 H         1 UNK         0.0600 
    163 H163        2.0160  -18.2314  -46.5458 H         1 UNK         0.0600 
    164 H164        0.7913  -16.0133  -44.0302 H         1 UNK         0.3000 
    165 H165       -0.4061  -16.1463  -40.7412 H         1 UNK         0.0600 
    166 H166        1.9877  -15.5772  -40.2421 H         1 UNK         0.0600 
    167 H167        2.0228  -14.5025  -41.6353 H         1 UNK         0.0600 
    168 H168        0.9704  -14.1468  -40.2650 H         1 UNK         0.0600 
    169 H169       -0.3518  -13.8843  -42.2795 H         1 UNK         0.3000 
    170 H170       -2.5213  -14.2459  -44.8152 H         1 UNK         0.0600 
    171 H171       -4.3796  -14.8703  -43.2857 H         1 UNK         0.0600 
    172 H172       -3.8084  -13.7213  -42.0819 H         1 UNK         0.0600 
    173 H173       -4.4212  -13.1504  -43.6345 H         1 UNK         0.0600 
    174 H174       -2.0810  -12.1511  -42.8197 H         1 UNK         0.3000 
    175 H175       -0.9222  -10.2956  -43.5946 H         1 UNK         0.0600 
    176 H176        1.6987  -11.8367  -43.1127 H         1 UNK         0.0600 
    177 H177        1.3437  -10.2229  -42.5011 H         1 UNK         0.0600 
    178 H178        0.4184  -11.5992  -41.9265 H         1 UNK         0.0600 
    179 H179        1.0837  -10.9968  -45.6678 H         1 UNK         0.3000 
    180 H180        0.8652   -7.6895  -47.0046 H         1 UNK         0.0600 
    181 H181        3.3122   -9.2474  -46.0193 H         1 UNK         0.0600 
    182 H182        2.8917   -7.6059  -45.5475 H         1 UNK         0.0600 
    183 H183        3.3155   -7.9520  -47.2165 H         1 UNK         0.0600 
    184 H184        2.0935  -10.0234  -48.0412 H         1 UNK         0.3000 
    185 H185       -0.4674  -11.7198  -49.3995 H         1 UNK         0.0600 
    186 H186       -1.2831   -9.8625  -50.8040 H         1 UNK         0.0600 
    187 H187        0.3662   -9.3535  -51.1440 H         1 UNK         0.0600 
    188 H188       -0.2236  -10.9078  -51.7329 H         1 UNK         0.0600 
    189 H189        2.1206  -10.8579  -50.4719 H         1 UNK         0.3000 
    190 H190       -1.9413  -23.1972  -45.1538 H         1 UNK         0.3000 
    191 H191       -4.0898  -23.7579  -47.0271 H         1 UNK         0.0600 
    192 H192       -3.9312  -24.1617  -43.9985 H         1 UNK         0.0600 
    193 H193       -5.3901  -24.2635  -44.9757 H         1 UNK         0.0600 
    194 H194       -4.5518  -22.7286  -44.8228 H         1 UNK         0.0600 
    195 H195       -1.5704  -25.6817  -45.5306 H         1 UNK         0.3000 
    196 H196       -2.8728  -28.2383  -46.3604 H         1 UNK         0.0600 
    197 H197       -0.3506  -27.7201  -44.6975 H         1 UNK         0.0600 
    198 H198       -1.0129  -29.2951  -45.1130 H         1 UNK         0.0600 
    199 H199       -1.9222  -28.2105  -44.0727 H         1 UNK         0.0600 
    200 H200        0.1925  -26.3656  -46.6667 H         1 UNK         0.3000 
    201 H201        1.3111  -28.1068  -48.6071 H         1 UNK         0.0600 
    202 H202        2.1450  -25.2606  -47.8431 H         1 UNK         0.0600 
    203 H203        3.1391  -26.4470  -48.6708 H         1 UNK         0.0600 
    204 H204        2.6379  -26.7331  -47.0123 H         1 UNK         0.0600 
    205 H205       -0.8243  -25.3427  -49.0816 H         1 UNK         0.3000 
    206 H206       -0.5820  -25.6372  -52.0213 H         1 UNK         0.0600 
    207 H207       -0.4997  -23.1667  -52.2723 H         1 UNK         0.0600 
    208 H208       -0.4263  -22.9678  -50.5272 H         1 UNK         0.0600 
    209 H209        0.9022  -23.7421  -51.3892 H         1 UNK         0.0600 
    210 H210       -2.4800  -26.6332  -50.0960 H         1 UNK         0.3000 
    211 H211       -4.5947  -27.1273  -49.9385 H         1 UNK         0.0600 
    212 H212       -4.9498  -25.6629  -52.6049 H         1 UNK         0.0600 
    213 H213       -6.0670  -26.8294  -51.9136 H         1 UNK         0.0600 
    214 H214       -4.4603  -27.3448  -52.4017 H         1 UNK         0.0600 
    215 H215       -4.3727  -23.6583  -50.7216 H         1 UNK         0.3000 
    216 H216       -6.0132  -22.9610  -48.4256 H         1 UNK         0.0600 
    217 H217       -7.8360  -21.8468  -49.6030 H         1 UNK         0.0600 
    218 H218       -7.7937  -23.4988  -50.1744 H         1 UNK         0.0600 
    219 H219       -7.1405  -22.2052  -51.1755 H         1 UNK         0.0600 
    220 H220       -3.2902  -22.4830  -49.7511 H         1 UNK         0.3000 
    221 H221       -1.7756  -20.8961  -50.0447 H         1 UNK         0.0600 
    222 H222       -3.4655  -19.2389  -48.0731 H         1 UNK         0.0600 
    223 H223       -2.4214  -20.5564  -47.6029 H         1 UNK         0.0600 
    224 H224       -1.7239  -19.1224  -48.3398 H         1 UNK         0.0600 
    225 H225       -3.1281  -17.9258  -49.5704 H         1 UNK         0.3000 
    226 H226       -2.8555  -17.0336  -52.2296 H         1 UNK         0.0600 
    227 H227       -2.6328  -15.5618  -50.2266 H         1 UNK         0.0600 
    228 H228       -3.8388  -14.9224  -51.3293 H         1 UNK         0.0600 
    229 H229       -4.3463  -15.7616  -49.8692 H         1 UNK         0.0600 
    230 H230       -5.6938  -18.4070  -50.5931 H         1 UNK         0.3000 
    231 H231       -7.6233  -17.4017  -52.5208 H         1 UNK         0.0600 
    232 H232       -8.2667  -17.9301  -50.1774 H         1 UNK         0.0600 
    233 H233       -7.8764  -19.6280  -50.4393 H         1 UNK         0.0600 
    234 H234       -9.1964  -18.8823  -51.3246 H         1 UNK         0.0600 
    235 H235       -5.4079  -20.0994  -52.4358 H         1 UNK         0.3000 
    236 H236       -6.7712  -21.5339  -54.6563 H         1 UNK         0.0600 
    237 H237       -4.8685  -23.1505  -54.3567 H         1 UNK         0.0600 
    238 H238       -4.2626  -22.1735  -53.0283 H         1 UNK         0.0600 
    239 H239       -5.8282  -22.9730  -52.9016 H         1 UNK         0.0600 
    240 H240       -3.6748  -19.8747  -53.8547 H         1 UNK         0.3000 
    241 H241       -2.6646  -20.0234  -56.5245 H         1 UNK         0.0600 
    242 H242       -4.6028  -16.4402  -56.4803 H         1 UNK         0.3800 
    243 H243       -4.7009  -17.4329  -55.0529 H         1 UNK         0.3800 
    244 H244       -0.8455  -18.4960  -55.6192 H         1 UNK         0.0800 
    245 H245       -1.7122  -18.4388  -54.0994 H         1 UNK         0.0800 
    246 H246        1.6487  -20.7955  -54.3079 H         1 UNK         0.0800 
    247 H247        1.1991  -19.1459  -54.6319 H         1 UNK         0.0800 
@<TRIPOS>BOND
     1    1    2 1    
     2    1  127 1    
     3    1  128 1    
     4    1  129 1    
     5    2    3 2    
     6    2    4 am   BACKBONE|DICT|INTERRES
     7    4    5 1    
     8    4  130 1    
     9    5    6 1    
    10    5   65 1    
    11    5  131 1    
    12    6    7 1    
    13    6  132 1    
    14    6  133 1    
    15    7    8 1    
    16    8    9 1    
    17    8  134 1    
    18    8  135 1    
    19    9   10 ar   
    20    9   14 ar   
    21   10   11 ar   
    22   10  136 1    
    23   11   12 ar   
    24   11  126 1    
    25   12   13 ar   
    26   12  137 1    
    27   13   14 ar   
    28   13   15 1    
    29   14  138 1    
    30   15   16 1    
    31   15  139 1    
    32   15  140 1    
    33   16   17 1    
    34   17   18 1    
    35   17  141 1    
    36   17  142 1    
    37   18   19 1    
    38   18   67 1    
    39   18  143 1    
    40   19   20 am   BACKBONE|DICT|INTERRES
    41   19  144 1    
    42   20   21 2    
    43   20   22 1    
    44   22   23 1    
    45   22   24 1    
    46   22  145 1    
    47   23  146 1    
    48   23  147 1    
    49   23  148 1    
    50   24   25 am   BACKBONE|DICT|INTERRES
    51   24  149 1    
    52   25   26 2    
    53   25   27 1    
    54   27   28 1    
    55   27   29 1    
    56   27  150 1    
    57   28  151 1    
    58   28  152 1    
    59   28  153 1    
    60   29   30 am   BACKBONE|DICT|INTERRES
    61   29  154 1    
    62   30   31 2    
    63   30   32 1    
    64   32   33 1    
    65   32   34 1    
    66   32  155 1    
    67   33  156 1    
    68   33  157 1    
    69   33  158 1    
    70   34   35 am   BACKBONE|DICT|INTERRES
    71   34  159 1    
    72   35   36 2    
    73   35   37 1    
    74   37   38 1    
    75   37   39 1    
    76   37  160 1    
    77   38  161 1    
    78   38  162 1    
    79   38  163 1    
    80   39   40 am   BACKBONE|DICT|INTERRES
    81   39  164 1    
    82   40   41 2    
    83   40   42 1    
    84   42   43 1    
    85   42   44 1    
    86   42  165 1    
    87   43  166 1    
    88   43  167 1    
    89   43  168 1    
    90   44   45 am   BACKBONE|DICT|INTERRES
    91   44  169 1    
    92   45   46 2    
    93   45   47 1    
    94   47   48 1    
    95   47   49 1    
    96   47  170 1    
    97   48  171 1    
    98   48  172 1    
    99   48  173 1    
   100   49   50 am   BACKBONE|DICT|INTERRES
   101   49  174 1    
   102   50   51 2    
   103   50   52 1    
   104   52   53 1    
   105   52   54 1    
   106   52  175 1    
   107   53  176 1    
   108   53  177 1    
   109   53  178 1    
   110   54   55 am   BACKBONE|DICT|INTERRES
   111   54  179 1    
   112   55   56 2    
   113   55   57 1    
   114   57   58 1    
   115   57   59 1    
   116   57  180 1    
   117   58  181 1    
   118   58  182 1    
   119   58  183 1    
   120   59   60 am   BACKBONE|DICT|INTERRES
   121   59  184 1    
   122   60   61 2    
   123   60   62 1    
   124   62   63 1    
   125   62   64 1    
   126   62  185 1    
   127   63  186 1    
   128   63  187 1    
   129   63  188 1    
   130   64   65 am   BACKBONE|DICT|INTERRES
   131   64  189 1    
   132   65   66 2    
   133   67   68 2    
   134   67   69 am   BACKBONE|DICT|INTERRES
   135   69   70 1    
   136   69  190 1    
   137   70   71 1    
   138   70   72 1    
   139   70  191 1    
   140   71  192 1    
   141   71  193 1    
   142   71  194 1    
   143   72   73 2    
   144   72   74 am   BACKBONE|DICT|INTERRES
   145   74   75 1    
   146   74  195 1    
   147   75   76 1    
   148   75   77 1    
   149   75  196 1    
   150   76  197 1    
   151   76  198 1    
   152   76  199 1    
   153   77   78 2    
   154   77   79 am   BACKBONE|DICT|INTERRES
   155   79   80 1    
   156   79  200 1    
   157   80   81 1    
   158   80   82 1    
   159   80  201 1    
   160   81  202 1    
   161   81  203 1    
   162   81  204 1    
   163   82   83 2    
   164   82   84 am   BACKBONE|DICT|INTERRES
   165   84   85 1    
   166   84  205 1    
   167   85   86 1    
   168   85   87 1    
   169   85  206 1    
   170   86  207 1    
   171   86  208 1    
   172   86  209 1    
   173   87   88 2    
   174   87   89 am   BACKBONE|DICT|INTERRES
   175   89   90 1    
   176   89  210 1    
   177   90   91 1    
   178   90   92 1    
   179   90  211 1    
   180   91  212 1    
   181   91  213 1    
   182   91  214 1    
   183   92   93 2    
   184   92   94 am   BACKBONE|DICT|INTERRES
   185   94   95 1    
   186   94  215 1    
   187   95   96 1    
   188   95   97 1    
   189   95  216 1    
   190   96  217 1    
   191   96  218 1    
   192   96  219 1    
   193   97   98 2    
   194   97   99 am   BACKBONE|DICT|INTERRES
   195   99  100 1    
   196   99  220 1    
   197  100  101 1    
   198  100  102 1    
   199  100  221 1    
   200  101  222 1    
   201  101  223 1    
   202  101  224 1    
   203  102  103 2    
   204  102  104 am   BACKBONE|DICT|INTERRES
   205  104  105 1    
   206  104  225 1    
   207  105  106 1    
   208  105  107 1    
   209  105  226 1    
   210  106  227 1    
   211  106  228 1    
   212  106  229 1    
   213  107  108 2    
   214  107  109 am   BACKBONE|DICT|INTERRES
   215  109  110 1    
   216  109  230 1    
   217  110  111 1    
   218  110  112 1    
   219  110  231 1    
   220  111  232 1    
   221  111  233 1    
   222  111  234 1    
   223  112  113 2    
   224  112  114 am   BACKBONE|DICT|INTERRES
   225  114  115 1    
   226  114  235 1    
   227  115  116 1    
   228  115  117 1    
   229  115  236 1    
   230  116  237 1    
   231  116  238 1    
   232  116  239 1    
   233  117  118 2    
   234  117  119 am   BACKBONE|DICT|INTERRES
   235  119  120 1    
   236  119  240 1    
   237  120  121 1    
   238  120  124 1    
   239  120  241 1    
   240  121  122 am   BACKBONE|DICT|INTERRES
   241  121  123 2    
   242  122  242 1    
   243  122  243 1    
   244  124  125 1    
   245  124  244 1    
   246  124  245 1    
   247  125  126 1    
   248  126  246 1    
   249  126  247 1    
@<TRIPOS>SUBSTRUCTURE
     1 UNK         1 GROUP             0       ****    0 ROOT    
