@<TRIPOS>MOLECULE
3R540
247   249    1
SMALL
USER_CHARGES


@<TRIPOS>ATOM
      1 CA          3.9403  -14.7384  -47.7028 C.3       0 UNK        -0.1800 
      2 C           2.4264  -14.8894  -47.6989 C.2       0 UNK         0.5000 
      3 O           1.8064  -14.8018  -46.6410 O.2       0 UNK        -0.5000 
      4 N           1.8288  -15.1272  -48.8727 N.am      1 UNK        -0.5000 
      5 CA          0.3857  -15.2941  -49.0673 C.3       1 UNK         0.1400 
      6 C6          0.0672  -16.0474  -50.3830 C.3       23 UNK        -0.0398 
      7 S7          0.3026  -17.8418  -50.1804 S.3       23 UNK        -0.2404 
      8 C8          1.7146  -18.2043  -51.2627 C.3       23 UNK        -0.0205 
      9 C9          1.8605  -19.7072  -51.4552 C.ar      23 UNK        -0.0193 
     10 C10         1.1902  -20.3439  -52.5032 C.ar      23 UNK        -0.1150 
     11 C11         1.2957  -21.7251  -52.6869 C.ar      23 UNK        -0.0193 
     12 C12         2.0962  -22.4707  -51.8177 C.ar      23 UNK        -0.1150 
     13 C13         2.7811  -21.8479  -50.7702 C.ar      23 UNK        -0.0193 
     14 C14         2.6555  -20.4655  -50.5896 C.ar      23 UNK        -0.1150 
     15 C15         3.6734  -22.6735  -49.8537 C.3       23 UNK        -0.0205 
     16 S16         2.7148  -23.6730  -48.6722 S.3       23 UNK        -0.2404 
     17 C17         2.1229  -22.3758  -47.5424 C.3       23 UNK        -0.0398 
     18 CA          1.1840  -22.9157  -46.4276 C.3       11 UNK         0.1400 
     19 N           1.3831  -22.1711  -45.1836 N.am      11 UNK        -0.5000 
     20 C           2.3029  -22.4511  -44.2519 C.2       10 UNK         0.5000 
     21 O           2.9615  -23.4918  -44.2252 O.2       10 UNK        -0.5000 
     22 CA          2.5410  -21.3388  -43.2079 C.3       10 UNK         0.1400 
     23 CB          3.8537  -21.5040  -42.4158 C.3       10 UNK        -0.1800 
     24 N           2.4523  -20.0058  -43.8173 N.am      10 UNK        -0.5000 
     25 C           3.2110  -19.5148  -44.8119 C.2       9 UNK         0.5000 
     26 O           4.2098  -20.0714  -45.2676 O.2       9 UNK        -0.5000 
     27 CA          2.7391  -18.1922  -45.4319 C.3       9 UNK         0.1400 
     28 CB          1.6910  -18.4636  -46.5271 C.3       9 UNK        -0.1800 
     29 N           2.1767  -17.3041  -44.4144 N.am      9 UNK        -0.5000 
     30 C           2.8976  -16.3957  -43.7437 C.2       8 UNK         0.5000 
     31 O           4.1025  -16.2079  -43.9201 O.2       8 UNK        -0.5000 
     32 CA          2.1523  -15.5623  -42.6887 C.3       8 UNK         0.1400 
     33 CB          1.1884  -14.5664  -43.3464 C.3       8 UNK        -0.1800 
     34 N           1.4106  -16.3834  -41.7356 N.am      8 UNK        -0.5000 
     35 C           1.9688  -17.0908  -40.7444 C.2       7 UNK         0.5000 
     36 O           3.1839  -17.2046  -40.5814 O.2       7 UNK        -0.5000 
     37 CA          1.0074  -17.7647  -39.7534 C.3       7 UNK         0.1400 
     38 CB          0.4165  -16.7271  -38.7846 C.3       7 UNK        -0.1800 
     39 N          -0.0833  -18.4372  -40.4544 N.am      7 UNK        -0.5000 
     40 C          -0.1665  -19.7608  -40.6379 C.2       6 UNK         0.5000 
     41 O           0.6543  -20.5661  -40.1982 O.2       6 UNK        -0.5000 
     42 CA         -1.3640  -20.2885  -41.4533 C.3       6 UNK         0.1400 
     43 CB         -2.4518  -20.8399  -40.5199 C.3       6 UNK        -0.1800 
     44 N          -1.9652  -19.2915  -42.3399 N.am      6 UNK        -0.5000 
     45 C          -1.3719  -18.7759  -43.4234 C.2       5 UNK         0.5000 
     46 O          -0.2374  -19.0786  -43.7915 O.2       5 UNK        -0.5000 
     47 CA         -2.1752  -17.7284  -44.2137 C.3       5 UNK         0.1400 
     48 CB         -3.1172  -18.4442  -45.1922 C.3       5 UNK        -0.1800 
     49 N          -2.9668  -16.8071  -43.3909 N.am      5 UNK        -0.5000 
     50 C          -2.5264  -16.0788  -42.3567 C.2       4 UNK         0.5000 
     51 O          -1.3885  -16.1631  -41.8904 O.2       4 UNK        -0.5000 
     52 CA         -3.5293  -15.0805  -41.7518 C.3       4 UNK         0.1400 
     53 CB         -3.3192  -14.9130  -40.2368 C.3       4 UNK        -0.1800 
     54 N          -3.4078  -13.7730  -42.3931 N.am      4 UNK        -0.5000 
     55 C          -3.8345  -13.4634  -43.6253 C.2       3 UNK         0.5000 
     56 O          -4.4479  -14.2510  -44.3489 O.2       3 UNK        -0.5000 
     57 CA         -3.5617  -12.0270  -44.1343 C.3       3 UNK         0.1400 
     58 CB         -2.7014  -11.1684  -43.1779 C.3       3 UNK        -0.1800 
     59 N          -2.9901  -12.0018  -45.4870 N.am      3 UNK        -0.5000 
     60 C          -1.8569  -12.5981  -45.8814 C.2       2 UNK         0.5000 
     61 O          -1.1413  -13.2753  -45.1410 O.2       2 UNK        -0.5000 
     62 CA         -1.4330  -12.3822  -47.3418 C.3       2 UNK         0.1400 
     63 CB         -0.6501  -11.0671  -47.5028 C.3       2 UNK        -0.1800 
     64 N          -0.6017  -13.5130  -47.7302 N.am      2 UNK        -0.5000 
     65 C          -0.3481  -13.9401  -48.9690 C.2       1 UNK         0.5000 
     66 O          -0.6732  -13.3295  -49.9884 O.2       1 UNK        -0.5000 
     67 C          -0.3042  -22.8940  -46.8379 C.2       11 UNK         0.5000 
     68 O          -0.6176  -23.0659  -48.0157 O.2       11 UNK        -0.5000 
     69 N          -1.2007  -22.6555  -45.8664 N.am      12 UNK        -0.5000 
     70 CA         -2.6248  -22.3576  -46.0545 C.3       12 UNK         0.1400 
     71 CB         -3.2862  -22.1743  -44.6807 C.3       12 UNK        -0.1800 
     72 C          -3.4115  -23.3842  -46.8887 C.2       12 UNK         0.5000 
     73 O          -4.2962  -22.9851  -47.6465 O.2       12 UNK        -0.5000 
     74 N          -3.0651  -24.6703  -46.7506 N.am      13 UNK        -0.5000 
     75 CA         -3.6883  -25.7771  -47.4773 C.3       13 UNK         0.1400 
     76 CB         -3.3045  -27.1027  -46.8024 C.3       13 UNK        -0.1800 
     77 C          -3.3204  -25.8063  -48.9729 C.2       13 UNK         0.5000 
     78 O          -4.1673  -26.1579  -49.7943 O.2       13 UNK        -0.5000 
     79 N          -2.0759  -25.4334  -49.3009 N.am      14 UNK        -0.5000 
     80 CA         -1.5757  -25.3593  -50.6753 C.3       14 UNK         0.1400 
     81 CB         -0.0524  -25.5488  -50.6753 C.3       14 UNK        -0.1800 
     82 C          -1.9466  -24.0226  -51.3348 C.2       14 UNK         0.5000 
     83 O          -2.2560  -23.9920  -52.5248 O.2       14 UNK        -0.5000 
     84 N          -1.9155  -22.9458  -50.5411 N.am      15 UNK        -0.5000 
     85 CA         -2.2605  -21.5892  -50.9497 C.3       15 UNK         0.1400 
     86 CB         -1.7294  -20.6179  -49.8908 C.3       15 UNK        -0.1800 
     87 C          -3.7683  -21.3611  -51.1400 C.2       15 UNK         0.5000 
     88 O          -4.1368  -20.3884  -51.7971 O.2       15 UNK        -0.5000 
     89 N          -4.5996  -22.2156  -50.5282 N.am      16 UNK        -0.5000 
     90 CA         -6.0559  -22.1009  -50.4132 C.3       16 UNK         0.1400 
     91 CB         -6.7381  -22.2098  -51.7916 C.3       16 UNK        -0.1800 
     92 C          -6.4491  -20.8301  -49.6335 C.2       16 UNK         0.5000 
     93 O          -7.1929  -19.9889  -50.1394 O.2       16 UNK        -0.5000 
     94 N          -5.8974  -20.7147  -48.4165 N.am      17 UNK        -0.5000 
     95 CA         -6.0838  -19.6195  -47.4582 C.3       17 UNK         0.1400 
     96 CB         -7.5317  -19.6005  -46.9262 C.3       17 UNK        -0.1800 
     97 C          -5.6206  -18.2550  -48.0133 C.2       17 UNK         0.5000 
     98 O          -6.3819  -17.2868  -48.0095 O.2       17 UNK        -0.5000 
     99 N          -4.3635  -18.2212  -48.4816 N.am      18 UNK        -0.5000 
    100 CA        -3.6423  -17.0542  -49.0116 C.3       18 UNK         0.1400 
    101 CB        -3.4448  -15.9582  -47.9381 C.3       18 UNK        -0.1800 
    102 C         -4.1881  -16.5018  -50.3462 C.2       18 UNK         0.5000 
    103 O         -3.8424  -15.3823  -50.7252 O.2       18 UNK        -0.5000 
    104 N         -4.9715  -17.3073  -51.0778 N.am      19 UNK        -0.5000 
    105 CA        -5.3654  -17.0228  -52.4623 C.3       19 UNK         0.1400 
    106 CB        -6.5418  -17.9328  -52.8463 C.3       19 UNK        -0.1800 
    107 C         -4.1962  -17.2087  -53.4533 C.2       19 UNK         0.5000 
    108 O         -4.2271  -16.6432  -54.5464 O.2       19 UNK        -0.5000 
    109 N         -3.2035  -18.0103  -53.0406 N.am      20 UNK        -0.5000 
    110 CA        -2.0295  -18.4733  -53.7796 C.3       20 UNK         0.1400 
    111 CB        -1.1030  -17.3032  -54.1658 C.3       20 UNK        -0.1800 
    112 C         -2.4073  -19.3855  -54.9636 C.2       20 UNK         0.5000 
    113 O         -1.7478  -19.3673  -56.0043 O.2       20 UNK        -0.5000 
    114 N         -3.4699  -20.1795  -54.7785 N.am      21 UNK        -0.5000 
    115 CA        -4.0414  -21.0797  -55.7779 C.3       21 UNK         0.1400 
    116 CB        -5.5413  -21.2496  -55.4798 C.3       21 UNK        -0.1800 
    117 C         -3.2856  -22.4228  -55.8267 C.2       21 UNK         0.5000 
    118 O         -3.8719  -23.4724  -55.5559 O.2       21 UNK        -0.5000 
    119 N         -1.9895  -22.3569  -56.1552 N.am      22 UNK        -0.5000 
    120 CA        -1.0832  -23.5067  -56.2977 C.3       22 UNK         0.1400 
    121 C         -1.5508  -24.5260  -57.3767 C.2       22 UNK         0.5000 
    122 N         -1.3890  -25.8194  -57.1318 N.am      22 UNK        -0.7600 
    123 O         -2.0118  -24.1523  -58.4535 O.2       22 UNK        -0.5000 
    124 C124        0.3687  -23.0538  -56.6108 C.3       23 UNK        -0.0398 
    125 S125        1.1413  -21.8720  -55.4472 S.3       23 UNK        -0.2404 
    126 C126        0.5407  -22.4106  -53.8162 C.3       23 UNK        -0.0205 
    127 H127        4.2165  -13.7328  -47.3861 H         1 UNK         0.0600 
    128 H128        4.3879  -15.4497  -47.0084 H         1 UNK         0.0600 
    129 H129        4.3638  -14.9149  -48.6918 H         1 UNK         0.0600 
    130 H130        2.3897  -15.1667  -49.7109 H         1 UNK         0.3000 
    131 H131        0.0001  -15.9019  -48.2450 H         1 UNK         0.0600 
    132 H132       -0.9759  -15.9074  -50.6731 H         1 UNK         0.0800 
    133 H133        0.6623  -15.6661  -51.2141 H         1 UNK         0.0800 
    134 H134        1.5727  -17.7191  -52.2296 H         1 UNK         0.0800 
    135 H135        2.6236  -17.7842  -50.8299 H         1 UNK         0.0800 
    136 H136        0.5935  -19.7627  -53.1880 H         1 UNK         0.1150 
    137 H137        2.1899  -23.5390  -51.9527 H         1 UNK         0.1150 
    138 H138        3.1770  -19.9783  -49.7779 H         1 UNK         0.1150 
    139 H139        4.2862  -23.3417  -50.4604 H         1 UNK         0.0800 
    140 H140        4.3703  -22.0336  -49.3102 H         1 UNK         0.0800 
    141 H141        3.0158  -21.9274  -47.1041 H         1 UNK         0.0800 
    142 H142        1.6464  -21.5760  -48.1123 H         1 UNK         0.0800 
    143 H143        1.4190  -23.9648  -46.2367 H         1 UNK         0.0600 
    144 H144        0.8980  -21.2867  -45.1177 H         1 UNK         0.3000 
    145 H145        1.7165  -21.4111  -42.4996 H         1 UNK         0.0600 
    146 H146        3.9791  -20.6967  -41.6940 H         1 UNK         0.0600 
    147 H147        3.8561  -22.4409  -41.8579 H         1 UNK         0.0600 
    148 H148        4.7266  -21.5104  -43.0688 H         1 UNK         0.0600 
    149 H149        1.6154  -19.4816  -43.5794 H         1 UNK         0.3000 
    150 H150        3.5974  -17.7130  -45.9077 H         1 UNK         0.0600 
    151 H151        2.1255  -19.0391  -47.3455 H         1 UNK         0.0600 
    152 H152        1.3126  -17.5363  -46.9532 H         1 UNK         0.0600 
    153 H153        0.8358  -19.0259  -46.1543 H         1 UNK         0.0600 
    154 H154        1.2002  -17.4292  -44.1865 H         1 UNK         0.3000 
    155 H155        2.8955  -14.9856  -42.1338 H         1 UNK         0.0600 
    156 H156        0.4110  -15.0781  -43.9149 H         1 UNK         0.0600 
    157 H157        1.7158  -13.9055  -44.0351 H         1 UNK         0.0600 
    158 H158        0.6965  -13.9377  -42.6041 H         1 UNK         0.0600 
    159 H159        0.3958  -16.3223  -41.7874 H         1 UNK         0.3000 
    160 H160        1.5841  -18.4800  -39.1632 H         1 UNK         0.0600 
    161 H161       -0.2213  -17.2044  -38.0406 H         1 UNK         0.0600 
    162 H162       -0.1821  -15.9788  -39.3058 H         1 UNK         0.0600 
    163 H163        1.2061  -16.2007  -38.2469 H         1 UNK         0.0600 
    164 H164       -0.7751  -17.8375  -40.8891 H         1 UNK         0.3000 
    165 H165       -0.9975  -21.1109  -42.0714 H         1 UNK         0.0600 
    166 H166       -3.2657  -21.2923  -41.0869 H         1 UNK         0.0600 
    167 H167       -2.0490  -21.6107  -39.8614 H         1 UNK         0.0600 
    168 H168       -2.8745  -20.0570  -39.8890 H         1 UNK         0.0600 
    169 H169       -2.8930  -18.9723  -42.1026 H         1 UNK         0.3000 
    170 H170       -1.4684  -17.1236  -44.7854 H         1 UNK         0.0600 
    171 H171       -2.5533  -18.9891  -45.9502 H         1 UNK         0.0600 
    172 H172       -3.7656  -19.1566  -44.6810 H         1 UNK         0.0600 
    173 H173       -3.7648  -17.7360  -45.7049 H         1 UNK         0.0600 
    174 H174       -3.9013  -16.6146  -43.7244 H         1 UNK         0.3000 
    175 H175       -4.5403  -15.4621  -41.9101 H         1 UNK         0.0600 
    176 H176       -2.3440  -14.4814  -40.0067 H         1 UNK         0.0600 
    177 H177       -4.0814  -14.2655  -39.8031 H         1 UNK         0.0600 
    178 H178       -3.3805  -15.8745  -39.7253 H         1 UNK         0.0600 
    179 H179       -2.8835  -13.0771  -41.8839 H         1 UNK         0.3000 
    180 H180       -4.5396  -11.5496  -44.2095 H         1 UNK         0.0600 
    181 H181       -1.7121  -11.5991  -43.0176 H         1 UNK         0.0600 
    182 H182       -3.1808  -11.0545  -42.2049 H         1 UNK         0.0600 
    183 H183       -2.5603  -10.1645  -43.5788 H         1 UNK         0.0600 
    184 H184       -3.5278  -11.4905  -46.1724 H         1 UNK         0.3000 
    185 H185       -2.3264  -12.3629  -47.9695 H         1 UNK         0.0600 
    186 H186       -1.2518  -10.2123  -47.1918 H         1 UNK         0.0600 
    187 H187        0.2585  -11.0675  -46.8993 H         1 UNK         0.0600 
    188 H188       -0.3622  -10.8998  -48.5407 H         1 UNK         0.0600 
    189 H189       -0.2253  -14.0327  -46.9413 H         1 UNK         0.3000 
    190 H190       -0.8567  -22.5909  -44.9199 H         1 UNK         0.3000 
    191 H191       -2.6814  -21.4058  -46.5849 H         1 UNK         0.0600 
    192 H192       -3.2557  -23.0932  -44.0940 H         1 UNK         0.0600 
    193 H193       -4.3330  -21.8851  -44.7844 H         1 UNK         0.0600 
    194 H194       -2.7912  -21.3958  -44.1028 H         1 UNK         0.0600 
    195 H195       -2.3218  -24.9028  -46.1086 H         1 UNK         0.3000 
    196 H196       -4.7723  -25.6626  -47.4064 H         1 UNK         0.0600 
    197 H197       -3.7729  -27.9482  -47.3081 H         1 UNK         0.0600 
    198 H198       -3.6324  -27.1254  -45.7629 H         1 UNK         0.0600 
    199 H199       -2.2263  -27.2666  -46.8188 H         1 UNK         0.0600 
    200 H200       -1.4609  -25.0887  -48.5758 H         1 UNK         0.3000 
    201 H201       -2.0170  -26.1646  -51.2667 H         1 UNK         0.0600 
    202 H202        0.2293  -26.5024  -50.2289 H         1 UNK         0.0600 
    203 H203        0.4455  -24.7559  -50.1181 H         1 UNK         0.0600 
    204 H204        0.3435  -25.5328  -51.6915 H         1 UNK         0.0600 
    205 H205       -1.5673  -23.0539  -49.5909 H         1 UNK         0.3000 
    206 H206       -1.7692  -21.3715  -51.8987 H         1 UNK         0.0600 
    207 H207       -1.9657  -19.5893  -50.1592 H         1 UNK         0.0600 
    208 H208       -0.6457  -20.6958  -49.7971 H         1 UNK         0.0600 
    209 H209       -2.1634  -20.8118  -48.9102 H         1 UNK         0.0600 
    210 H210       -4.1808  -22.9444  -49.9659 H         1 UNK         0.3000 
    211 H211       -6.3852  -22.9516  -49.8147 H         1 UNK         0.0600 
    212 H212       -6.5385  -21.3377  -52.4125 H         1 UNK         0.0600 
    213 H213       -7.8202  -22.2861  -51.6819 H         1 UNK         0.0600 
    214 H214       -6.4003  -23.0940  -52.3321 H         1 UNK         0.0600 
    215 H215       -5.3022  -21.4805  -48.1068 H         1 UNK         0.3000 
    216 H216       -5.4331  -19.8422  -46.6116 H         1 UNK         0.0600 
    217 H217       -7.6467  -18.8576  -46.1360 H         1 UNK         0.0600 
    218 H218       -7.8088  -20.5669  -46.5050 H         1 UNK         0.0600 
    219 H219       -8.2506  -19.3577  -47.7093 H         1 UNK         0.0600 
    220 H220       -3.8410  -19.0841  -48.4687 H         1 UNK         0.3000 
    221 H221       -2.6457  -17.4186  -49.2613 H         1 UNK         0.0600 
    222 H222       -4.3833  -15.6527  -47.4765 H         1 UNK         0.0600 
    223 H223       -2.7734  -16.2954  -47.1502 H         1 UNK         0.0600 
    224 H224       -2.9943  -15.0597  -48.3571 H         1 UNK         0.0600 
    225 H225       -5.2401  -18.2085  -50.7062 H         1 UNK         0.3000 
    226 H226       -5.6990  -15.9851  -52.5275 H         1 UNK         0.0600 
    227 H227       -7.3875  -17.7905  -52.1732 H         1 UNK         0.0600 
    228 H228       -6.8890  -17.7180  -53.8576 H         1 UNK         0.0600 
    229 H229       -6.2626  -18.9858  -52.8128 H         1 UNK         0.0600 
    230 H230       -3.3721  -18.4971  -52.1692 H         1 UNK         0.3000 
    231 H231       -1.4893  -19.1042  -53.0758 H         1 UNK         0.0600 
    232 H232       -0.8569  -16.6934  -53.2967 H         1 UNK         0.0600 
    233 H233       -1.5588  -16.6547  -54.9141 H         1 UNK         0.0600 
    234 H234       -0.1637  -17.6703  -54.5807 H         1 UNK         0.0600 
    235 H235       -3.9181  -20.1738  -53.8689 H         1 UNK         0.3000 
    236 H236       -3.9531  -20.6194  -56.7644 H         1 UNK         0.0600 
    237 H237       -6.0264  -21.8503  -56.2500 H         1 UNK         0.0600 
    238 H238       -5.7033  -21.7483  -54.5251 H         1 UNK         0.0600 
    239 H239       -6.0517  -20.2867  -55.4479 H         1 UNK         0.0600 
    240 H240       -1.5926  -21.4436  -56.3436 H         1 UNK         0.3000 
    241 H241       -1.0886  -24.0280  -55.3393 H         1 UNK         0.0600 
    242 H242       -1.6727  -26.4884  -57.8310 H         1 UNK         0.3800 
    243 H243       -1.0082  -26.1512  -56.2590 H         1 UNK         0.3800 
    244 H244        1.0244  -23.9251  -56.6574 H         1 UNK         0.0800 
    245 H245        0.4105  -22.5994  -57.6025 H         1 UNK         0.0800 
    246 H246        0.6372  -23.4942  -53.7339 H         1 UNK         0.0800 
    247 H247       -0.5211  -22.1816  -53.7279 H         1 UNK         0.0800 
@<TRIPOS>BOND
     1    1    2 1    
     2    1  127 1    
     3    1  128 1    
     4    1  129 1    
     5    2    3 2    
     6    2    4 am   BACKBONE|DICT|INTERRES
     7    4    5 1    
     8    4  130 1    
     9    5    6 1    
    10    5   65 1    
    11    5  131 1    
    12    6    7 1    
    13    6  132 1    
    14    6  133 1    
    15    7    8 1    
    16    8    9 1    
    17    8  134 1    
    18    8  135 1    
    19    9   10 ar   
    20    9   14 ar   
    21   10   11 ar   
    22   10  136 1    
    23   11   12 ar   
    24   11  126 1    
    25   12   13 ar   
    26   12  137 1    
    27   13   14 ar   
    28   13   15 1    
    29   14  138 1    
    30   15   16 1    
    31   15  139 1    
    32   15  140 1    
    33   16   17 1    
    34   17   18 1    
    35   17  141 1    
    36   17  142 1    
    37   18   19 1    
    38   18   67 1    
    39   18  143 1    
    40   19   20 am   BACKBONE|DICT|INTERRES
    41   19  144 1    
    42   20   21 2    
    43   20   22 1    
    44   22   23 1    
    45   22   24 1    
    46   22  145 1    
    47   23  146 1    
    48   23  147 1    
    49   23  148 1    
    50   24   25 am   BACKBONE|DICT|INTERRES
    51   24  149 1    
    52   25   26 2    
    53   25   27 1    
    54   27   28 1    
    55   27   29 1    
    56   27  150 1    
    57   28  151 1    
    58   28  152 1    
    59   28  153 1    
    60   29   30 am   BACKBONE|DICT|INTERRES
    61   29  154 1    
    62   30   31 2    
    63   30   32 1    
    64   32   33 1    
    65   32   34 1    
    66   32  155 1    
    67   33  156 1    
    68   33  157 1    
    69   33  158 1    
    70   34   35 am   BACKBONE|DICT|INTERRES
    71   34  159 1    
    72   35   36 2    
    73   35   37 1    
    74   37   38 1    
    75   37   39 1    
    76   37  160 1    
    77   38  161 1    
    78   38  162 1    
    79   38  163 1    
    80   39   40 am   BACKBONE|DICT|INTERRES
    81   39  164 1    
    82   40   41 2    
    83   40   42 1    
    84   42   43 1    
    85   42   44 1    
    86   42  165 1    
    87   43  166 1    
    88   43  167 1    
    89   43  168 1    
    90   44   45 am   BACKBONE|DICT|INTERRES
    91   44  169 1    
    92   45   46 2    
    93   45   47 1    
    94   47   48 1    
    95   47   49 1    
    96   47  170 1    
    97   48  171 1    
    98   48  172 1    
    99   48  173 1    
   100   49   50 am   BACKBONE|DICT|INTERRES
   101   49  174 1    
   102   50   51 2    
   103   50   52 1    
   104   52   53 1    
   105   52   54 1    
   106   52  175 1    
   107   53  176 1    
   108   53  177 1    
   109   53  178 1    
   110   54   55 am   BACKBONE|DICT|INTERRES
   111   54  179 1    
   112   55   56 2    
   113   55   57 1    
   114   57   58 1    
   115   57   59 1    
   116   57  180 1    
   117   58  181 1    
   118   58  182 1    
   119   58  183 1    
   120   59   60 am   BACKBONE|DICT|INTERRES
   121   59  184 1    
   122   60   61 2    
   123   60   62 1    
   124   62   63 1    
   125   62   64 1    
   126   62  185 1    
   127   63  186 1    
   128   63  187 1    
   129   63  188 1    
   130   64   65 am   BACKBONE|DICT|INTERRES
   131   64  189 1    
   132   65   66 2    
   133   67   68 2    
   134   67   69 am   BACKBONE|DICT|INTERRES
   135   69   70 1    
   136   69  190 1    
   137   70   71 1    
   138   70   72 1    
   139   70  191 1    
   140   71  192 1    
   141   71  193 1    
   142   71  194 1    
   143   72   73 2    
   144   72   74 am   BACKBONE|DICT|INTERRES
   145   74   75 1    
   146   74  195 1    
   147   75   76 1    
   148   75   77 1    
   149   75  196 1    
   150   76  197 1    
   151   76  198 1    
   152   76  199 1    
   153   77   78 2    
   154   77   79 am   BACKBONE|DICT|INTERRES
   155   79   80 1    
   156   79  200 1    
   157   80   81 1    
   158   80   82 1    
   159   80  201 1    
   160   81  202 1    
   161   81  203 1    
   162   81  204 1    
   163   82   83 2    
   164   82   84 am   BACKBONE|DICT|INTERRES
   165   84   85 1    
   166   84  205 1    
   167   85   86 1    
   168   85   87 1    
   169   85  206 1    
   170   86  207 1    
   171   86  208 1    
   172   86  209 1    
   173   87   88 2    
   174   87   89 am   BACKBONE|DICT|INTERRES
   175   89   90 1    
   176   89  210 1    
   177   90   91 1    
   178   90   92 1    
   179   90  211 1    
   180   91  212 1    
   181   91  213 1    
   182   91  214 1    
   183   92   93 2    
   184   92   94 am   BACKBONE|DICT|INTERRES
   185   94   95 1    
   186   94  215 1    
   187   95   96 1    
   188   95   97 1    
   189   95  216 1    
   190   96  217 1    
   191   96  218 1    
   192   96  219 1    
   193   97   98 2    
   194   97   99 am   BACKBONE|DICT|INTERRES
   195   99  100 1    
   196   99  220 1    
   197  100  101 1    
   198  100  102 1    
   199  100  221 1    
   200  101  222 1    
   201  101  223 1    
   202  101  224 1    
   203  102  103 2    
   204  102  104 am   BACKBONE|DICT|INTERRES
   205  104  105 1    
   206  104  225 1    
   207  105  106 1    
   208  105  107 1    
   209  105  226 1    
   210  106  227 1    
   211  106  228 1    
   212  106  229 1    
   213  107  108 2    
   214  107  109 am   BACKBONE|DICT|INTERRES
   215  109  110 1    
   216  109  230 1    
   217  110  111 1    
   218  110  112 1    
   219  110  231 1    
   220  111  232 1    
   221  111  233 1    
   222  111  234 1    
   223  112  113 2    
   224  112  114 am   BACKBONE|DICT|INTERRES
   225  114  115 1    
   226  114  235 1    
   227  115  116 1    
   228  115  117 1    
   229  115  236 1    
   230  116  237 1    
   231  116  238 1    
   232  116  239 1    
   233  117  118 2    
   234  117  119 am   BACKBONE|DICT|INTERRES
   235  119  120 1    
   236  119  240 1    
   237  120  121 1    
   238  120  124 1    
   239  120  241 1    
   240  121  122 am   BACKBONE|DICT|INTERRES
   241  121  123 2    
   242  122  242 1    
   243  122  243 1    
   244  124  125 1    
   245  124  244 1    
   246  124  245 1    
   247  125  126 1    
   248  126  246 1    
   249  126  247 1    
@<TRIPOS>SUBSTRUCTURE
     1 UNK         1 GROUP             0       ****    0 ROOT    
