@<TRIPOS>MOLECULE
3R540
247   249    1
SMALL
USER_CHARGES


@<TRIPOS>ATOM
      1 CA          3.8042  -13.0092  -53.7241 C.3       0 UNK        -0.1800 
      2 C           3.9733  -13.0422  -52.2117 C.2       0 UNK         0.5000 
      3 O           3.9361  -11.9941  -51.5675 O.2       0 UNK        -0.5000 
      4 N           4.1611  -14.2403  -51.6450 N.am      1 UNK        -0.5000 
      5 CA          4.3096  -14.4746  -50.2024 C.3       1 UNK         0.1400 
      6 C6          5.0799  -15.7918  -49.9221 C.3       23 UNK        -0.0398 
      7 S7          4.2498  -17.2991  -50.5497 S.3       23 UNK        -0.2404 
      8 C8          3.6627  -18.0198  -48.9867 C.3       23 UNK        -0.0205 
      9 C9          2.5092  -18.9855  -49.2002 C.ar      23 UNK        -0.0193 
     10 C10         1.2225  -18.4915  -49.4246 C.ar      23 UNK        -0.1150 
     11 C11         0.1341  -19.3586  -49.5443 C.ar      23 UNK        -0.0193 
     12 C12         0.3434  -20.7346  -49.4283 C.ar      23 UNK        -0.1150 
     13 C13         1.6304  -21.2483  -49.2391 C.ar      23 UNK        -0.0193 
     14 C14         2.7123  -20.3660  -49.1350 C.ar      23 UNK        -0.1150 
     15 C15         1.8309  -22.7581  -49.1575 C.3       23 UNK        -0.0205 
     16 S16         2.9333  -23.3058  -47.8056 S.3       23 UNK        -0.2404 
     17 C17         2.2465  -22.4460  -46.3493 C.3       23 UNK        -0.0398 
     18 CA          1.2567  -23.2748  -45.4987 C.3       11 UNK         0.1400 
     19 N           0.9746  -22.5869  -44.2370 N.am      11 UNK        -0.5000 
     20 C           0.3337  -23.1104  -43.1839 C.2       10 UNK         0.5000 
     21 O          -0.0839  -24.2679  -43.1388 O.2       10 UNK        -0.5000 
     22 CA          0.1302  -22.1810  -41.9729 C.3       10 UNK         0.1400 
     23 CB          1.4035  -22.1213  -41.1152 C.3       10 UNK        -0.1800 
     24 N          -0.2572  -20.8260  -42.3682 N.am      10 UNK        -0.5000 
     25 C          -1.4662  -20.4963  -42.8440 C.2       9 UNK         0.5000 
     26 O          -2.4047  -21.2889  -42.9200 O.2       9 UNK        -0.5000 
     27 CA         -1.6644  -19.0446  -43.3261 C.3       9 UNK         0.1400 
     28 CB         -2.0839  -18.1359  -42.1613 C.3       9 UNK        -0.1800 
     29 N          -0.4816  -18.4774  -43.9736 N.am      9 UNK        -0.5000 
     30 C           0.0607  -18.9340  -45.1110 C.2       8 UNK         0.5000 
     31 O          -0.3808  -19.8885  -45.7496 O.2       8 UNK        -0.5000 
     32 CA          1.3588  -18.2479  -45.5682 C.3       8 UNK         0.1400 
     33 CB          1.0684  -16.8867  -46.2204 C.3       8 UNK        -0.1800 
     34 N           2.2988  -18.0717  -44.4603 N.am      8 UNK        -0.5000 
     35 C           2.8906  -19.0770  -43.7992 C.2       7 UNK         0.5000 
     36 O           2.7238  -20.2649  -44.0685 O.2       7 UNK        -0.5000 
     37 CA          3.7795  -18.6923  -42.6037 C.3       7 UNK         0.1400 
     38 CB          5.1699  -18.2482  -43.0820 C.3       7 UNK        -0.1800 
     39 N           3.1849  -17.6359  -41.7857 N.am      7 UNK        -0.5000 
     40 C           2.0501  -17.7659  -41.0829 C.2       6 UNK         0.5000 
     41 O           1.4083  -18.8123  -41.0054 O.2       6 UNK        -0.5000 
     42 CA          1.5163  -16.4941  -40.3987 C.3       6 UNK         0.1400 
     43 CB          2.1369  -16.3277  -39.0038 C.3       6 UNK        -0.1800 
     44 N           1.7556  -15.2823  -41.1883 N.am      6 UNK        -0.5000 
     45 C           1.2314  -15.0568  -42.3999 C.2       5 UNK         0.5000 
     46 O           0.4898  -15.8518  -42.9821 O.2       5 UNK        -0.5000 
     47 CA          1.6672  -13.7593  -43.1025 C.3       5 UNK         0.1400 
     48 CB          2.8660  -14.0289  -44.0257 C.3       5 UNK        -0.1800 
     49 N           0.5856  -13.1711  -43.8897 N.am      5 UNK        -0.5000 
     50 C          -0.5212  -12.6218  -43.3721 C.2       4 UNK         0.5000 
     51 O          -0.7316  -12.5235  -42.1621 O.2       4 UNK        -0.5000 
     52 CA         -1.5566  -12.0549  -44.3618 C.3       4 UNK         0.1400 
     53 CB         -1.4713  -10.5207  -44.4027 C.3       4 UNK        -0.1800 
     54 N          -1.4146  -12.5674  -45.7276 N.am      4 UNK        -0.5000 
     55 C          -1.8724  -13.7576  -46.1436 C.2       3 UNK         0.5000 
     56 O          -2.3866  -14.5835  -45.3900 O.2       3 UNK        -0.5000 
     57 CA         -1.7709  -14.0752  -47.6492 C.3       3 UNK         0.1400 
     58 CB         -3.1794  -14.1782  -48.2573 C.3       3 UNK        -0.1800 
     59 N          -1.0205  -13.0450  -48.3798 N.am      3 UNK        -0.5000 
     60 C          -0.0058  -13.1899  -49.2442 C.2       2 UNK         0.5000 
     61 O           0.5151  -12.2019  -49.7635 O.2       2 UNK        -0.5000 
     62 CA          0.4842  -14.5987  -49.6541 C.3       2 UNK         0.1400 
     63 CB         -0.4204  -15.1874  -50.7493 C.3       2 UNK        -0.1800 
     64 N           1.8490  -14.5774  -50.1747 N.am      2 UNK        -0.5000 
     65 C           2.9612  -14.4233  -49.4438 C.2       1 UNK         0.5000 
     66 O           2.9578  -14.2771  -48.2206 O.2       1 UNK        -0.5000 
     67 C          -0.0371  -23.6038  -46.2728 C.2       11 UNK         0.5000 
     68 O          -0.2034  -24.7479  -46.6981 O.2       11 UNK        -0.5000 
     69 N          -0.9051  -22.5881  -46.4141 N.am      12 UNK        -0.5000 
     70 CA         -2.2081  -22.5100  -47.0830 C.3       12 UNK         0.1400 
     71 CB         -3.3088  -22.2536  -46.0400 C.3       12 UNK        -0.1800 
     72 C          -2.5772  -23.6507  -48.0472 C.2       12 UNK         0.5000 
     73 O          -2.4363  -23.4922  -49.2614 O.2       12 UNK        -0.5000 
     74 N          -3.0521  -24.7729  -47.4894 N.am      13 UNK        -0.5000 
     75 CA         -3.5193  -25.9692  -48.1938 C.3       13 UNK         0.1400 
     76 CB         -3.9572  -27.0162  -47.1599 C.3       13 UNK        -0.1800 
     77 C          -2.5102  -26.5809  -49.1851 C.2       13 UNK         0.5000 
     78 O          -2.9367  -27.1846  -50.1695 O.2       13 UNK        -0.5000 
     79 N          -1.2051  -26.3697  -48.9612 N.am      14 UNK        -0.5000 
     80 CA         -0.1352  -26.7705  -49.8799 C.3       14 UNK         0.1400 
     81 CB          1.2198  -26.6290  -49.1735 C.3       14 UNK        -0.1800 
     82 C          -0.1459  -26.0058  -51.2232 C.2       14 UNK         0.5000 
     83 O           0.4021  -26.5136  -52.2019 O.2       14 UNK        -0.5000 
     84 N          -0.7919  -24.8312  -51.2615 N.am      15 UNK        -0.5000 
     85 CA         -1.0685  -24.0507  -52.4713 C.3       15 UNK         0.1400 
     86 CB         -0.5256  -22.6249  -52.2832 C.3       15 UNK        -0.1800 
     87 C          -2.5794  -24.0340  -52.7886 C.2       15 UNK         0.5000 
     88 O          -3.0366  -23.1533  -53.5172 O.2       15 UNK        -0.5000 
     89 N          -3.3316  -24.9922  -52.2240 N.am      16 UNK        -0.5000 
     90 CA         -4.7863  -25.1538  -52.3156 C.3       16 UNK         0.1400 
     91 CB         -5.2225  -25.5046  -53.7536 C.3       16 UNK        -0.1800 
     92 C          -5.5862  -23.9959  -51.6771 C.2       16 UNK         0.5000 
     93 O          -6.7079  -23.7141  -52.1038 O.2       16 UNK        -0.5000 
     94 N          -5.0055  -23.3815  -50.6333 N.am      17 UNK        -0.5000 
     95 CA         -5.5865  -22.3909  -49.7239 C.3       17 UNK         0.1400 
     96 CB         -6.5543  -23.0788  -48.7383 C.3       17 UNK        -0.1800 
     97 C          -6.1991  -21.1864  -50.4560 C.2       17 UNK         0.5000 
     98 O          -5.4541  -20.3032  -50.8821 O.2       17 UNK        -0.5000 
     99 N          -7.5326  -21.1722  -50.5924 N.am      18 UNK        -0.5000 
    100 CA        -8.3301  -20.1315  -51.2439 C.3       18 UNK         0.1400 
    101 CB        -9.8169  -20.4983  -51.1343 C.3       18 UNK        -0.1800 
    102 C         -7.9462  -19.8640  -52.7105 C.2       18 UNK         0.5000 
    103 O         -8.0994  -18.7323  -53.1697 O.2       18 UNK        -0.5000 
    104 N         -7.3922  -20.8745  -53.3964 N.am      19 UNK        -0.5000 
    105 CA        -6.8282  -20.7575  -54.7448 C.3       19 UNK         0.1400 
    106 CB        -6.4363  -22.1552  -55.2402 C.3       19 UNK        -0.1800 
    107 C         -5.6129  -19.8081  -54.8248 C.2       19 UNK         0.5000 
    108 O         -5.3516  -19.2503  -55.8911 O.2       19 UNK        -0.5000 
    109 N         -4.9135  -19.6299  -53.6974 N.am      20 UNK        -0.5000 
    110 CA        -3.7818  -18.7232  -53.5179 C.3       20 UNK         0.1400 
    111 CB        -2.5587  -19.5626  -53.1142 C.3       20 UNK        -0.1800 
    112 C         -4.1040  -17.6181  -52.4875 C.2       20 UNK         0.5000 
    113 O         -3.1885  -16.9464  -52.0153 O.2       20 UNK        -0.5000 
    114 N         -5.3964  -17.4450  -52.1651 N.am      21 UNK        -0.5000 
    115 CA        -5.9874  -16.4646  -51.2446 C.3       21 UNK         0.1400 
    116 CB        -5.6733  -15.0222  -51.6947 C.3       21 UNK        -0.1800 
    117 C         -5.6763  -16.6839  -49.7463 C.2       21 UNK         0.5000 
    118 O         -6.0436  -15.8337  -48.9349 O.2       21 UNK        -0.5000 
    119 N         -5.0592  -17.8158  -49.3857 N.am      22 UNK        -0.5000 
    120 CA        -4.7090  -18.1842  -47.9993 C.3       22 UNK         0.1400 
    121 C         -5.8341  -18.9487  -47.2391 C.2       22 UNK         0.5000 
    122 N         -7.0269  -19.1135  -47.7963 N.am      22 UNK        -0.7600 
    123 O         -5.6288  -19.3924  -46.1136 O.2       22 UNK        -0.5000 
    124 C124       -3.3582  -18.9422  -47.9271 C.3       23 UNK        -0.0398 
    125 S125       -1.9567  -17.8937  -48.4389 S.3       23 UNK        -0.2404 
    126 C126       -1.2518  -18.8072  -49.8447 C.3       23 UNK        -0.0205 
    127 H127        4.5822  -12.3934  -54.1754 H         1 UNK         0.0600 
    128 H128        2.8358  -12.5816  -53.9839 H         1 UNK         0.0600 
    129 H129        3.8639  -14.0063  -54.1610 H         1 UNK         0.0600 
    130 H130        4.1917  -15.0692  -52.2228 H         1 UNK         0.3000 
    131 H131        4.9162  -13.6622  -49.7960 H         1 UNK         0.0600 
    132 H132        5.2799  -15.8934  -48.8539 H         1 UNK         0.0800 
    133 H133        6.0635  -15.7384  -50.3906 H         1 UNK         0.0800 
    134 H134        4.4945  -18.5164  -48.4849 H         1 UNK         0.0800 
    135 H135        3.3320  -17.2266  -48.3161 H         1 UNK         0.0800 
    136 H136        1.0682  -17.4266  -49.4983 H         1 UNK         0.1150 
    137 H137       -0.4960  -21.4094  -49.5041 H         1 UNK         0.1150 
    138 H138        3.7088  -20.7538  -48.9781 H         1 UNK         0.1150 
    139 H139        0.8689  -23.2605  -49.0487 H         1 UNK         0.0800 
    140 H140        2.2463  -23.1043  -50.1044 H         1 UNK         0.0800 
    141 H141        1.8060  -21.4893  -46.6298 H         1 UNK         0.0800 
    142 H142        3.1104  -22.1926  -45.7345 H         1 UNK         0.0800 
    143 H143        1.7393  -24.2219  -45.2483 H         1 UNK         0.0600 
    144 H144        1.3345  -21.6403  -44.1597 H         1 UNK         0.3000 
    145 H145       -0.6688  -22.6023  -41.3591 H         1 UNK         0.0600 
    146 H146        1.7121  -23.1197  -40.8027 H         1 UNK         0.0600 
    147 H147        2.2362  -21.6741  -41.6590 H         1 UNK         0.0600 
    148 H148        1.2414  -21.5335  -40.2116 H         1 UNK         0.0600 
    149 H149        0.4392  -20.0979  -42.2503 H         1 UNK         0.3000 
    150 H150       -2.4711  -19.0496  -44.0623 H         1 UNK         0.0600 
    151 H151       -2.2846  -17.1210  -42.5059 H         1 UNK         0.0600 
    152 H152       -1.3096  -18.0820  -41.3957 H         1 UNK         0.0600 
    153 H153       -2.9930  -18.5054  -41.6852 H         1 UNK         0.0600 
    154 H154       -0.0659  -17.6621  -43.5320 H         1 UNK         0.3000 
    155 H155        1.8326  -18.8897  -46.3137 H         1 UNK         0.0600 
    156 H156        0.4398  -17.0103  -47.0993 H         1 UNK         0.0600 
    157 H157        1.9850  -16.3958  -46.5448 H         1 UNK         0.0600 
    158 H158        0.5451  -16.2089  -45.5468 H         1 UNK         0.0600 
    159 H159        2.4405  -17.1286  -44.1332 H         1 UNK         0.3000 
    160 H160        3.8994  -19.5791  -41.9777 H         1 UNK         0.0600 
    161 H161        5.6408  -19.0255  -43.6854 H         1 UNK         0.0600 
    162 H162        5.8311  -18.0480  -42.2388 H         1 UNK         0.0600 
    163 H163        5.1195  -17.3449  -43.6914 H         1 UNK         0.0600 
    164 H164        3.6490  -16.7401  -41.7868 H         1 UNK         0.3000 
    165 H165        0.4369  -16.6100  -40.2810 H         1 UNK         0.0600 
    166 H166        1.7055  -15.4749  -38.4794 H         1 UNK         0.0600 
    167 H167        1.9561  -17.2107  -38.3892 H         1 UNK         0.0600 
    168 H168        3.2162  -16.1797  -39.0565 H         1 UNK         0.0600 
    169 H169        2.3605  -14.5871  -40.7750 H         1 UNK         0.3000 
    170 H170        1.9693  -13.0333  -42.3447 H         1 UNK         0.0600 
    171 H171        3.2264  -13.1064  -44.4815 H         1 UNK         0.0600 
    172 H172        3.7000  -14.4626  -43.4727 H         1 UNK         0.0600 
    173 H173        2.6107  -14.7183  -44.8306 H         1 UNK         0.0600 
    174 H174        0.6639  -13.2358  -44.8929 H         1 UNK         0.3000 
    175 H175       -2.5459  -12.3271  -43.9871 H         1 UNK         0.0600 
    176 H176       -0.5043  -10.1807  -44.7756 H         1 UNK         0.0600 
    177 H177       -2.2464  -10.0991  -45.0430 H         1 UNK         0.0600 
    178 H178       -1.6075  -10.0939  -43.4081 H         1 UNK         0.0600 
    179 H179       -0.9666  -11.9545  -46.3915 H         1 UNK         0.3000 
    180 H180       -1.2997  -15.0528  -47.7166 H         1 UNK         0.0600 
    181 H181       -3.1499  -14.4424  -49.3133 H         1 UNK         0.0600 
    182 H182       -3.7281  -13.2402  -48.1661 H         1 UNK         0.0600 
    183 H183       -3.7629  -14.9479  -47.7518 H         1 UNK         0.0600 
    184 H184       -1.3445  -12.1031  -48.2193 H         1 UNK         0.3000 
    185 H185        0.4964  -15.2611  -48.7905 H         1 UNK         0.0600 
    186 H186       -0.5667  -14.4871  -51.5727 H         1 UNK         0.0600 
    187 H187       -0.0020  -16.1021  -51.1683 H         1 UNK         0.0600 
    188 H188       -1.4035  -15.4415  -50.3567 H         1 UNK         0.0600 
    189 H189        1.9502  -14.6497  -51.1756 H         1 UNK         0.3000 
    190 H190       -0.6099  -21.6900  -46.0343 H         1 UNK         0.3000 
    191 H191       -2.1467  -21.6166  -47.7032 H         1 UNK         0.0600 
    192 H192       -3.3194  -23.0192  -45.2636 H         1 UNK         0.0600 
    193 H193       -4.2983  -22.2273  -46.4988 H         1 UNK         0.0600 
    194 H194       -3.1605  -21.2924  -45.5486 H         1 UNK         0.0600 
    195 H195       -3.0778  -24.8183  -46.4812 H         1 UNK         0.3000 
    196 H196       -4.3973  -25.6783  -48.7733 H         1 UNK         0.0600 
    197 H197       -4.3371  -27.9148  -47.6481 H         1 UNK         0.0600 
    198 H198       -4.7548  -26.6332  -46.5230 H         1 UNK         0.0600 
    199 H199       -3.1279  -27.3162  -46.5180 H         1 UNK         0.0600 
    200 H200       -0.9270  -25.8433  -48.1359 H         1 UNK         0.3000 
    201 H201       -0.2786  -27.8273  -50.1148 H         1 UNK         0.0600 
    202 H202        1.2652  -27.2515  -48.2799 H         1 UNK         0.0600 
    203 H203        1.4062  -25.6008  -48.8709 H         1 UNK         0.0600 
    204 H204        2.0388  -26.9343  -49.8259 H         1 UNK         0.0600 
    205 H205       -1.2346  -24.4854  -50.4146 H         1 UNK         0.3000 
    206 H206       -0.5675  -24.4922  -53.3346 H         1 UNK         0.0600 
    207 H207       -0.5610  -22.0675  -53.2196 H         1 UNK         0.0600 
    208 H208       -1.1168  -22.0711  -51.5550 H         1 UNK         0.0600 
    209 H209        0.5121  -22.6311  -51.9506 H         1 UNK         0.0600 
    210 H210       -2.8649  -25.6834  -51.6482 H         1 UNK         0.3000 
    211 H211       -5.0217  -26.0227  -51.6997 H         1 UNK         0.0600 
    212 H212       -4.9692  -24.7212  -54.4652 H         1 UNK         0.0600 
    213 H213       -6.2990  -25.6687  -53.8142 H         1 UNK         0.0600 
    214 H214       -4.7401  -26.4218  -54.0911 H         1 UNK         0.0600 
    215 H215       -4.0457  -23.6294  -50.4173 H         1 UNK         0.3000 
    216 H216       -4.7631  -21.9832  -49.1378 H         1 UNK         0.0600 
    217 H217       -7.0002  -22.3549  -48.0545 H         1 UNK         0.0600 
    218 H218       -6.0279  -23.8109  -48.1262 H         1 UNK         0.0600 
    219 H219       -7.3639  -23.6009  -49.2494 H         1 UNK         0.0600 
    220 H220       -8.0456  -21.9689  -50.2438 H         1 UNK         0.3000 
    221 H221       -8.1663  -19.2024  -50.6953 H         1 UNK         0.0600 
    222 H222      -10.0354  -21.4414  -51.6368 H         1 UNK         0.0600 
    223 H223      -10.1247  -20.5925  -50.0928 H         1 UNK         0.0600 
    224 H224      -10.4445  -19.7304  -51.5888 H         1 UNK         0.0600 
    225 H225       -7.2843  -21.7714  -52.9350 H         1 UNK         0.3000 
    226 H226       -7.6056  -20.3617  -55.4014 H         1 UNK         0.0600 
    227 H227       -7.2772  -22.8474  -55.1955 H         1 UNK         0.0600 
    228 H228       -6.0913  -22.1228  -56.2743 H         1 UNK         0.0600 
    229 H229       -5.6269  -22.5656  -54.6371 H         1 UNK         0.0600 
    230 H230       -5.2059  -20.1189  -52.8570 H         1 UNK         0.3000 
    231 H231       -3.5477  -18.2111  -54.4529 H         1 UNK         0.0600 
    232 H232       -2.7546  -20.1394  -52.2107 H         1 UNK         0.0600 
    233 H233       -2.2981  -20.2700  -53.9016 H         1 UNK         0.0600 
    234 H234       -1.6814  -18.9395  -52.9388 H         1 UNK         0.0600 
    235 H235       -6.0672  -18.0442  -52.6292 H         1 UNK         0.3000 
    236 H236       -7.0656  -16.6008  -51.3380 H         1 UNK         0.0600 
    237 H237       -4.6217  -14.7722  -51.5525 H         1 UNK         0.0600 
    238 H238       -5.9155  -14.8749  -52.7471 H         1 UNK         0.0600 
    239 H239       -6.2569  -14.2978  -51.1254 H         1 UNK         0.0600 
    240 H240       -4.8617  -18.5089  -50.0984 H         1 UNK         0.3000 
    241 H241       -4.5772  -17.2645  -47.4266 H         1 UNK         0.0600 
    242 H242       -7.7499  -19.5893  -47.2807 H         1 UNK         0.3800 
    243 H243       -7.2254  -18.7163  -48.6978 H         1 UNK         0.3800 
    244 H244       -3.1420  -19.2601  -46.9059 H         1 UNK         0.0800 
    245 H245       -3.4082  -19.8497  -48.5275 H         1 UNK         0.0800 
    246 H246       -1.9215  -19.6070  -50.1567 H         1 UNK         0.0800 
    247 H247       -1.1809  -18.1292  -50.6941 H         1 UNK         0.0800 
@<TRIPOS>BOND
     1    1    2 1    
     2    1  127 1    
     3    1  128 1    
     4    1  129 1    
     5    2    3 2    
     6    2    4 am   BACKBONE|DICT|INTERRES
     7    4    5 1    
     8    4  130 1    
     9    5    6 1    
    10    5   65 1    
    11    5  131 1    
    12    6    7 1    
    13    6  132 1    
    14    6  133 1    
    15    7    8 1    
    16    8    9 1    
    17    8  134 1    
    18    8  135 1    
    19    9   10 ar   
    20    9   14 ar   
    21   10   11 ar   
    22   10  136 1    
    23   11   12 ar   
    24   11  126 1    
    25   12   13 ar   
    26   12  137 1    
    27   13   14 ar   
    28   13   15 1    
    29   14  138 1    
    30   15   16 1    
    31   15  139 1    
    32   15  140 1    
    33   16   17 1    
    34   17   18 1    
    35   17  141 1    
    36   17  142 1    
    37   18   19 1    
    38   18   67 1    
    39   18  143 1    
    40   19   20 am   BACKBONE|DICT|INTERRES
    41   19  144 1    
    42   20   21 2    
    43   20   22 1    
    44   22   23 1    
    45   22   24 1    
    46   22  145 1    
    47   23  146 1    
    48   23  147 1    
    49   23  148 1    
    50   24   25 am   BACKBONE|DICT|INTERRES
    51   24  149 1    
    52   25   26 2    
    53   25   27 1    
    54   27   28 1    
    55   27   29 1    
    56   27  150 1    
    57   28  151 1    
    58   28  152 1    
    59   28  153 1    
    60   29   30 am   BACKBONE|DICT|INTERRES
    61   29  154 1    
    62   30   31 2    
    63   30   32 1    
    64   32   33 1    
    65   32   34 1    
    66   32  155 1    
    67   33  156 1    
    68   33  157 1    
    69   33  158 1    
    70   34   35 am   BACKBONE|DICT|INTERRES
    71   34  159 1    
    72   35   36 2    
    73   35   37 1    
    74   37   38 1    
    75   37   39 1    
    76   37  160 1    
    77   38  161 1    
    78   38  162 1    
    79   38  163 1    
    80   39   40 am   BACKBONE|DICT|INTERRES
    81   39  164 1    
    82   40   41 2    
    83   40   42 1    
    84   42   43 1    
    85   42   44 1    
    86   42  165 1    
    87   43  166 1    
    88   43  167 1    
    89   43  168 1    
    90   44   45 am   BACKBONE|DICT|INTERRES
    91   44  169 1    
    92   45   46 2    
    93   45   47 1    
    94   47   48 1    
    95   47   49 1    
    96   47  170 1    
    97   48  171 1    
    98   48  172 1    
    99   48  173 1    
   100   49   50 am   BACKBONE|DICT|INTERRES
   101   49  174 1    
   102   50   51 2    
   103   50   52 1    
   104   52   53 1    
   105   52   54 1    
   106   52  175 1    
   107   53  176 1    
   108   53  177 1    
   109   53  178 1    
   110   54   55 am   BACKBONE|DICT|INTERRES
   111   54  179 1    
   112   55   56 2    
   113   55   57 1    
   114   57   58 1    
   115   57   59 1    
   116   57  180 1    
   117   58  181 1    
   118   58  182 1    
   119   58  183 1    
   120   59   60 am   BACKBONE|DICT|INTERRES
   121   59  184 1    
   122   60   61 2    
   123   60   62 1    
   124   62   63 1    
   125   62   64 1    
   126   62  185 1    
   127   63  186 1    
   128   63  187 1    
   129   63  188 1    
   130   64   65 am   BACKBONE|DICT|INTERRES
   131   64  189 1    
   132   65   66 2    
   133   67   68 2    
   134   67   69 am   BACKBONE|DICT|INTERRES
   135   69   70 1    
   136   69  190 1    
   137   70   71 1    
   138   70   72 1    
   139   70  191 1    
   140   71  192 1    
   141   71  193 1    
   142   71  194 1    
   143   72   73 2    
   144   72   74 am   BACKBONE|DICT|INTERRES
   145   74   75 1    
   146   74  195 1    
   147   75   76 1    
   148   75   77 1    
   149   75  196 1    
   150   76  197 1    
   151   76  198 1    
   152   76  199 1    
   153   77   78 2    
   154   77   79 am   BACKBONE|DICT|INTERRES
   155   79   80 1    
   156   79  200 1    
   157   80   81 1    
   158   80   82 1    
   159   80  201 1    
   160   81  202 1    
   161   81  203 1    
   162   81  204 1    
   163   82   83 2    
   164   82   84 am   BACKBONE|DICT|INTERRES
   165   84   85 1    
   166   84  205 1    
   167   85   86 1    
   168   85   87 1    
   169   85  206 1    
   170   86  207 1    
   171   86  208 1    
   172   86  209 1    
   173   87   88 2    
   174   87   89 am   BACKBONE|DICT|INTERRES
   175   89   90 1    
   176   89  210 1    
   177   90   91 1    
   178   90   92 1    
   179   90  211 1    
   180   91  212 1    
   181   91  213 1    
   182   91  214 1    
   183   92   93 2    
   184   92   94 am   BACKBONE|DICT|INTERRES
   185   94   95 1    
   186   94  215 1    
   187   95   96 1    
   188   95   97 1    
   189   95  216 1    
   190   96  217 1    
   191   96  218 1    
   192   96  219 1    
   193   97   98 2    
   194   97   99 am   BACKBONE|DICT|INTERRES
   195   99  100 1    
   196   99  220 1    
   197  100  101 1    
   198  100  102 1    
   199  100  221 1    
   200  101  222 1    
   201  101  223 1    
   202  101  224 1    
   203  102  103 2    
   204  102  104 am   BACKBONE|DICT|INTERRES
   205  104  105 1    
   206  104  225 1    
   207  105  106 1    
   208  105  107 1    
   209  105  226 1    
   210  106  227 1    
   211  106  228 1    
   212  106  229 1    
   213  107  108 2    
   214  107  109 am   BACKBONE|DICT|INTERRES
   215  109  110 1    
   216  109  230 1    
   217  110  111 1    
   218  110  112 1    
   219  110  231 1    
   220  111  232 1    
   221  111  233 1    
   222  111  234 1    
   223  112  113 2    
   224  112  114 am   BACKBONE|DICT|INTERRES
   225  114  115 1    
   226  114  235 1    
   227  115  116 1    
   228  115  117 1    
   229  115  236 1    
   230  116  237 1    
   231  116  238 1    
   232  116  239 1    
   233  117  118 2    
   234  117  119 am   BACKBONE|DICT|INTERRES
   235  119  120 1    
   236  119  240 1    
   237  120  121 1    
   238  120  124 1    
   239  120  241 1    
   240  121  122 am   BACKBONE|DICT|INTERRES
   241  121  123 2    
   242  122  242 1    
   243  122  243 1    
   244  124  125 1    
   245  124  244 1    
   246  124  245 1    
   247  125  126 1    
   248  126  246 1    
   249  126  247 1    
@<TRIPOS>SUBSTRUCTURE
     1 UNK         1 GROUP             0       ****    0 ROOT    
