@<TRIPOS>MOLECULE
3R540
247   249    1
SMALL
USER_CHARGES


@<TRIPOS>ATOM
      1 CA         -4.8781  -17.6216  -49.5480 C.3       0 UNK        -0.1800 
      2 C          -3.8877  -16.4667  -49.5115 C.2       0 UNK         0.5000 
      3 O          -4.2410  -15.3437  -49.8709 O.2       0 UNK        -0.5000 
      4 N          -2.6535  -16.7258  -49.0625 N.am      1 UNK        -0.5000 
      5 CA         -1.5401  -15.7674  -48.9848 C.3       1 UNK         0.1400 
      6 C6         -0.1604  -16.4733  -49.0649 C.3       23 UNK        -0.0398 
      7 S7          0.0056  -17.5132  -50.5552 S.3       23 UNK        -0.2404 
      8 C8          1.6439  -18.2713  -50.2836 C.3       23 UNK        -0.0205 
      9 C9          1.7155  -19.7248  -50.7456 C.ar      23 UNK        -0.0193 
     10 C10         1.1617  -20.1252  -51.9643 C.ar      23 UNK        -0.1150 
     11 C11         1.2344  -21.4544  -52.3814 C.ar      23 UNK        -0.0193 
     12 C12         1.8479  -22.3973  -51.5538 C.ar      23 UNK        -0.1150 
     13 C13         2.4143  -22.0240  -50.3297 C.ar      23 UNK        -0.0193 
     14 C14         2.3656  -20.6749  -49.9521 C.ar      23 UNK        -0.1150 
     15 C15         3.0536  -23.1266  -49.4777 C.3       23 UNK        -0.0205 
     16 S16         4.0192  -22.6313  -48.0021 S.3       23 UNK        -0.2404 
     17 C17         2.8561  -21.9183  -46.7795 C.3       23 UNK        -0.0398 
     18 CA          1.6791  -22.7955  -46.2798 C.3       11 UNK         0.1400 
     19 N           1.2537  -22.3740  -44.9392 N.am      11 UNK        -0.5000 
     20 C           0.2831  -22.9370  -44.2050 C.2       10 UNK         0.5000 
     21 O          -0.3259  -23.9547  -44.5329 O.2       10 UNK        -0.5000 
     22 CA         -0.1088  -22.2095  -42.9062 C.3       10 UNK         0.1400 
     23 CB          0.8732  -22.5481  -41.7750 C.3       10 UNK        -0.1800 
     24 N          -0.1955  -20.7561  -43.0732 N.am      10 UNK        -0.5000 
     25 C          -1.0842  -20.1332  -43.8625 C.2       9 UNK         0.5000 
     26 O          -1.9493  -20.7225  -44.5079 O.2       9 UNK        -0.5000 
     27 CA         -0.9609  -18.6033  -43.9955 C.3       9 UNK         0.1400 
     28 CB         -1.5749  -17.8862  -42.7841 C.3       9 UNK        -0.1800 
     29 N           0.4227  -18.1695  -44.1729 N.am      9 UNK        -0.5000 
     30 C           1.1932  -18.4918  -45.2204 C.2       8 UNK         0.5000 
     31 O           0.8077  -19.1558  -46.1825 O.2       8 UNK        -0.5000 
     32 CA          2.6619  -18.0437  -45.1526 C.3       8 UNK         0.1400 
     33 CB          2.8091  -16.5805  -45.5978 C.3       8 UNK        -0.1800 
     34 N           3.2299  -18.2183  -43.8141 N.am      8 UNK        -0.5000 
     35 C           3.4429  -19.4071  -43.2308 C.2       7 UNK         0.5000 
     36 O           3.1947  -20.4862  -43.7666 O.2       7 UNK        -0.5000 
     37 CA          3.9805  -19.3856  -41.7890 C.3       7 UNK         0.1400 
     38 CB          5.4888  -19.0951  -41.7724 C.3       7 UNK        -0.1800 
     39 N           3.2858  -18.4100  -40.9497 N.am      7 UNK        -0.5000 
     40 C           1.9906  -18.4879  -40.6132 C.2       6 UNK         0.5000 
     41 O           1.2520  -19.4150  -40.9412 O.2       6 UNK        -0.5000 
     42 CA          1.4098  -17.3040  -39.8191 C.3       6 UNK         0.1400 
     43 CB          1.6185  -17.5110  -38.3117 C.3       6 UNK        -0.1800 
     44 N           1.9603  -16.0032  -40.2127 N.am      6 UNK        -0.5000 
     45 C           1.8852  -15.4836  -41.4445 C.2       5 UNK         0.5000 
     46 O           1.3935  -16.0730  -42.4085 O.2       5 UNK        -0.5000 
     47 CA          2.4652  -14.0691  -41.6218 C.3       5 UNK         0.1400 
     48 CB          3.9911  -14.1483  -41.7852 C.3       5 UNK        -0.1800 
     49 N           1.9122  -13.3786  -42.7902 N.am      5 UNK        -0.5000 
     50 C           0.6657  -12.9185  -42.9731 C.2       4 UNK         0.5000 
     51 O           0.3330  -12.3942  -44.0370 O.2       4 UNK        -0.5000 
     52 CA         -0.3703  -12.9805  -41.8322 C.3       4 UNK         0.1400 
     53 CB         -0.2878  -11.7301  -40.9401 C.3       4 UNK        -0.1800 
     54 N          -1.6985  -13.0566  -42.4279 N.am      4 UNK        -0.5000 
     55 C          -2.7362  -13.7506  -41.9479 C.2       3 UNK         0.5000 
     56 O          -2.7009  -14.3899  -40.8958 O.2       3 UNK        -0.5000 
     57 CA         -4.0426  -13.7190  -42.7663 C.3       3 UNK         0.1400 
     58 CB         -5.0778  -12.8098  -42.0850 C.3       3 UNK        -0.1800 
     59 N          -3.8507  -13.2598  -44.1450 N.am      3 UNK        -0.5000 
     60 C          -3.3963  -14.0251  -45.1457 C.2       2 UNK         0.5000 
     61 O          -3.1331  -15.2225  -45.0132 O.2       2 UNK        -0.5000 
     62 CA         -3.2674  -13.3250  -46.5176 C.3       2 UNK         0.1400 
     63 CB         -2.3731  -12.0684  -46.4551 C.3       2 UNK        -0.1800 
     64 N          -2.8323  -14.2138  -47.6000 N.am      2 UNK        -0.5000 
     65 C          -1.6604  -14.8495  -47.7453 C.2       1 UNK         0.5000 
     66 O          -0.7116  -14.7380  -46.9674 O.2       1 UNK        -0.5000 
     67 C           0.4863  -22.7693  -47.2568 C.2       11 UNK         0.5000 
     68 O           0.1695  -23.7936  -47.8609 O.2       11 UNK        -0.5000 
     69 N          -0.1905  -21.6159  -47.3400 N.am      12 UNK        -0.5000 
     70 CA         -1.3622  -21.3935  -48.1831 C.3       12 UNK         0.1400 
     71 CB         -1.7742  -19.9210  -48.0751 C.3       12 UNK        -0.1800 
     72 C          -2.5433  -22.3232  -47.8483 C.2       12 UNK         0.5000 
     73 O          -3.1848  -22.8366  -48.7644 O.2       12 UNK        -0.5000 
     74 N          -2.7906  -22.5534  -46.5516 N.am      13 UNK        -0.5000 
     75 CA         -3.8046  -23.4829  -46.0543 C.3       13 UNK         0.1400 
     76 CB         -3.9604  -23.3213  -44.5349 C.3       13 UNK        -0.1800 
     77 C          -3.4991  -24.9460  -46.4215 C.2       13 UNK         0.5000 
     78 O          -4.4000  -25.6527  -46.8738 O.2       13 UNK        -0.5000 
     79 N          -2.2357  -25.3644  -46.2571 N.am      14 UNK        -0.5000 
     80 CA         -1.7484  -26.6982  -46.6181 C.3       14 UNK         0.1400 
     81 CB         -0.3316  -26.8972  -46.0587 C.3       14 UNK        -0.1800 
     82 C          -1.7768  -26.9543  -48.1365 C.2       14 UNK         0.5000 
     83 O          -2.1201  -28.0579  -48.5620 O.2       14 UNK        -0.5000 
     84 N          -1.4445  -25.9229  -48.9235 N.am      15 UNK        -0.5000 
     85 CA         -1.5017  -25.9289  -50.3860 C.3       15 UNK         0.1400 
     86 CB         -0.6613  -24.7567  -50.9132 C.3       15 UNK        -0.1800 
     87 C          -2.9353  -25.8543  -50.9501 C.2       15 UNK         0.5000 
     88 O          -3.1257  -26.1449  -52.1316 O.2       15 UNK        -0.5000 
     89 N          -3.9025  -25.4580  -50.1082 N.am      16 UNK        -0.5000 
     90 CA         -5.3067  -25.1776  -50.4225 C.3       16 UNK         0.1400 
     91 CB         -6.0494  -26.4615  -50.8472 C.3       16 UNK        -0.1800 
     92 C          -5.4438  -24.0208  -51.4345 C.2       16 UNK         0.5000 
     93 O          -6.1662  -24.1354  -52.4269 O.2       16 UNK        -0.5000 
     94 N          -4.7081  -22.9346  -51.1668 N.am      17 UNK        -0.5000 
     95 CA         -4.6259  -21.7270  -51.9822 C.3       17 UNK         0.1400 
     96 CB         -3.5802  -20.7944  -51.3547 C.3       17 UNK        -0.1800 
     97 C          -5.9820  -21.0065  -52.0955 C.2       17 UNK         0.5000 
     98 O          -6.5897  -20.6834  -51.0724 O.2       17 UNK        -0.5000 
     99 N          -6.4195  -20.7499  -53.3339 N.am      18 UNK        -0.5000 
    100 CA        -7.6517  -20.0156  -53.6370 C.3       18 UNK         0.1400 
    101 CB        -8.1214  -20.4058  -55.0473 C.3       18 UNK        -0.1800 
    102 C         -7.4797  -18.4864  -53.5356 C.2       18 UNK         0.5000 
    103 O         -8.4722  -17.7702  -53.3988 O.2       18 UNK        -0.5000 
    104 N         -6.2313  -18.0179  -53.6170 N.am      19 UNK        -0.5000 
    105 CA        -5.8045  -16.6251  -53.5840 C.3       19 UNK         0.1400 
    106 CB        -6.1178  -15.9487  -54.9338 C.3       19 UNK        -0.1800 
    107 C         -4.2986  -16.6062  -53.2804 C.2       19 UNK         0.5000 
    108 O         -3.6897  -17.6717  -53.1406 O.2       19 UNK        -0.5000 
    109 N         -3.7128  -15.4056  -53.1934 N.am      20 UNK        -0.5000 
    110 CA        -2.2757  -15.2049  -53.0014 C.3       20 UNK         0.1400 
    111 CB        -1.9813  -13.7051  -52.8604 C.3       20 UNK        -0.1800 
    112 C         -1.4523  -15.8276  -54.1448 C.2       20 UNK         0.5000 
    113 O         -1.8613  -15.7511  -55.3068 O.2       20 UNK        -0.5000 
    114 N         -0.3413  -16.4825  -53.7793 N.am      21 UNK        -0.5000 
    115 CA         0.5221  -17.2963  -54.6470 C.3       21 UNK         0.1400 
    116 CB         1.2367  -16.4147  -55.6925 C.3       21 UNK        -0.1800 
    117 C         -0.2126  -18.5011  -55.2847 C.2       21 UNK         0.5000 
    118 O          0.2202  -18.9983  -56.3251 O.2       21 UNK        -0.5000 
    119 N         -1.3134  -18.9383  -54.6533 N.am      22 UNK        -0.5000 
    120 CA        -2.2706  -19.9433  -55.1462 C.3       22 UNK         0.1400 
    121 C         -3.0781  -19.4909  -56.4028 C.2       22 UNK         0.5000 
    122 N         -3.1277  -18.2051  -56.7361 N.am      22 UNK        -0.7600 
    123 O         -3.7070  -20.3096  -57.0673 O.2       22 UNK        -0.5000 
    124 C124       -1.6675  -21.3728  -55.2748 C.3       23 UNK        -0.0398 
    125 S125       -1.1409  -22.0458  -53.6600 S.3       23 UNK        -0.2404 
    126 C126        0.6654  -21.8554  -53.7336 C.3       23 UNK        -0.0205 
    127 H127       -4.9274  -18.0450  -50.5511 H         1 UNK         0.0600 
    128 H128       -5.8749  -17.2736  -49.2775 H         1 UNK         0.0600 
    129 H129       -4.6015  -18.4127  -48.8520 H         1 UNK         0.0600 
    130 H130       -2.4273  -17.6624  -48.7640 H         1 UNK         0.3000 
    131 H131       -1.6049  -15.1024  -49.8478 H         1 UNK         0.0600 
    132 H132        0.0021  -17.0933  -48.1813 H         1 UNK         0.0800 
    133 H133        0.6451  -15.7368  -49.0773 H         1 UNK         0.0800 
    134 H134        1.8942  -18.2101  -49.2231 H         1 UNK         0.0800 
    135 H135        2.3985  -17.6900  -50.8145 H         1 UNK         0.0800 
    136 H136        0.6649  -19.4030  -52.5912 H         1 UNK         0.1150 
    137 H137        1.8927  -23.4298  -51.8705 H         1 UNK         0.1150 
    138 H138        2.8358  -20.3402  -49.0449 H         1 UNK         0.1150 
    139 H139        2.2994  -23.8571  -49.1933 H         1 UNK         0.0800 
    140 H140        3.7445  -23.6724  -50.1218 H         1 UNK         0.0800 
    141 H141        2.5108  -20.9348  -47.0869 H         1 UNK         0.0800 
    142 H142        3.5064  -21.7119  -45.9308 H         1 UNK         0.0800 
    143 H143        2.0248  -23.8277  -46.1960 H         1 UNK         0.0600 
    144 H144        1.7292  -21.5625  -44.5561 H         1 UNK         0.3000 
    145 H145       -1.0971  -22.5688  -42.6125 H         1 UNK         0.0600 
    146 H146        0.5432  -22.1216  -40.8277 H         1 UNK         0.0600 
    147 H147        1.8740  -22.1681  -41.9818 H         1 UNK         0.0600 
    148 H148        0.9524  -23.6269  -41.6353 H         1 UNK         0.0600 
    149 H149        0.4552  -20.1987  -42.5271 H         1 UNK         0.3000 
    150 H150       -1.5182  -18.2994  -44.8843 H         1 UNK         0.0600 
    151 H151       -2.6238  -18.1581  -42.6611 H         1 UNK         0.0600 
    152 H152       -1.5322  -16.8030  -42.9048 H         1 UNK         0.0600 
    153 H153       -1.0578  -18.1407  -41.8592 H         1 UNK         0.0600 
    154 H154        0.8138  -17.5725  -43.4492 H         1 UNK         0.3000 
    155 H155        3.2318  -18.6671  -45.8448 H         1 UNK         0.0600 
    156 H156        2.4212  -16.4415  -46.6079 H         1 UNK         0.0600 
    157 H157        3.8548  -16.2730  -45.6054 H         1 UNK         0.0600 
    158 H158        2.2630  -15.8993  -44.9444 H         1 UNK         0.0600 
    159 H159        3.3946  -17.3788  -43.2795 H         1 UNK         0.3000 
    160 H160        3.8198  -20.3767  -41.3592 H         1 UNK         0.0600 
    161 H161        5.7147  -18.1009  -42.1598 H         1 UNK         0.0600 
    162 H162        6.0313  -19.8172  -42.3841 H         1 UNK         0.0600 
    163 H163        5.8911  -19.1607  -40.7613 H         1 UNK         0.0600 
    164 H164        3.8173  -17.6113  -40.6370 H         1 UNK         0.3000 
    165 H165        0.3355  -17.2769  -40.0118 H         1 UNK         0.0600 
    166 H166        1.1253  -16.7292  -37.7339 H         1 UNK         0.0600 
    167 H167        1.2003  -18.4650  -37.9872 H         1 UNK         0.0600 
    168 H168        2.6765  -17.5092  -38.0468 H         1 UNK         0.0600 
    169 H169        2.3897  -15.4613  -39.4762 H         1 UNK         0.3000 
    170 H170        2.2414  -13.4829  -40.7291 H         1 UNK         0.0600 
    171 H171        4.4583  -14.6228  -40.9212 H         1 UNK         0.0600 
    172 H172        4.2729  -14.7240  -42.6681 H         1 UNK         0.0600 
    173 H173        4.4291  -13.1544  -41.8807 H         1 UNK         0.0600 
    174 H174        2.5411  -13.3148  -43.5758 H         1 UNK         0.3000 
    175 H175       -0.2125  -13.8652  -41.2191 H         1 UNK         0.0600 
    176 H176       -0.4683  -10.8182  -41.5108 H         1 UNK         0.0600 
    177 H177       -1.0225  -11.7713  -40.1356 H         1 UNK         0.0600 
    178 H178        0.6950  -11.6377  -40.4775 H         1 UNK         0.0600 
    179 H179       -1.7756  -12.6131  -43.3339 H         1 UNK         0.3000 
    180 H180       -4.4430  -14.7350  -42.7829 H         1 UNK         0.0600 
    181 H181       -6.0283  -12.8247  -42.6187 H         1 UNK         0.0600 
    182 H182       -4.7352  -11.7754  -42.0355 H         1 UNK         0.0600 
    183 H183       -5.2758  -13.1387  -41.0639 H         1 UNK         0.0600 
    184 H184       -4.0738  -12.2920  -44.3281 H         1 UNK         0.3000 
    185 H185       -4.2733  -13.0032  -46.7910 H         1 UNK         0.0600 
    186 H186       -1.3634  -12.3051  -46.1204 H         1 UNK         0.0600 
    187 H187       -2.2950  -11.5941  -47.4335 H         1 UNK         0.0600 
    188 H188       -2.7758  -11.3211  -45.7712 H         1 UNK         0.0600 
    189 H189       -3.5358  -14.4162  -48.3045 H         1 UNK         0.3000 
    190 H190        0.1327  -20.8132  -46.8056 H         1 UNK         0.3000 
    191 H191       -1.0636  -21.5907  -49.2149 H         1 UNK         0.0600 
    192 H192       -2.6138  -19.6999  -48.7290 H         1 UNK         0.0600 
    193 H193       -0.9499  -19.2738  -48.3680 H         1 UNK         0.0600 
    194 H194       -2.0650  -19.6546  -47.0587 H         1 UNK         0.0600 
    195 H195       -2.2614  -22.0398  -45.8519 H         1 UNK         0.3000 
    196 H196       -4.7556  -23.2164  -46.5203 H         1 UNK         0.0600 
    197 H197       -4.2661  -22.3074  -44.2765 H         1 UNK         0.0600 
    198 H198       -3.0292  -23.5335  -44.0092 H         1 UNK         0.0600 
    199 H199       -4.7205  -23.9995  -44.1452 H         1 UNK         0.0600 
    200 H200       -1.5543  -24.7283  -45.8518 H         1 UNK         0.3000 
    201 H201       -2.4045  -27.4327  -46.1465 H         1 UNK         0.0600 
    202 H202       -0.3204  -26.8013  -44.9729 H         1 UNK         0.0600 
    203 H203        0.3684  -26.1661  -46.4649 H         1 UNK         0.0600 
    204 H204        0.0499  -27.8895  -46.3022 H         1 UNK         0.0600 
    205 H205       -1.0977  -25.0715  -48.4875 H         1 UNK         0.3000 
    206 H206       -1.0547  -26.8581  -50.7448 H         1 UNK         0.0600 
    207 H207       -1.0608  -23.7952  -50.5877 H         1 UNK         0.0600 
    208 H208        0.3679  -24.8272  -50.5632 H         1 UNK         0.0600 
    209 H209       -0.6353  -24.7485  -52.0035 H         1 UNK         0.0600 
    210 H210       -3.6187  -25.2174  -49.1676 H         1 UNK         0.3000 
    211 H211       -5.7608  -24.8277  -49.4943 H         1 UNK         0.0600 
    212 H212       -5.6851  -26.8489  -51.7989 H         1 UNK         0.0600 
    213 H213       -7.1175  -26.2727  -50.9600 H         1 UNK         0.0600 
    214 H214       -5.9356  -27.2464  -50.0995 H         1 UNK         0.0600 
    215 H215       -4.1538  -22.9314  -50.3125 H         1 UNK         0.3000 
    216 H216       -4.2813  -22.0198  -52.9758 H         1 UNK         0.0600 
    217 H217       -3.3916  -19.9273  -51.9839 H         1 UNK         0.0600 
    218 H218       -2.6268  -21.3009  -51.2065 H         1 UNK         0.0600 
    219 H219       -3.9180  -20.4305  -50.3858 H         1 UNK         0.0600 
    220 H220       -5.8850  -21.0749  -54.1264 H         1 UNK         0.3000 
    221 H221       -8.4271  -20.3101  -52.9264 H         1 UNK         0.0600 
    222 H222       -7.3848  -20.1376  -55.8060 H         1 UNK         0.0600 
    223 H223       -8.3040  -21.4782  -55.1195 H         1 UNK         0.0600 
    224 H224       -9.0541  -19.9009  -55.3024 H         1 UNK         0.0600 
    225 H225       -5.4589  -18.6702  -53.6568 H         1 UNK         0.3000 
    226 H226       -6.3235  -16.1082  -52.7745 H         1 UNK         0.0600 
    227 H227       -7.1832  -15.9847  -55.1608 H         1 UNK         0.0600 
    228 H228       -5.8295  -14.8973  -54.9294 H         1 UNK         0.0600 
    229 H229       -5.5858  -16.4324  -55.7542 H         1 UNK         0.0600 
    230 H230       -4.2681  -14.5750  -53.3330 H         1 UNK         0.3000 
    231 H231       -2.0034  -15.7010  -52.0691 H         1 UNK         0.0600 
    232 H232       -0.9183  -13.5303  -52.6900 H         1 UNK         0.0600 
    233 H233       -2.5203  -13.2763  -52.0151 H         1 UNK         0.0600 
    234 H234       -2.2660  -13.1539  -53.7576 H         1 UNK         0.0600 
    235 H235       -0.1075  -16.5140  -52.7949 H         1 UNK         0.3000 
    236 H236        1.2942  -17.7156  -54.0016 H         1 UNK         0.0600 
    237 H237        1.9994  -16.9823  -56.2266 H         1 UNK         0.0600 
    238 H238        0.5433  -16.0224  -56.4368 H         1 UNK         0.0600 
    239 H239        1.7362  -15.5689  -55.2201 H         1 UNK         0.0600 
    240 H240       -1.6195  -18.4438  -53.8257 H         1 UNK         0.3000 
    241 H241       -3.0347  -20.0019  -54.3720 H         1 UNK         0.0600 
    242 H242       -3.6594  -17.9284  -57.5456 H         1 UNK         0.3800 
    243 H243       -2.6332  -17.5028  -56.1986 H         1 UNK         0.3800 
    244 H244       -0.8439  -21.3946  -55.9886 H         1 UNK         0.0800 
    245 H245       -2.4134  -22.0668  -55.6648 H         1 UNK         0.0800 
    246 H246        0.9408  -21.1008  -54.4704 H         1 UNK         0.0800 
    247 H247        1.1080  -22.7914  -54.0773 H         1 UNK         0.0800 
@<TRIPOS>BOND
     1    1    2 1    
     2    1  127 1    
     3    1  128 1    
     4    1  129 1    
     5    2    3 2    
     6    2    4 am   BACKBONE|DICT|INTERRES
     7    4    5 1    
     8    4  130 1    
     9    5    6 1    
    10    5   65 1    
    11    5  131 1    
    12    6    7 1    
    13    6  132 1    
    14    6  133 1    
    15    7    8 1    
    16    8    9 1    
    17    8  134 1    
    18    8  135 1    
    19    9   10 ar   
    20    9   14 ar   
    21   10   11 ar   
    22   10  136 1    
    23   11   12 ar   
    24   11  126 1    
    25   12   13 ar   
    26   12  137 1    
    27   13   14 ar   
    28   13   15 1    
    29   14  138 1    
    30   15   16 1    
    31   15  139 1    
    32   15  140 1    
    33   16   17 1    
    34   17   18 1    
    35   17  141 1    
    36   17  142 1    
    37   18   19 1    
    38   18   67 1    
    39   18  143 1    
    40   19   20 am   BACKBONE|DICT|INTERRES
    41   19  144 1    
    42   20   21 2    
    43   20   22 1    
    44   22   23 1    
    45   22   24 1    
    46   22  145 1    
    47   23  146 1    
    48   23  147 1    
    49   23  148 1    
    50   24   25 am   BACKBONE|DICT|INTERRES
    51   24  149 1    
    52   25   26 2    
    53   25   27 1    
    54   27   28 1    
    55   27   29 1    
    56   27  150 1    
    57   28  151 1    
    58   28  152 1    
    59   28  153 1    
    60   29   30 am   BACKBONE|DICT|INTERRES
    61   29  154 1    
    62   30   31 2    
    63   30   32 1    
    64   32   33 1    
    65   32   34 1    
    66   32  155 1    
    67   33  156 1    
    68   33  157 1    
    69   33  158 1    
    70   34   35 am   BACKBONE|DICT|INTERRES
    71   34  159 1    
    72   35   36 2    
    73   35   37 1    
    74   37   38 1    
    75   37   39 1    
    76   37  160 1    
    77   38  161 1    
    78   38  162 1    
    79   38  163 1    
    80   39   40 am   BACKBONE|DICT|INTERRES
    81   39  164 1    
    82   40   41 2    
    83   40   42 1    
    84   42   43 1    
    85   42   44 1    
    86   42  165 1    
    87   43  166 1    
    88   43  167 1    
    89   43  168 1    
    90   44   45 am   BACKBONE|DICT|INTERRES
    91   44  169 1    
    92   45   46 2    
    93   45   47 1    
    94   47   48 1    
    95   47   49 1    
    96   47  170 1    
    97   48  171 1    
    98   48  172 1    
    99   48  173 1    
   100   49   50 am   BACKBONE|DICT|INTERRES
   101   49  174 1    
   102   50   51 2    
   103   50   52 1    
   104   52   53 1    
   105   52   54 1    
   106   52  175 1    
   107   53  176 1    
   108   53  177 1    
   109   53  178 1    
   110   54   55 am   BACKBONE|DICT|INTERRES
   111   54  179 1    
   112   55   56 2    
   113   55   57 1    
   114   57   58 1    
   115   57   59 1    
   116   57  180 1    
   117   58  181 1    
   118   58  182 1    
   119   58  183 1    
   120   59   60 am   BACKBONE|DICT|INTERRES
   121   59  184 1    
   122   60   61 2    
   123   60   62 1    
   124   62   63 1    
   125   62   64 1    
   126   62  185 1    
   127   63  186 1    
   128   63  187 1    
   129   63  188 1    
   130   64   65 am   BACKBONE|DICT|INTERRES
   131   64  189 1    
   132   65   66 2    
   133   67   68 2    
   134   67   69 am   BACKBONE|DICT|INTERRES
   135   69   70 1    
   136   69  190 1    
   137   70   71 1    
   138   70   72 1    
   139   70  191 1    
   140   71  192 1    
   141   71  193 1    
   142   71  194 1    
   143   72   73 2    
   144   72   74 am   BACKBONE|DICT|INTERRES
   145   74   75 1    
   146   74  195 1    
   147   75   76 1    
   148   75   77 1    
   149   75  196 1    
   150   76  197 1    
   151   76  198 1    
   152   76  199 1    
   153   77   78 2    
   154   77   79 am   BACKBONE|DICT|INTERRES
   155   79   80 1    
   156   79  200 1    
   157   80   81 1    
   158   80   82 1    
   159   80  201 1    
   160   81  202 1    
   161   81  203 1    
   162   81  204 1    
   163   82   83 2    
   164   82   84 am   BACKBONE|DICT|INTERRES
   165   84   85 1    
   166   84  205 1    
   167   85   86 1    
   168   85   87 1    
   169   85  206 1    
   170   86  207 1    
   171   86  208 1    
   172   86  209 1    
   173   87   88 2    
   174   87   89 am   BACKBONE|DICT|INTERRES
   175   89   90 1    
   176   89  210 1    
   177   90   91 1    
   178   90   92 1    
   179   90  211 1    
   180   91  212 1    
   181   91  213 1    
   182   91  214 1    
   183   92   93 2    
   184   92   94 am   BACKBONE|DICT|INTERRES
   185   94   95 1    
   186   94  215 1    
   187   95   96 1    
   188   95   97 1    
   189   95  216 1    
   190   96  217 1    
   191   96  218 1    
   192   96  219 1    
   193   97   98 2    
   194   97   99 am   BACKBONE|DICT|INTERRES
   195   99  100 1    
   196   99  220 1    
   197  100  101 1    
   198  100  102 1    
   199  100  221 1    
   200  101  222 1    
   201  101  223 1    
   202  101  224 1    
   203  102  103 2    
   204  102  104 am   BACKBONE|DICT|INTERRES
   205  104  105 1    
   206  104  225 1    
   207  105  106 1    
   208  105  107 1    
   209  105  226 1    
   210  106  227 1    
   211  106  228 1    
   212  106  229 1    
   213  107  108 2    
   214  107  109 am   BACKBONE|DICT|INTERRES
   215  109  110 1    
   216  109  230 1    
   217  110  111 1    
   218  110  112 1    
   219  110  231 1    
   220  111  232 1    
   221  111  233 1    
   222  111  234 1    
   223  112  113 2    
   224  112  114 am   BACKBONE|DICT|INTERRES
   225  114  115 1    
   226  114  235 1    
   227  115  116 1    
   228  115  117 1    
   229  115  236 1    
   230  116  237 1    
   231  116  238 1    
   232  116  239 1    
   233  117  118 2    
   234  117  119 am   BACKBONE|DICT|INTERRES
   235  119  120 1    
   236  119  240 1    
   237  120  121 1    
   238  120  124 1    
   239  120  241 1    
   240  121  122 am   BACKBONE|DICT|INTERRES
   241  121  123 2    
   242  122  242 1    
   243  122  243 1    
   244  124  125 1    
   245  124  244 1    
   246  124  245 1    
   247  125  126 1    
   248  126  246 1    
   249  126  247 1    
@<TRIPOS>SUBSTRUCTURE
     1 UNK         1 GROUP             0       ****    0 ROOT    
