@<TRIPOS>MOLECULE
3R540
247   249    1
SMALL
USER_CHARGES


@<TRIPOS>ATOM
      1 CA          5.6990  -14.1319  -50.0316 C.3       0 UNK        -0.1800 
      2 C           4.6388  -14.3030  -48.9528 C.2       0 UNK         0.5000 
      3 O           4.8937  -13.9962  -47.7880 O.2       0 UNK        -0.5000 
      4 N           3.4548  -14.7955  -49.3347 N.am      1 UNK        -0.5000 
      5 CA          2.3020  -14.9815  -48.4515 C.3       1 UNK         0.1400 
      6 C6          1.2640  -15.9634  -49.0439 C.3       23 UNK        -0.0398 
      7 S7          1.8782  -17.6769  -49.1184 S.3       23 UNK        -0.2404 
      8 C8          2.6564  -17.7240  -50.7633 C.3       23 UNK        -0.0205 
      9 C9          2.4008  -19.0586  -51.4378 C.ar      23 UNK        -0.0193 
     10 C10         1.2668  -19.2256  -52.2349 C.ar      23 UNK        -0.1150 
     11 C11         0.9986  -20.4543  -52.8414 C.ar      23 UNK        -0.0193 
     12 C12         1.8782  -21.5237  -52.6383 C.ar      23 UNK        -0.1150 
     13 C13         3.0133  -21.3740  -51.8324 C.ar      23 UNK        -0.0193 
     14 C14         3.2781  -20.1299  -51.2503 C.ar      23 UNK        -0.1150 
     15 C15         3.9374  -22.5643  -51.5809 C.3       23 UNK        -0.0205 
     16 S16         4.2088  -22.9259  -49.8071 S.3       23 UNK        -0.2404 
     17 C17         2.5038  -22.8673  -49.1636 C.3       23 UNK        -0.0398 
     18 CA          2.2828  -23.5942  -47.8147 C.3       11 UNK         0.1400 
     19 N           3.2208  -23.1326  -46.7832 N.am      11 UNK        -0.5000 
     20 C           3.2730  -23.5482  -45.5098 C.2       10 UNK         0.5000 
     21 O           2.5426  -24.4251  -45.0455 O.2       10 UNK        -0.5000 
     22 CA          4.2648  -22.8270  -44.5723 C.3       10 UNK         0.1400 
     23 CB          5.3429  -22.0005  -45.3100 C.3       10 UNK        -0.1800 
     24 N           3.5643  -21.9910  -43.5887 N.am      10 UNK        -0.5000 
     25 C           2.6931  -21.0026  -43.8462 C.2       9 UNK         0.5000 
     26 O           2.3570  -20.6800  -44.9885 O.2       9 UNK        -0.5000 
     27 CA          2.0661  -20.3011  -42.6170 C.3       9 UNK         0.1400 
     28 CB          3.1179  -19.9086  -41.5570 C.3       9 UNK        -0.1800 
     29 N           1.2295  -19.1451  -42.9656 N.am      9 UNK        -0.5000 
     30 C           1.6099  -18.0106  -43.5749 C.2       8 UNK         0.5000 
     31 O           2.7790  -17.7355  -43.8497 O.2       8 UNK        -0.5000 
     32 CA          0.5067  -16.9939  -43.9395 C.3       8 UNK         0.1400 
     33 CB          0.3256  -16.8852  -45.4613 C.3       8 UNK        -0.1800 
     34 N          -0.7933  -17.2576  -43.3127 N.am      8 UNK        -0.5000 
     35 C          -1.0659  -16.9772  -42.0308 C.2       7 UNK         0.5000 
     36 O          -0.2563  -16.4628  -41.2584 O.2       7 UNK        -0.5000 
     37 CA         -2.4703  -17.3363  -41.5139 C.3       7 UNK         0.1400 
     38 CB         -3.4768  -16.2324  -41.8711 C.3       7 UNK        -0.1800 
     39 N          -2.9923  -18.6180  -41.9869 N.am      7 UNK        -0.5000 
     40 C          -2.4377  -19.8251  -41.8257 C.2       6 UNK         0.5000 
     41 O          -1.3143  -20.0058  -41.3562 O.2       6 UNK        -0.5000 
     42 CA         -3.2740  -21.0432  -42.2710 C.3       6 UNK         0.1400 
     43 CB         -4.3684  -21.3794  -41.2414 C.3       6 UNK        -0.1800 
     44 N          -3.8245  -20.9326  -43.6265 N.am      6 UNK        -0.5000 
     45 C          -4.7092  -20.0557  -44.1162 C.2       5 UNK         0.5000 
     46 O          -5.3366  -19.2431  -43.4321 O.2       5 UNK        -0.5000 
     47 CA         -4.8936  -20.0788  -45.6450 C.3       5 UNK         0.1400 
     48 CB         -6.1184  -20.9227  -46.0279 C.3       5 UNK        -0.1800 
     49 N          -5.0358  -18.7431  -46.2292 N.am      5 UNK        -0.5000 
     50 C          -4.2140  -17.6948  -46.0603 C.2       4 UNK         0.5000 
     51 O          -3.1904  -17.7252  -45.3690 O.2       4 UNK        -0.5000 
     52 CA         -4.5996  -16.4138  -46.8348 C.3       4 UNK         0.1400 
     53 CB         -6.1226  -16.1807  -46.8907 C.3       4 UNK        -0.1800 
     54 N          -3.9769  -15.2210  -46.2666 N.am      4 UNK        -0.5000 
     55 C          -2.7556  -14.7681  -46.5678 C.2       3 UNK         0.5000 
     56 O          -2.0136  -15.2798  -47.4119 O.2       3 UNK        -0.5000 
     57 CA         -2.2958  -13.5231  -45.7894 C.3       3 UNK         0.1400 
     58 CB         -2.3864  -13.7233  -44.2633 C.3       3 UNK        -0.1800 
     59 N          -0.9198  -13.2055  -46.1494 N.am      3 UNK        -0.5000 
     60 C          -0.3456  -11.9998  -46.0840 C.2       2 UNK         0.5000 
     61 O          -0.9469  -10.9801  -45.7427 O.2       2 UNK        -0.5000 
     62 CA          1.1568  -11.9107  -46.4261 C.3       2 UNK         0.1400 
     63 CB          1.9629  -11.4573  -45.1975 C.3       2 UNK        -0.1800 
     64 N           1.7203  -13.1770  -46.9025 N.am      2 UNK        -0.5000 
     65 C           1.6549  -13.6140  -48.1650 C.2       1 UNK         0.5000 
     66 O           1.1158  -12.9909  -49.0813 O.2       1 UNK        -0.5000 
     67 C           0.8046  -23.4221  -47.3968 C.2       11 UNK         0.5000 
     68 O          -0.0372  -24.2487  -47.7568 O.2       11 UNK        -0.5000 
     69 N           0.5157  -22.3652  -46.6211 N.am      12 UNK        -0.5000 
     70 CA         -0.8274  -21.9843  -46.1909 C.3       12 UNK         0.1400 
     71 CB         -0.7722  -20.6149  -45.5046 C.3       12 UNK        -0.1800 
     72 C          -1.4969  -23.0137  -45.2683 C.2       12 UNK         0.5000 
     73 O          -2.7232  -23.0031  -45.1709 O.2       12 UNK        -0.5000 
     74 N          -0.7120  -23.9024  -44.6419 N.am      13 UNK        -0.5000 
     75 CA         -1.2043  -25.0403  -43.8610 C.3       13 UNK         0.1400 
     76 CB         -0.0261  -25.6878  -43.1195 C.3       13 UNK        -0.1800 
     77 C          -1.9479  -26.0858  -44.7199 C.2       13 UNK         0.5000 
     78 O          -2.8094  -26.7931  -44.1978 O.2       13 UNK        -0.5000 
     79 N          -1.6321  -26.1360  -46.0220 N.am      14 UNK        -0.5000 
     80 CA         -2.3250  -26.9335  -47.0359 C.3       14 UNK         0.1400 
     81 CB         -1.2715  -27.5402  -47.9793 C.3       14 UNK        -0.1800 
     82 C          -3.3571  -26.0922  -47.8198 C.2       14 UNK         0.5000 
     83 O          -3.8580  -26.5555  -48.8445 O.2       14 UNK        -0.5000 
     84 N          -3.6333  -24.8656  -47.3470 N.am      15 UNK        -0.5000 
     85 CA         -4.4947  -23.8326  -47.9355 C.3       15 UNK         0.1400 
     86 CB         -5.9549  -24.3131  -48.0565 C.3       15 UNK        -0.1800 
     87 C          -3.9569  -23.2262  -49.2488 C.2       15 UNK         0.5000 
     88 O          -4.6843  -22.4945  -49.9204 O.2       15 UNK        -0.5000 
     89 N          -2.6889  -23.4982  -49.5814 N.am      16 UNK        -0.5000 
     90 CA         -1.9920  -22.9210  -50.7227 C.3       16 UNK         0.1400 
     91 CB         -0.9404  -23.9241  -51.2255 C.3       16 UNK        -0.1800 
     92 C          -1.3762  -21.5827  -50.2902 C.2       16 UNK         0.5000 
     93 O          -0.2693  -21.5653  -49.7600 O.2       16 UNK        -0.5000 
     94 N          -2.1237  -20.4915  -50.4666 N.am      17 UNK        -0.5000 
     95 CA         -1.7209  -19.1475  -50.0629 C.3       17 UNK         0.1400 
     96 CB         -2.2070  -18.8872  -48.6287 C.3       17 UNK        -0.1800 
     97 C          -2.2754  -18.1134  -51.0508 C.2       17 UNK         0.5000 
     98 O          -2.9708  -18.4798  -52.0048 O.2       17 UNK        -0.5000 
     99 N          -1.9589  -16.8363  -50.8032 N.am      18 UNK        -0.5000 
    100 CA        -2.4689  -15.6911  -51.5555 C.3       18 UNK         0.1400 
    101 CB        -1.7722  -14.4104  -51.0721 C.3       18 UNK        -0.1800 
    102 C         -3.9951  -15.5698  -51.4066 C.2       18 UNK         0.5000 
    103 O         -4.5047  -15.6593  -50.2887 O.2       18 UNK        -0.5000 
    104 N         -4.6944  -15.4300  -52.5382 N.am      19 UNK        -0.5000 
    105 CA        -6.1516  -15.3986  -52.7251 C.3       19 UNK         0.1400 
    106 CB        -6.8113  -14.2704  -51.9086 C.3       19 UNK        -0.1800 
    107 C         -6.8491  -16.7528  -52.4800 C.2       19 UNK         0.5000 
    108 O         -7.8418  -17.0441  -53.1478 O.2       19 UNK        -0.5000 
    109 N         -6.3169  -17.5651  -51.5577 N.am      20 UNK        -0.5000 
    110 CA        -6.7727  -18.9202  -51.2527 C.3       20 UNK         0.1400 
    111 CB        -6.0958  -19.3989  -49.9599 C.3       20 UNK        -0.1800 
    112 C         -6.5098  -19.9110  -52.4028 C.2       20 UNK         0.5000 
    113 O         -7.3250  -20.8084  -52.6210 O.2       20 UNK        -0.5000 
    114 N         -5.3979  -19.7201  -53.1255 N.am      21 UNK        -0.5000 
    115 CA        -5.0175  -20.5263  -54.2833 C.3       21 UNK         0.1400 
    116 CB        -4.2198  -21.7601  -53.8282 C.3       21 UNK        -0.1800 
    117 C         -4.2148  -19.7070  -55.3032 C.2       21 UNK         0.5000 
    118 O         -4.5128  -19.7728  -56.4966 O.2       21 UNK        -0.5000 
    119 N         -3.2083  -18.9665  -54.8254 N.am      22 UNK        -0.5000 
    120 CA        -2.2896  -18.1740  -55.6556 C.3       22 UNK         0.1400 
    121 C         -2.7616  -16.7026  -55.7975 C.2       22 UNK         0.5000 
    122 N         -2.4009  -16.0340  -56.8837 N.am      22 UNK        -0.7600 
    123 O         -3.4209  -16.1448  -54.9242 O.2       22 UNK        -0.5000 
    124 C124       -0.8426  -18.2451  -55.1050 C.3       23 UNK        -0.0398 
    125 S125       -0.1113  -19.9061  -55.3328 S.3       23 UNK        -0.2404 
    126 C126       -0.2623  -20.6392  -53.6748 C.3       23 UNK        -0.0205 
    127 H127        6.5851  -14.7158  -49.7825 H         1 UNK         0.0600 
    128 H128        5.9901  -13.0843  -50.1085 H         1 UNK         0.0600 
    129 H129        5.3408  -14.4583  -51.0083 H         1 UNK         0.0600 
    130 H130        3.2942  -14.9886  -50.3117 H         1 UNK         0.3000 
    131 H131        2.6571  -15.4027  -47.5079 H         1 UNK         0.0600 
    132 H132        0.3674  -15.9833  -48.4226 H         1 UNK         0.0800 
    133 H133        0.9348  -15.6416  -50.0323 H         1 UNK         0.0800 
    134 H134        2.2768  -16.9211  -51.3962 H         1 UNK         0.0800 
    135 H135        3.7285  -17.5515  -50.6578 H         1 UNK         0.0800 
    136 H136        0.5857  -18.3988  -52.3658 H         1 UNK         0.1150 
    137 H137        1.6682  -22.4807  -53.0942 H         1 UNK         0.1150 
    138 H138        4.1497  -20.0059  -50.6232 H         1 UNK         0.1150 
    139 H139        3.5402  -23.4625  -52.0560 H         1 UNK         0.0800 
    140 H140        4.9011  -22.3691  -52.0527 H         1 UNK         0.0800 
    141 H141        1.8439  -23.2861  -49.9244 H         1 UNK         0.0800 
    142 H142        2.2335  -21.8134  -49.0701 H         1 UNK         0.0800 
    143 H143        2.4599  -24.6611  -47.9622 H         1 UNK         0.0600 
    144 H144        3.8458  -22.3918  -47.0659 H         1 UNK         0.3000 
    145 H145        4.7770  -23.6101  -44.0114 H         1 UNK         0.0600 
    146 H146        6.0722  -21.6011  -44.6052 H         1 UNK         0.0600 
    147 H147        5.8923  -22.6165  -46.0232 H         1 UNK         0.0600 
    148 H148        4.9199  -21.1555  -45.8545 H         1 UNK         0.0600 
    149 H149        3.7499  -22.2208  -42.6229 H         1 UNK         0.3000 
    150 H150        1.3889  -21.0262  -42.1634 H         1 UNK         0.0600 
    151 H151        3.5920  -20.7874  -41.1197 H         1 UNK         0.0600 
    152 H152        2.6604  -19.3544  -40.7371 H         1 UNK         0.0600 
    153 H153        3.9081  -19.2871  -41.9795 H         1 UNK         0.0600 
    154 H154        0.2476  -19.2475  -42.7432 H         1 UNK         0.3000 
    155 H155        0.8667  -16.0233  -43.5912 H         1 UNK         0.0600 
    156 H156       -0.2980  -17.6828  -45.8616 H         1 UNK         0.0600 
    157 H157       -0.1466  -15.9405  -45.7163 H         1 UNK         0.0600 
    158 H158        1.2809  -16.9174  -45.9863 H         1 UNK         0.0600 
    159 H159       -1.5257  -17.6399  -43.9014 H         1 UNK         0.3000 
    160 H160       -2.4072  -17.3976  -40.4257 H         1 UNK         0.0600 
    161 H161       -4.4370  -16.4030  -41.3842 H         1 UNK         0.0600 
    162 H162       -3.6528  -16.1872  -42.9466 H         1 UNK         0.0600 
    163 H163       -3.1192  -15.2528  -41.5508 H         1 UNK         0.0600 
    164 H164       -3.9064  -18.5957  -42.4326 H         1 UNK         0.3000 
    165 H165       -2.5902  -21.8931  -42.3046 H         1 UNK         0.0600 
    166 H166       -4.9113  -22.2808  -41.5257 H         1 UNK         0.0600 
    167 H167       -3.9331  -21.5586  -40.2576 H         1 UNK         0.0600 
    168 H168       -5.0930  -20.5721  -41.1330 H         1 UNK         0.0600 
    169 H169       -3.4312  -21.6091  -44.2776 H         1 UNK         0.3000 
    170 H170       -4.0110  -20.5330  -46.0985 H         1 UNK         0.0600 
    171 H171       -6.0467  -21.9291  -45.6130 H         1 UNK         0.0600 
    172 H172       -7.0424  -20.4805  -45.6532 H         1 UNK         0.0600 
    173 H173       -6.2079  -21.0232  -47.1098 H         1 UNK         0.0600 
    174 H174       -5.8669  -18.6003  -46.7816 H         1 UNK         0.3000 
    175 H175       -4.2417  -16.5468  -47.8566 H         1 UNK         0.0600 
    176 H176       -6.3540  -15.2414  -47.3940 H         1 UNK         0.0600 
    177 H177       -6.5614  -16.1416  -45.8928 H         1 UNK         0.0600 
    178 H178       -6.6334  -16.9641  -47.4502 H         1 UNK         0.0600 
    179 H179       -4.4991  -14.7568  -45.5391 H         1 UNK         0.3000 
    180 H180       -2.9447  -12.6968  -46.0866 H         1 UNK         0.0600 
    181 H181       -1.7955  -14.5804  -43.9399 H         1 UNK         0.0600 
    182 H182       -3.4146  -13.8856  -43.9401 H         1 UNK         0.0600 
    183 H183       -2.0220  -12.8481  -43.7253 H         1 UNK         0.0600 
    184 H184       -0.3978  -13.9814  -46.5308 H         1 UNK         0.3000 
    185 H185        1.2693  -11.1527  -47.2042 H         1 UNK         0.0600 
    186 H186        1.8753  -12.1675  -44.3742 H         1 UNK         0.0600 
    187 H187        3.0209  -11.3496  -45.4378 H         1 UNK         0.0600 
    188 H188        1.6152  -10.4893  -44.8342 H         1 UNK         0.0600 
    189 H189        2.2133  -13.7301  -46.2158 H         1 UNK         0.3000 
    190 H190        1.2710  -21.7565  -46.3195 H         1 UNK         0.3000 
    191 H191       -1.4415  -21.8960  -47.0890 H         1 UNK         0.0600 
    192 H192       -0.1452  -19.9236  -46.0661 H         1 UNK         0.0600 
    193 H193       -1.7608  -20.1657  -45.4276 H         1 UNK         0.0600 
    194 H194       -0.3702  -20.6920  -44.4958 H         1 UNK         0.0600 
    195 H195        0.2884  -23.8589  -44.7937 H         1 UNK         0.3000 
    196 H196       -1.9096  -24.6600  -43.1191 H         1 UNK         0.0600 
    197 H197       -0.3674  -26.5036  -42.4810 H         1 UNK         0.0600 
    198 H198        0.4844  -24.9664  -42.4812 H         1 UNK         0.0600 
    199 H199        0.7076  -26.0995  -43.8137 H         1 UNK         0.0600 
    200 H200       -0.9221  -25.5045  -46.3787 H         1 UNK         0.3000 
    201 H201       -2.8684  -27.7538  -46.5628 H         1 UNK         0.0600 
    202 H202       -0.5356  -28.1230  -47.4252 H         1 UNK         0.0600 
    203 H203       -0.7377  -26.7698  -48.5369 H         1 UNK         0.0600 
    204 H204       -1.7327  -28.2104  -48.7056 H         1 UNK         0.0600 
    205 H205       -3.1797  -24.5856  -46.4860 H         1 UNK         0.3000 
    206 H206       -4.4867  -23.0109  -47.2204 H         1 UNK         0.0600 
    207 H207       -6.3174  -24.7150  -47.1105 H         1 UNK         0.0600 
    208 H208       -6.6154  -23.4897  -48.3311 H         1 UNK         0.0600 
    209 H209       -6.0676  -25.0856  -48.8172 H         1 UNK         0.0600 
    210 H210       -2.1264  -24.0580  -48.9548 H         1 UNK         0.3000 
    211 H211       -2.6940  -22.7430  -51.5372 H         1 UNK         0.0600 
    212 H212       -0.2496  -24.2209  -50.4374 H         1 UNK         0.0600 
    213 H213       -0.3516  -23.5004  -52.0386 H         1 UNK         0.0600 
    214 H214       -1.4153  -24.8291  -51.6045 H         1 UNK         0.0600 
    215 H215       -3.0240  -20.5593  -50.9218 H         1 UNK         0.3000 
    216 H216       -0.6333  -19.0638  -50.0899 H         1 UNK         0.0600 
    217 H217       -1.8761  -17.9161  -48.2593 H         1 UNK         0.0600 
    218 H218       -1.8161  -19.6354  -47.9426 H         1 UNK         0.0600 
    219 H219       -3.2937  -18.9170  -48.5678 H         1 UNK         0.0600 
    220 H220       -1.4542  -16.6160  -49.9577 H         1 UNK         0.3000 
    221 H221       -2.2182  -15.8415  -52.6065 H         1 UNK         0.0600 
    222 H222       -1.9180  -14.2496  -50.0031 H         1 UNK         0.0600 
    223 H223       -0.7005  -14.4451  -51.2649 H         1 UNK         0.0600 
    224 H224       -2.1630  -13.5344  -51.5912 H         1 UNK         0.0600 
    225 H225       -4.1737  -15.4898  -53.4133 H         1 UNK         0.3000 
    226 H226       -6.2987  -15.1654  -53.7808 H         1 UNK         0.0600 
    227 H227       -6.3342  -13.3103  -52.1046 H         1 UNK         0.0600 
    228 H228       -7.8651  -14.1698  -52.1710 H         1 UNK         0.0600 
    229 H229       -6.7635  -14.4578  -50.8356 H         1 UNK         0.0600 
    230 H230       -5.5328  -17.2068  -51.0243 H         1 UNK         0.3000 
    231 H231       -7.8505  -18.8825  -51.0814 H         1 UNK         0.0600 
    232 H232       -5.0180  -19.4961  -50.0856 H         1 UNK         0.0600 
    233 H233       -6.4783  -20.3756  -49.6611 H         1 UNK         0.0600 
    234 H234       -6.2803  -18.7106  -49.1364 H         1 UNK         0.0600 
    235 H235       -4.7740  -18.9630  -52.8704 H         1 UNK         0.3000 
    236 H236       -5.9215  -20.8683  -54.7921 H         1 UNK         0.0600 
    237 H237       -3.2865  -21.4695  -53.3478 H         1 UNK         0.0600 
    238 H238       -4.7892  -22.3661  -53.1229 H         1 UNK         0.0600 
    239 H239       -3.9673  -22.3965  -54.6771 H         1 UNK         0.0600 
    240 H240       -3.0630  -18.8997  -53.8227 H         1 UNK         0.3000 
    241 H241       -2.2753  -18.5944  -56.6635 H         1 UNK         0.0600 
    242 H242       -1.8576  -16.4629  -57.6172 H         1 UNK         0.3800 
    243 H243       -2.6921  -15.0739  -56.9833 H         1 UNK         0.3800 
    244 H244       -0.1951  -17.5417  -55.6315 H         1 UNK         0.0800 
    245 H245       -0.8174  -17.9498  -54.0564 H         1 UNK         0.0800 
    246 H246       -1.1186  -20.2120  -53.1543 H         1 UNK         0.0800 
    247 H247       -0.4823  -21.7011  -53.7905 H         1 UNK         0.0800 
@<TRIPOS>BOND
     1    1    2 1    
     2    1  127 1    
     3    1  128 1    
     4    1  129 1    
     5    2    3 2    
     6    2    4 am   BACKBONE|DICT|INTERRES
     7    4    5 1    
     8    4  130 1    
     9    5    6 1    
    10    5   65 1    
    11    5  131 1    
    12    6    7 1    
    13    6  132 1    
    14    6  133 1    
    15    7    8 1    
    16    8    9 1    
    17    8  134 1    
    18    8  135 1    
    19    9   10 ar   
    20    9   14 ar   
    21   10   11 ar   
    22   10  136 1    
    23   11   12 ar   
    24   11  126 1    
    25   12   13 ar   
    26   12  137 1    
    27   13   14 ar   
    28   13   15 1    
    29   14  138 1    
    30   15   16 1    
    31   15  139 1    
    32   15  140 1    
    33   16   17 1    
    34   17   18 1    
    35   17  141 1    
    36   17  142 1    
    37   18   19 1    
    38   18   67 1    
    39   18  143 1    
    40   19   20 am   BACKBONE|DICT|INTERRES
    41   19  144 1    
    42   20   21 2    
    43   20   22 1    
    44   22   23 1    
    45   22   24 1    
    46   22  145 1    
    47   23  146 1    
    48   23  147 1    
    49   23  148 1    
    50   24   25 am   BACKBONE|DICT|INTERRES
    51   24  149 1    
    52   25   26 2    
    53   25   27 1    
    54   27   28 1    
    55   27   29 1    
    56   27  150 1    
    57   28  151 1    
    58   28  152 1    
    59   28  153 1    
    60   29   30 am   BACKBONE|DICT|INTERRES
    61   29  154 1    
    62   30   31 2    
    63   30   32 1    
    64   32   33 1    
    65   32   34 1    
    66   32  155 1    
    67   33  156 1    
    68   33  157 1    
    69   33  158 1    
    70   34   35 am   BACKBONE|DICT|INTERRES
    71   34  159 1    
    72   35   36 2    
    73   35   37 1    
    74   37   38 1    
    75   37   39 1    
    76   37  160 1    
    77   38  161 1    
    78   38  162 1    
    79   38  163 1    
    80   39   40 am   BACKBONE|DICT|INTERRES
    81   39  164 1    
    82   40   41 2    
    83   40   42 1    
    84   42   43 1    
    85   42   44 1    
    86   42  165 1    
    87   43  166 1    
    88   43  167 1    
    89   43  168 1    
    90   44   45 am   BACKBONE|DICT|INTERRES
    91   44  169 1    
    92   45   46 2    
    93   45   47 1    
    94   47   48 1    
    95   47   49 1    
    96   47  170 1    
    97   48  171 1    
    98   48  172 1    
    99   48  173 1    
   100   49   50 am   BACKBONE|DICT|INTERRES
   101   49  174 1    
   102   50   51 2    
   103   50   52 1    
   104   52   53 1    
   105   52   54 1    
   106   52  175 1    
   107   53  176 1    
   108   53  177 1    
   109   53  178 1    
   110   54   55 am   BACKBONE|DICT|INTERRES
   111   54  179 1    
   112   55   56 2    
   113   55   57 1    
   114   57   58 1    
   115   57   59 1    
   116   57  180 1    
   117   58  181 1    
   118   58  182 1    
   119   58  183 1    
   120   59   60 am   BACKBONE|DICT|INTERRES
   121   59  184 1    
   122   60   61 2    
   123   60   62 1    
   124   62   63 1    
   125   62   64 1    
   126   62  185 1    
   127   63  186 1    
   128   63  187 1    
   129   63  188 1    
   130   64   65 am   BACKBONE|DICT|INTERRES
   131   64  189 1    
   132   65   66 2    
   133   67   68 2    
   134   67   69 am   BACKBONE|DICT|INTERRES
   135   69   70 1    
   136   69  190 1    
   137   70   71 1    
   138   70   72 1    
   139   70  191 1    
   140   71  192 1    
   141   71  193 1    
   142   71  194 1    
   143   72   73 2    
   144   72   74 am   BACKBONE|DICT|INTERRES
   145   74   75 1    
   146   74  195 1    
   147   75   76 1    
   148   75   77 1    
   149   75  196 1    
   150   76  197 1    
   151   76  198 1    
   152   76  199 1    
   153   77   78 2    
   154   77   79 am   BACKBONE|DICT|INTERRES
   155   79   80 1    
   156   79  200 1    
   157   80   81 1    
   158   80   82 1    
   159   80  201 1    
   160   81  202 1    
   161   81  203 1    
   162   81  204 1    
   163   82   83 2    
   164   82   84 am   BACKBONE|DICT|INTERRES
   165   84   85 1    
   166   84  205 1    
   167   85   86 1    
   168   85   87 1    
   169   85  206 1    
   170   86  207 1    
   171   86  208 1    
   172   86  209 1    
   173   87   88 2    
   174   87   89 am   BACKBONE|DICT|INTERRES
   175   89   90 1    
   176   89  210 1    
   177   90   91 1    
   178   90   92 1    
   179   90  211 1    
   180   91  212 1    
   181   91  213 1    
   182   91  214 1    
   183   92   93 2    
   184   92   94 am   BACKBONE|DICT|INTERRES
   185   94   95 1    
   186   94  215 1    
   187   95   96 1    
   188   95   97 1    
   189   95  216 1    
   190   96  217 1    
   191   96  218 1    
   192   96  219 1    
   193   97   98 2    
   194   97   99 am   BACKBONE|DICT|INTERRES
   195   99  100 1    
   196   99  220 1    
   197  100  101 1    
   198  100  102 1    
   199  100  221 1    
   200  101  222 1    
   201  101  223 1    
   202  101  224 1    
   203  102  103 2    
   204  102  104 am   BACKBONE|DICT|INTERRES
   205  104  105 1    
   206  104  225 1    
   207  105  106 1    
   208  105  107 1    
   209  105  226 1    
   210  106  227 1    
   211  106  228 1    
   212  106  229 1    
   213  107  108 2    
   214  107  109 am   BACKBONE|DICT|INTERRES
   215  109  110 1    
   216  109  230 1    
   217  110  111 1    
   218  110  112 1    
   219  110  231 1    
   220  111  232 1    
   221  111  233 1    
   222  111  234 1    
   223  112  113 2    
   224  112  114 am   BACKBONE|DICT|INTERRES
   225  114  115 1    
   226  114  235 1    
   227  115  116 1    
   228  115  117 1    
   229  115  236 1    
   230  116  237 1    
   231  116  238 1    
   232  116  239 1    
   233  117  118 2    
   234  117  119 am   BACKBONE|DICT|INTERRES
   235  119  120 1    
   236  119  240 1    
   237  120  121 1    
   238  120  124 1    
   239  120  241 1    
   240  121  122 am   BACKBONE|DICT|INTERRES
   241  121  123 2    
   242  122  242 1    
   243  122  243 1    
   244  124  125 1    
   245  124  244 1    
   246  124  245 1    
   247  125  126 1    
   248  126  246 1    
   249  126  247 1    
@<TRIPOS>SUBSTRUCTURE
     1 UNK         1 GROUP             0       ****    0 ROOT    
