@<TRIPOS>MOLECULE
3R540
247   249    1
SMALL
USER_CHARGES


@<TRIPOS>ATOM
      1 CA         -2.5626  -11.4250  -43.4472 C.3       0 UNK        -0.1800 
      2 C          -1.5431  -11.7440  -44.5315 C.2       0 UNK         0.5000 
      3 O          -0.3446  -11.7313  -44.2575 O.2       0 UNK        -0.5000 
      4 N          -2.0205  -12.0396  -45.7491 N.am      1 UNK        -0.5000 
      5 CA         -1.2396  -12.3767  -46.9478 C.3       1 UNK         0.1400 
      6 C6         -0.3062  -13.6044  -46.7290 C.3       23 UNK        -0.0398 
      7 S7         -0.0646  -14.5938  -48.2448 S.3       23 UNK        -0.2404 
      8 C8         -1.3238  -15.8735  -47.9764 C.3       23 UNK        -0.0205 
      9 C9         -1.5503  -16.7319  -49.2085 C.ar      23 UNK        -0.0193 
     10 C10        -2.3681  -16.2655  -50.2404 C.ar      23 UNK        -0.1150 
     11 C11        -2.6165  -17.0589  -51.3631 C.ar      23 UNK        -0.0193 
     12 C12        -2.0519  -18.3356  -51.4411 C.ar      23 UNK        -0.1150 
     13 C13        -1.2241  -18.8115  -50.4188 C.ar      23 UNK        -0.0193 
     14 C14        -0.9717  -18.0006  -49.3070 C.ar      23 UNK        -0.1150 
     15 C15        -0.5905  -20.1917  -50.5283 C.3       23 UNK        -0.0205 
     16 S16        -1.6614  -21.4890  -49.8263 S.3       23 UNK        -0.2404 
     17 C17        -1.4052  -21.2573  -48.0346 C.3       23 UNK        -0.0398 
     18 CA         -1.0493  -22.5713  -47.2916 C.3       11 UNK         0.1400 
     19 N          -0.1211  -22.3340  -46.1802 N.am      11 UNK        -0.5000 
     20 C           0.4759  -23.2928  -45.4580 C.2       10 UNK         0.5000 
     21 O           0.3224  -24.4956  -45.6615 O.2       10 UNK        -0.5000 
     22 CA          1.3523  -22.8370  -44.2781 C.3       10 UNK         0.1400 
     23 CB          2.7235  -22.3490  -44.7679 C.3       10 UNK        -0.1800 
     24 N           0.7105  -21.7990  -43.4710 N.am      10 UNK        -0.5000 
     25 C          -0.4255  -21.9760  -42.7803 C.2       9 UNK         0.5000 
     26 O          -1.0247  -23.0494  -42.7142 O.2       9 UNK        -0.5000 
     27 CA         -1.0220  -20.7357  -42.0901 C.3       9 UNK         0.1400 
     28 CB         -0.2962  -20.4399  -40.7694 C.3       9 UNK        -0.1800 
     29 N          -0.9944  -19.5471  -42.9424 N.am      9 UNK        -0.5000 
     30 C          -1.6229  -19.4376  -44.1215 C.2       8 UNK         0.5000 
     31 O          -2.3330  -20.3163  -44.6087 O.2       8 UNK        -0.5000 
     32 CA         -1.3579  -18.1552  -44.9254 C.3       8 UNK         0.1400 
     33 CB         -2.1931  -16.9800  -44.3922 C.3       8 UNK        -0.1800 
     34 N           0.0632  -17.8005  -44.9412 N.am      8 UNK        -0.5000 
     35 C           1.0198  -18.5519  -45.5073 C.2       7 UNK         0.5000 
     36 O           0.7972  -19.5941  -46.1194 O.2       7 UNK        -0.5000 
     37 CA          2.4723  -18.0935  -45.3130 C.3       7 UNK         0.1400 
     38 CB          2.8528  -17.0369  -46.3617 C.3       7 UNK        -0.1800 
     39 N           2.6908  -17.5747  -43.9629 N.am      7 UNK        -0.5000 
     40 C           2.7265  -18.3455  -42.8642 C.2       6 UNK         0.5000 
     41 O           2.6256  -19.5719  -42.8911 O.2       6 UNK        -0.5000 
     42 CA          2.8495  -17.6304  -41.5041 C.3       6 UNK         0.1400 
     43 CB          4.3260  -17.4144  -41.1415 C.3       6 UNK        -0.1800 
     44 N           2.1533  -16.3444  -41.4704 N.am      6 UNK        -0.5000 
     45 C           0.8308  -16.1863  -41.6205 C.2       5 UNK         0.5000 
     46 O           0.0412  -17.1261  -41.7083 O.2       5 UNK        -0.5000 
     47 CA          0.3099  -14.7409  -41.7569 C.3       5 UNK         0.1400 
     48 CB         -0.2302  -14.2317  -40.4131 C.3       5 UNK        -0.1800 
     49 N           1.3062  -13.7920  -42.2683 N.am      5 UNK        -0.5000 
     50 C           1.8994  -13.8768  -43.4664 C.2       4 UNK         0.5000 
     51 O           1.7004  -14.8004  -44.2611 O.2       4 UNK        -0.5000 
     52 CA          2.9170  -12.7807  -43.8110 C.3       4 UNK         0.1400 
     53 CB          4.2042  -12.9495  -42.9815 C.3       4 UNK        -0.1800 
     54 N           3.2300  -12.8684  -45.2330 N.am      4 UNK        -0.5000 
     55 C           3.7456  -11.8933  -45.9886 C.2       3 UNK         0.5000 
     56 O           4.0448  -10.7797  -45.5559 O.2       3 UNK        -0.5000 
     57 CA          3.9531  -12.2101  -47.4819 C.3       3 UNK         0.1400 
     58 CB          4.2823  -13.6920  -47.7500 C.3       3 UNK        -0.1800 
     59 N           2.7539  -11.8524  -48.2318 N.am      3 UNK        -0.5000 
     60 C           2.4611  -10.6321  -48.7042 C.2       2 UNK         0.5000 
     61 O           3.2247   -9.6679  -48.6475 O.2       2 UNK        -0.5000 
     62 CA          1.0684  -10.4642  -49.3457 C.3       2 UNK         0.1400 
     63 CB          1.1318  -10.7372  -50.8563 C.3       2 UNK        -0.1800 
     64 N           0.0856  -11.3628  -48.7366 N.am      2 UNK        -0.5000 
     65 C          -0.4697  -11.1676  -47.5338 C.2       1 UNK         0.5000 
     66 O          -0.3741  -10.1061  -46.9130 O.2       1 UNK        -0.5000 
     67 C          -2.3163  -23.3236  -46.8312 C.2       11 UNK         0.5000 
     68 O          -2.7508  -24.2645  -47.5002 O.2       11 UNK        -0.5000 
     69 N          -2.8703  -22.9160  -45.6798 N.am      12 UNK        -0.5000 
     70 CA         -4.0083  -23.5566  -45.0219 C.3       12 UNK         0.1400 
     71 CB         -4.4667  -22.7094  -43.8263 C.3       12 UNK        -0.1800 
     72 C          -3.7086  -25.0030  -44.5933 C.2       12 UNK         0.5000 
     73 O          -4.5302  -25.8860  -44.8365 O.2       12 UNK        -0.5000 
     74 N          -2.5304  -25.2276  -43.9988 N.am      13 UNK        -0.5000 
     75 CA         -2.0620  -26.5492  -43.5845 C.3       13 UNK         0.1400 
     76 CB         -0.8131  -26.3956  -42.7027 C.3       13 UNK        -0.1800 
     77 C          -1.7777  -27.4874  -44.7725 C.2       13 UNK         0.5000 
     78 O          -2.1435  -28.6623  -44.7171 O.2       13 UNK        -0.5000 
     79 N          -1.1209  -26.9597  -45.8134 N.am      14 UNK        -0.5000 
     80 CA         -0.6714  -27.7271  -46.9719 C.3       14 UNK         0.1400 
     81 CB          0.4546  -26.9623  -47.6859 C.3       14 UNK        -0.1800 
     82 C          -1.7938  -28.0625  -47.9668 C.2       14 UNK         0.5000 
     83 O          -1.8471  -29.1973  -48.4440 O.2       14 UNK        -0.5000 
     84 N          -2.6287  -27.0703  -48.3037 N.am      15 UNK        -0.5000 
     85 CA         -3.5066  -27.1223  -49.4769 C.3       15 UNK         0.1400 
     86 CB         -2.8668  -26.2601  -50.5787 C.3       15 UNK        -0.1800 
     87 C          -4.9459  -26.6553  -49.2062 C.2       15 UNK         0.5000 
     88 O          -5.7406  -26.6360  -50.1466 O.2       15 UNK        -0.5000 
     89 N          -5.2600  -26.2664  -47.9609 N.am      16 UNK        -0.5000 
     90 CA         -6.5022  -25.5908  -47.5555 C.3       16 UNK         0.1400 
     91 CB         -7.7397  -26.4910  -47.7615 C.3       16 UNK        -0.1800 
     92 C          -6.6426  -24.1900  -48.1949 C.2       16 UNK         0.5000 
     93 O          -7.7562  -23.7559  -48.4949 O.2       16 UNK        -0.5000 
     94 N          -5.4938  -23.5143  -48.3549 N.am      17 UNK        -0.5000 
     95 CA         -5.2724  -22.1901  -48.9407 C.3       17 UNK         0.1400 
     96 CB         -6.1185  -21.1086  -48.2377 C.3       17 UNK        -0.1800 
     97 C          -5.4278  -22.1562  -50.4749 C.2       17 UNK         0.5000 
     98 O          -5.9045  -23.1153  -51.0844 O.2       17 UNK        -0.5000 
     99 N          -4.9975  -21.0322  -51.0679 N.am      18 UNK        -0.5000 
    100 CA        -5.0687  -20.7030  -52.4968 C.3       18 UNK         0.1400 
    101 CB        -6.5379  -20.5400  -52.9419 C.3       18 UNK        -0.1800 
    102 C         -4.2597  -21.6564  -53.4056 C.2       18 UNK         0.5000 
    103 O         -4.6949  -21.9620  -54.5169 O.2       18 UNK        -0.5000 
    104 N         -3.0874  -22.1020  -52.9268 N.am      19 UNK        -0.5000 
    105 CA        -2.1536  -22.9361  -53.6944 C.3       19 UNK         0.1400 
    106 CB        -1.1401  -23.5847  -52.7397 C.3       19 UNK        -0.1800 
    107 C         -1.4091  -22.1460  -54.7888 C.2       19 UNK         0.5000 
    108 O         -1.0548  -22.7161  -55.8218 O.2       19 UNK        -0.5000 
    109 N         -1.1798  -20.8523  -54.5317 N.am      20 UNK        -0.5000 
    110 CA        -0.5863  -19.8946  -55.4625 C.3       20 UNK         0.1400 
    111 CB         0.0417  -18.7543  -54.6432 C.3       20 UNK        -0.1800 
    112 C         -1.6339  -19.3578  -56.4584 C.2       20 UNK         0.5000 
    113 O         -2.8233  -19.6596  -56.3343 O.2       20 UNK        -0.5000 
    114 N         -1.1790  -18.5361  -57.4151 N.am      21 UNK        -0.5000 
    115 CA        -1.9858  -17.9336  -58.4867 C.3       21 UNK         0.1400 
    116 CB        -1.0652  -17.1010  -59.3923 C.3       21 UNK        -0.1800 
    117 C         -3.1824  -17.0818  -58.0086 C.2       21 UNK         0.5000 
    118 O         -4.1528  -16.9315  -58.7522 O.2       21 UNK        -0.5000 
    119 N         -3.1038  -16.5645  -56.7770 N.am      22 UNK        -0.5000 
    120 CA        -4.2087  -15.9209  -56.0505 C.3       22 UNK         0.1400 
    121 C         -5.3404  -16.8838  -55.5785 C.2       22 UNK         0.5000 
    122 N         -5.1778  -18.2003  -55.6332 N.am      22 UNK        -0.7600 
    123 O         -6.3998  -16.4225  -55.1635 O.2       22 UNK        -0.5000 
    124 C124       -3.6926  -15.0273  -54.8906 C.3       23 UNK        -0.0398 
    125 S125       -2.4473  -15.8210  -53.8122 S.3       23 UNK        -0.2404 
    126 C126       -3.4818  -16.5267  -52.4942 C.3       23 UNK        -0.0205 
    127 H127       -3.5859  -11.4990  -43.8162 H         1 UNK         0.0600 
    128 H128       -2.4074  -10.4129  -43.0736 H         1 UNK         0.0600 
    129 H129       -2.4505  -12.1182  -42.6134 H         1 UNK         0.0600 
    130 H130       -3.0192  -11.9954  -45.8956 H         1 UNK         0.3000 
    131 H131       -1.9932  -12.6464  -47.6896 H         1 UNK         0.0600 
    132 H132        0.6674  -13.2945  -46.3491 H         1 UNK         0.0800 
    133 H133       -0.7108  -14.2595  -45.9567 H         1 UNK         0.0800 
    134 H134       -1.0017  -16.4931  -47.1437 H         1 UNK         0.0800 
    135 H135       -2.2659  -15.4108  -47.6781 H         1 UNK         0.0800 
    136 H136       -2.8061  -15.2796  -50.1708 H         1 UNK         0.1150 
    137 H137       -2.2443  -18.9489  -52.3081 H         1 UNK         0.1150 
    138 H138       -0.3286  -18.3556  -48.5144 H         1 UNK         0.1150 
    139 H139       -0.3973  -20.4226  -51.5763 H         1 UNK         0.0800 
    140 H140        0.3847  -20.2057  -50.0389 H         1 UNK         0.0800 
    141 H141       -2.2706  -20.7546  -47.5984 H         1 UNK         0.0800 
    142 H142       -0.5839  -20.5549  -47.9264 H         1 UNK         0.0800 
    143 H143       -0.5213  -23.2287  -47.9859 H         1 UNK         0.0600 
    144 H144        0.0927  -21.3628  -45.9689 H         1 UNK         0.3000 
    145 H145        1.5148  -23.7038  -43.6341 H         1 UNK         0.0600 
    146 H146        3.3757  -22.1028  -43.9299 H         1 UNK         0.0600 
    147 H147        3.2249  -23.1197  -45.3546 H         1 UNK         0.0600 
    148 H148        2.6376  -21.4624  -45.3958 H         1 UNK         0.0600 
    149 H149        1.1729  -20.8966  -43.4377 H         1 UNK         0.3000 
    150 H150       -2.0673  -20.9535  -41.8619 H         1 UNK         0.0600 
    151 H151       -0.3374  -21.3003  -40.1005 H         1 UNK         0.0600 
    152 H152       -0.7539  -19.5990  -40.2480 H         1 UNK         0.0600 
    153 H153        0.7546  -20.1998  -40.9317 H         1 UNK         0.0600 
    154 H154       -0.4681  -18.7494  -42.5963 H         1 UNK         0.3000 
    155 H155       -1.6670  -18.3526  -45.9538 H         1 UNK         0.0600 
    156 H156       -1.9682  -16.7584  -43.3496 H         1 UNK         0.0600 
    157 H157       -3.2582  -17.2064  -44.4521 H         1 UNK         0.0600 
    158 H158       -2.0231  -16.0720  -44.9690 H         1 UNK         0.0600 
    159 H159        0.3395  -16.9667  -44.4419 H         1 UNK         0.3000 
    160 H160        3.1237  -18.9582  -45.4555 H         1 UNK         0.0600 
    161 H161        2.1608  -16.1950  -46.3639 H         1 UNK         0.0600 
    162 H162        2.8343  -17.4665  -47.3640 H         1 UNK         0.0600 
    163 H163        3.8576  -16.6503  -46.1914 H         1 UNK         0.0600 
    164 H164        2.6928  -16.5666  -43.8640 H         1 UNK         0.3000 
    165 H165        2.4005  -18.2762  -40.7468 H         1 UNK         0.0600 
    166 H166        4.4286  -16.9798  -40.1469 H         1 UNK         0.0600 
    167 H167        4.8694  -18.3603  -41.1392 H         1 UNK         0.0600 
    168 H168        4.8228  -16.7516  -41.8513 H         1 UNK         0.0600 
    169 H169        2.7267  -15.5174  -41.4000 H         1 UNK         0.3000 
    170 H170       -0.5168  -14.7623  -42.4701 H         1 UNK         0.0600 
    171 H171       -0.9935  -14.9041  -40.0187 H         1 UNK         0.0600 
    172 H172        0.5596  -14.1557  -39.6647 H         1 UNK         0.0600 
    173 H173       -0.6896  -13.2488  -40.5200 H         1 UNK         0.0600 
    174 H174        1.5192  -13.0038  -41.6743 H         1 UNK         0.3000 
    175 H175        2.4598  -11.8115  -43.6007 H         1 UNK         0.0600 
    176 H176        4.6786  -13.9134  -43.1702 H         1 UNK         0.0600 
    177 H177        4.9305  -12.1703  -43.2127 H         1 UNK         0.0600 
    178 H178        3.9985  -12.8866  -41.9125 H         1 UNK         0.0600 
    179 H179        2.9642  -13.7504  -45.6517 H         1 UNK         0.3000 
    180 H180        4.7977  -11.6121  -47.8312 H         1 UNK         0.0600 
    181 H181        3.4335  -14.3464  -47.5503 H         1 UNK         0.0600 
    182 H182        5.1173  -14.0284  -47.1338 H         1 UNK         0.0600 
    183 H183        4.5704  -13.8414  -48.7907 H         1 UNK         0.0600 
    184 H184        2.0579  -12.5757  -48.3292 H         1 UNK         0.3000 
    185 H185        0.7493   -9.4302  -49.1975 H         1 UNK         0.0600 
    186 H186        1.8441  -10.0698  -51.3431 H         1 UNK         0.0600 
    187 H187        1.4421  -11.7609  -51.0695 H         1 UNK         0.0600 
    188 H188        0.1619  -10.5753  -51.3269 H         1 UNK         0.0600 
    189 H189       -0.0638  -12.2486  -49.2011 H         1 UNK         0.3000 
    190 H190       -2.4857  -22.0980  -45.2128 H         1 UNK         0.3000 
    191 H191       -4.8320  -23.5864  -45.7340 H         1 UNK         0.0600 
    192 H192       -4.7654  -21.7105  -44.1447 H         1 UNK         0.0600 
    193 H193       -5.3262  -23.1637  -43.3319 H         1 UNK         0.0600 
    194 H194       -3.6786  -22.6004  -43.0815 H         1 UNK         0.0600 
    195 H195       -1.9227  -24.4405  -43.7907 H         1 UNK         0.3000 
    196 H196       -2.8463  -27.0091  -42.9795 H         1 UNK         0.0600 
    197 H197       -0.4478  -27.3672  -42.3680 H         1 UNK         0.0600 
    198 H198       -1.0306  -25.8051  -41.8124 H         1 UNK         0.0600 
    199 H199        0.0001  -25.9040  -43.2377 H         1 UNK         0.0600 
    200 H200       -0.8041  -25.9944  -45.7581 H         1 UNK         0.3000 
    201 H201       -0.2531  -28.6709  -46.6150 H         1 UNK         0.0600 
    202 H202        1.3016  -26.7967  -47.0199 H         1 UNK         0.0600 
    203 H203        0.1163  -25.9892  -48.0447 H         1 UNK         0.0600 
    204 H204        0.8231  -27.5205  -48.5475 H         1 UNK         0.0600 
    205 H205       -2.5186  -26.1573  -47.8706 H         1 UNK         0.3000 
    206 H206       -3.5926  -28.1442  -49.8513 H         1 UNK         0.0600 
    207 H207       -1.8606  -26.6038  -50.8190 H         1 UNK         0.0600 
    208 H208       -3.4484  -26.2918  -51.5009 H         1 UNK         0.0600 
    209 H209       -2.8014  -25.2170  -50.2663 H         1 UNK         0.0600 
    210 H210       -4.5553  -26.3519  -47.2405 H         1 UNK         0.3000 
    211 H211       -6.4229  -25.4148  -46.4838 H         1 UNK         0.0600 
    212 H212       -7.9754  -26.6313  -48.8163 H         1 UNK         0.0600 
    213 H213       -8.6200  -26.0523  -47.2905 H         1 UNK         0.0600 
    214 H214       -7.5906  -27.4742  -47.3154 H         1 UNK         0.0600 
    215 H215       -4.6390  -24.0019  -48.1073 H         1 UNK         0.3000 
    216 H216       -4.2302  -21.9645  -48.7287 H         1 UNK         0.0600 
    217 H217       -5.8000  -20.1075  -48.5294 H         1 UNK         0.0600 
    218 H218       -6.0185  -21.1731  -47.1540 H         1 UNK         0.0600 
    219 H219       -7.1769  -21.1942  -48.4845 H         1 UNK         0.0600 
    220 H220       -4.5957  -20.3125  -50.4834 H         1 UNK         0.3000 
    221 H221       -4.5948  -19.7273  -52.6045 H         1 UNK         0.0600 
    222 H222       -7.0815  -21.4842  -52.8998 H         1 UNK         0.0600 
    223 H223       -7.0628  -19.8224  -52.3114 H         1 UNK         0.0600 
    224 H224       -6.6022  -20.1754  -53.9668 H         1 UNK         0.0600 
    225 H225       -2.8138  -21.8532  -51.9860 H         1 UNK         0.3000 
    226 H226       -2.7218  -23.7327  -54.1795 H         1 UNK         0.0600 
    227 H227       -1.6397  -24.1175  -51.9340 H         1 UNK         0.0600 
    228 H228       -0.5154  -24.3057  -53.2683 H         1 UNK         0.0600 
    229 H229       -0.4753  -22.8470  -52.2900 H         1 UNK         0.0600 
    230 H230       -1.5569  -20.4729  -53.6795 H         1 UNK         0.3000 
    231 H231        0.2017  -20.3905  -56.0330 H         1 UNK         0.0600 
    232 H232       -0.7099  -18.1996  -54.0833 H         1 UNK         0.0600 
    233 H233        0.5647  -18.0426  -55.2826 H         1 UNK         0.0600 
    234 H234        0.7710  -19.1379  -53.9293 H         1 UNK         0.0600 
    235 H235       -0.1916  -18.3256  -57.4392 H         1 UNK         0.3000 
    236 H236       -2.3966  -18.7529  -59.0802 H         1 UNK         0.0600 
    237 H237       -0.2761  -17.7152  -59.8266 H         1 UNK         0.0600 
    238 H238       -1.6233  -16.6605  -60.2198 H         1 UNK         0.0600 
    239 H239       -0.5940  -16.2848  -58.8432 H         1 UNK         0.0600 
    240 H240       -2.2718  -16.7397  -56.2332 H         1 UNK         0.3000 
    241 H241       -4.6980  -15.2509  -56.7601 H         1 UNK         0.0600 
    242 H242       -5.9384  -18.7965  -55.3547 H         1 UNK         0.3800 
    243 H243       -4.3120  -18.6204  -55.9644 H         1 UNK         0.3800 
    244 H244       -3.2157  -14.1453  -55.3197 H         1 UNK         0.0800 
    245 H245       -4.5148  -14.6381  -54.2873 H         1 UNK         0.0800 
    246 H246       -4.0989  -17.3281  -52.9008 H         1 UNK         0.0800 
    247 H247       -4.1677  -15.7662  -52.1179 H         1 UNK         0.0800 
@<TRIPOS>BOND
     1    1    2 1    
     2    1  127 1    
     3    1  128 1    
     4    1  129 1    
     5    2    3 2    
     6    2    4 am   BACKBONE|DICT|INTERRES
     7    4    5 1    
     8    4  130 1    
     9    5    6 1    
    10    5   65 1    
    11    5  131 1    
    12    6    7 1    
    13    6  132 1    
    14    6  133 1    
    15    7    8 1    
    16    8    9 1    
    17    8  134 1    
    18    8  135 1    
    19    9   10 ar   
    20    9   14 ar   
    21   10   11 ar   
    22   10  136 1    
    23   11   12 ar   
    24   11  126 1    
    25   12   13 ar   
    26   12  137 1    
    27   13   14 ar   
    28   13   15 1    
    29   14  138 1    
    30   15   16 1    
    31   15  139 1    
    32   15  140 1    
    33   16   17 1    
    34   17   18 1    
    35   17  141 1    
    36   17  142 1    
    37   18   19 1    
    38   18   67 1    
    39   18  143 1    
    40   19   20 am   BACKBONE|DICT|INTERRES
    41   19  144 1    
    42   20   21 2    
    43   20   22 1    
    44   22   23 1    
    45   22   24 1    
    46   22  145 1    
    47   23  146 1    
    48   23  147 1    
    49   23  148 1    
    50   24   25 am   BACKBONE|DICT|INTERRES
    51   24  149 1    
    52   25   26 2    
    53   25   27 1    
    54   27   28 1    
    55   27   29 1    
    56   27  150 1    
    57   28  151 1    
    58   28  152 1    
    59   28  153 1    
    60   29   30 am   BACKBONE|DICT|INTERRES
    61   29  154 1    
    62   30   31 2    
    63   30   32 1    
    64   32   33 1    
    65   32   34 1    
    66   32  155 1    
    67   33  156 1    
    68   33  157 1    
    69   33  158 1    
    70   34   35 am   BACKBONE|DICT|INTERRES
    71   34  159 1    
    72   35   36 2    
    73   35   37 1    
    74   37   38 1    
    75   37   39 1    
    76   37  160 1    
    77   38  161 1    
    78   38  162 1    
    79   38  163 1    
    80   39   40 am   BACKBONE|DICT|INTERRES
    81   39  164 1    
    82   40   41 2    
    83   40   42 1    
    84   42   43 1    
    85   42   44 1    
    86   42  165 1    
    87   43  166 1    
    88   43  167 1    
    89   43  168 1    
    90   44   45 am   BACKBONE|DICT|INTERRES
    91   44  169 1    
    92   45   46 2    
    93   45   47 1    
    94   47   48 1    
    95   47   49 1    
    96   47  170 1    
    97   48  171 1    
    98   48  172 1    
    99   48  173 1    
   100   49   50 am   BACKBONE|DICT|INTERRES
   101   49  174 1    
   102   50   51 2    
   103   50   52 1    
   104   52   53 1    
   105   52   54 1    
   106   52  175 1    
   107   53  176 1    
   108   53  177 1    
   109   53  178 1    
   110   54   55 am   BACKBONE|DICT|INTERRES
   111   54  179 1    
   112   55   56 2    
   113   55   57 1    
   114   57   58 1    
   115   57   59 1    
   116   57  180 1    
   117   58  181 1    
   118   58  182 1    
   119   58  183 1    
   120   59   60 am   BACKBONE|DICT|INTERRES
   121   59  184 1    
   122   60   61 2    
   123   60   62 1    
   124   62   63 1    
   125   62   64 1    
   126   62  185 1    
   127   63  186 1    
   128   63  187 1    
   129   63  188 1    
   130   64   65 am   BACKBONE|DICT|INTERRES
   131   64  189 1    
   132   65   66 2    
   133   67   68 2    
   134   67   69 am   BACKBONE|DICT|INTERRES
   135   69   70 1    
   136   69  190 1    
   137   70   71 1    
   138   70   72 1    
   139   70  191 1    
   140   71  192 1    
   141   71  193 1    
   142   71  194 1    
   143   72   73 2    
   144   72   74 am   BACKBONE|DICT|INTERRES
   145   74   75 1    
   146   74  195 1    
   147   75   76 1    
   148   75   77 1    
   149   75  196 1    
   150   76  197 1    
   151   76  198 1    
   152   76  199 1    
   153   77   78 2    
   154   77   79 am   BACKBONE|DICT|INTERRES
   155   79   80 1    
   156   79  200 1    
   157   80   81 1    
   158   80   82 1    
   159   80  201 1    
   160   81  202 1    
   161   81  203 1    
   162   81  204 1    
   163   82   83 2    
   164   82   84 am   BACKBONE|DICT|INTERRES
   165   84   85 1    
   166   84  205 1    
   167   85   86 1    
   168   85   87 1    
   169   85  206 1    
   170   86  207 1    
   171   86  208 1    
   172   86  209 1    
   173   87   88 2    
   174   87   89 am   BACKBONE|DICT|INTERRES
   175   89   90 1    
   176   89  210 1    
   177   90   91 1    
   178   90   92 1    
   179   90  211 1    
   180   91  212 1    
   181   91  213 1    
   182   91  214 1    
   183   92   93 2    
   184   92   94 am   BACKBONE|DICT|INTERRES
   185   94   95 1    
   186   94  215 1    
   187   95   96 1    
   188   95   97 1    
   189   95  216 1    
   190   96  217 1    
   191   96  218 1    
   192   96  219 1    
   193   97   98 2    
   194   97   99 am   BACKBONE|DICT|INTERRES
   195   99  100 1    
   196   99  220 1    
   197  100  101 1    
   198  100  102 1    
   199  100  221 1    
   200  101  222 1    
   201  101  223 1    
   202  101  224 1    
   203  102  103 2    
   204  102  104 am   BACKBONE|DICT|INTERRES
   205  104  105 1    
   206  104  225 1    
   207  105  106 1    
   208  105  107 1    
   209  105  226 1    
   210  106  227 1    
   211  106  228 1    
   212  106  229 1    
   213  107  108 2    
   214  107  109 am   BACKBONE|DICT|INTERRES
   215  109  110 1    
   216  109  230 1    
   217  110  111 1    
   218  110  112 1    
   219  110  231 1    
   220  111  232 1    
   221  111  233 1    
   222  111  234 1    
   223  112  113 2    
   224  112  114 am   BACKBONE|DICT|INTERRES
   225  114  115 1    
   226  114  235 1    
   227  115  116 1    
   228  115  117 1    
   229  115  236 1    
   230  116  237 1    
   231  116  238 1    
   232  116  239 1    
   233  117  118 2    
   234  117  119 am   BACKBONE|DICT|INTERRES
   235  119  120 1    
   236  119  240 1    
   237  120  121 1    
   238  120  124 1    
   239  120  241 1    
   240  121  122 am   BACKBONE|DICT|INTERRES
   241  121  123 2    
   242  122  242 1    
   243  122  243 1    
   244  124  125 1    
   245  124  244 1    
   246  124  245 1    
   247  125  126 1    
   248  126  246 1    
   249  126  247 1    
@<TRIPOS>SUBSTRUCTURE
     1 UNK         1 GROUP             0       ****    0 ROOT    
