@<TRIPOS>MOLECULE
3R540
247   249    1
SMALL
USER_CHARGES


@<TRIPOS>ATOM
      1 CA          2.6002  -16.1155  -46.9208 C.3       0 UNK        -0.1800 
      2 C           2.2607  -14.8090  -46.2187 C.2       0 UNK         0.5000 
      3 O           2.8561  -14.4936  -45.1905 O.2       0 UNK        -0.5000 
      4 N           1.3203  -14.0413  -46.7845 N.am      1 UNK        -0.5000 
      5 CA          0.7478  -12.7976  -46.2408 C.3       1 UNK         0.1400 
      6 C6         -0.3323  -12.1961  -47.1790 C.3       23 UNK        -0.0398 
      7 S7         -1.5825  -13.4102  -47.7240 S.3       23 UNK        -0.2404 
      8 C8         -0.9617  -13.7933  -49.3968 C.3       23 UNK        -0.0205 
      9 C9         -1.5205  -15.1022  -49.9358 C.ar      23 UNK        -0.0193 
     10 C10        -2.2031  -15.1346  -51.1563 C.ar      23 UNK        -0.1150 
     11 C11        -2.6873  -16.3427  -51.6696 C.ar      23 UNK        -0.0193 
     12 C12        -2.4896  -17.5221  -50.9445 C.ar      23 UNK        -0.1150 
     13 C13        -1.8234  -17.5007  -49.7175 C.ar      23 UNK        -0.0193 
     14 C14        -1.3272  -16.2914  -49.2268 C.ar      23 UNK        -0.1150 
     15 C15        -1.6847  -18.7654  -48.8900 C.3       23 UNK        -0.0205 
     16 S16        -0.1813  -19.7131  -49.3015 S.3       23 UNK        -0.2404 
     17 C17         0.4116  -20.1945  -47.6314 C.3       23 UNK        -0.0398 
     18 CA          0.0035  -21.5900  -47.0673 C.3       11 UNK         0.1400 
     19 N           0.1002  -21.6212  -45.6040 N.am      11 UNK        -0.5000 
     20 C          -0.0660  -22.7017  -44.8266 C.2       10 UNK         0.5000 
     21 O          -0.2417  -23.8405  -45.2601 O.2       10 UNK        -0.5000 
     22 CA         -0.0941  -22.4590  -43.3055 C.3       10 UNK         0.1400 
     23 CB          1.3294  -22.3390  -42.7418 C.3       10 UNK        -0.1800 
     24 N          -0.8754  -21.2762  -42.9348 N.am      10 UNK        -0.5000 
     25 C          -2.1928  -21.1409  -43.1484 C.2       9 UNK         0.5000 
     26 O          -2.8972  -22.0198  -43.6429 O.2       9 UNK        -0.5000 
     27 CA         -2.8240  -19.7796  -42.8031 C.3       9 UNK         0.1400 
     28 CB         -3.0928  -19.6612  -41.2958 C.3       9 UNK        -0.1800 
     29 N          -2.0123  -18.6496  -43.2573 N.am      9 UNK        -0.5000 
     30 C          -1.7207  -18.3993  -44.5413 C.2       8 UNK         0.5000 
     31 O          -2.1462  -19.0750  -45.4766 O.2       8 UNK        -0.5000 
     32 CA         -0.7432  -17.2435  -44.8272 C.3       8 UNK         0.1400 
     33 CB         -1.4622  -15.8898  -44.7714 C.3       8 UNK        -0.1800 
     34 N           0.4008  -17.2439  -43.9140 N.am      8 UNK        -0.5000 
     35 C           1.2976  -18.2378  -43.8269 C.2       7 UNK         0.5000 
     36 O           1.3039  -19.2178  -44.5708 O.2       7 UNK        -0.5000 
     37 CA          2.3193  -18.1584  -42.6808 C.3       7 UNK         0.1400 
     38 CB          3.5183  -17.2765  -43.0562 C.3       7 UNK        -0.1800 
     39 N           1.7061  -17.6713  -41.4459 N.am      7 UNK        -0.5000 
     40 C           0.8337  -18.3772  -40.7122 C.2       6 UNK         0.5000 
     41 O           0.5011  -19.5327  -40.9745 O.2       6 UNK        -0.5000 
     42 CA          0.1973  -17.6567  -39.5087 C.3       6 UNK         0.1400 
     43 CB          1.1042  -17.7649  -38.2741 C.3       6 UNK        -0.1800 
     44 N          -0.0802  -16.2457  -39.7825 N.am      6 UNK        -0.5000 
     45 C          -0.9923  -15.8062  -40.6622 C.2       5 UNK         0.5000 
     46 O          -1.7459  -16.5497  -41.2880 O.2       5 UNK        -0.5000 
     47 CA         -1.0261  -14.2872  -40.9267 C.3       5 UNK         0.1400 
     48 CB         -1.9818  -13.5886  -39.9487 C.3       5 UNK        -0.1800 
     49 N           0.3019  -13.6719  -40.8363 N.am      5 UNK        -0.5000 
     50 C           1.3164  -13.9559  -41.6632 C.2       4 UNK         0.5000 
     51 O           1.2093  -14.7051  -42.6354 O.2       4 UNK        -0.5000 
     52 CA          2.6886  -13.3975  -41.2678 C.3       4 UNK         0.1400 
     53 CB          3.2817  -14.2638  -40.1341 C.3       4 UNK        -0.1800 
     54 N           3.5864  -13.3846  -42.4222 N.am      4 UNK        -0.5000 
     55 C           4.7970  -12.8091  -42.4393 C.2       3 UNK         0.5000 
     56 O           5.2672  -12.1738  -41.4942 O.2       3 UNK        -0.5000 
     57 CA          5.6206  -12.9454  -43.7277 C.3       3 UNK         0.1400 
     58 CB          6.0404  -14.4033  -43.9810 C.3       3 UNK        -0.1800 
     59 N           4.8739  -12.4336  -44.8719 N.am      3 UNK        -0.5000 
     60 C           4.9083  -11.1596  -45.2877 C.2       2 UNK         0.5000 
     61 O           5.6130  -10.2919  -44.7700 O.2       2 UNK        -0.5000 
     62 CA          4.0225  -10.7794  -46.4907 C.3       2 UNK         0.1400 
     63 CB          4.8555  -10.7497  -47.7816 C.3       2 UNK        -0.1800 
     64 N           2.8886  -11.6819  -46.6837 N.am      2 UNK        -0.5000 
     65 C           1.7975  -11.7163  -45.9067 C.2       1 UNK         0.5000 
     66 O           1.6045  -10.9496  -44.9625 O.2       1 UNK        -0.5000 
     67 C          -1.3808  -22.0901  -47.5301 C.2       11 UNK         0.5000 
     68 O          -1.4477  -23.0335  -48.3162 O.2       11 UNK        -0.5000 
     69 N          -2.4525  -21.4881  -46.9954 N.am      12 UNK        -0.5000 
     70 CA         -3.8398  -21.8256  -47.3132 C.3       12 UNK         0.1400 
     71 CB         -4.7777  -20.8161  -46.6363 C.3       12 UNK        -0.1800 
     72 C          -4.2248  -23.2703  -46.9459 C.2       12 UNK         0.5000 
     73 O          -4.9433  -23.9144  -47.7111 O.2       12 UNK        -0.5000 
     74 N          -3.7261  -23.7575  -45.8013 N.am      13 UNK        -0.5000 
     75 CA         -3.9137  -25.1297  -45.3303 C.3       13 UNK         0.1400 
     76 CB         -3.4298  -25.2448  -43.8768 C.3       13 UNK        -0.1800 
     77 C          -3.2131  -26.1746  -46.2185 C.2       13 UNK         0.5000 
     78 O          -3.7658  -27.2564  -46.4217 O.2       13 UNK        -0.5000 
     79 N          -2.0203  -25.8389  -46.7295 N.am      14 UNK        -0.5000 
     80 CA         -1.2528  -26.6745  -47.6508 C.3       14 UNK         0.1400 
     81 CB          0.2062  -26.1897  -47.6963 C.3       14 UNK        -0.1800 
     82 C          -1.8865  -26.7020  -49.0534 C.2       14 UNK         0.5000 
     83 O          -2.2885  -27.7696  -49.5174 O.2       14 UNK        -0.5000 
     84 N          -1.9749  -25.5237  -49.6794 N.am      15 UNK        -0.5000 
     85 CA         -2.5219  -25.2473  -51.0055 C.3       15 UNK         0.1400 
     86 CB         -1.8688  -26.1112  -52.1066 C.3       15 UNK        -0.1800 
     87 C          -2.2552  -23.7623  -51.2684 C.2       15 UNK         0.5000 
     88 O          -1.0945  -23.3868  -51.4530 O.2       15 UNK        -0.5000 
     89 N          -3.3174  -22.9483  -51.2330 N.am      16 UNK        -0.5000 
     90 CA         -3.3054  -21.4929  -51.3796 C.3       16 UNK         0.1400 
     91 CB         -4.7551  -20.9844  -51.3269 C.3       16 UNK        -0.1800 
     92 C          -2.5955  -21.0292  -52.6649 C.2       16 UNK         0.5000 
     93 O          -3.1807  -21.1087  -53.7454 O.2       16 UNK        -0.5000 
     94 N          -1.3304  -20.6089  -52.5160 N.am      17 UNK        -0.5000 
     95 CA         -0.3799  -20.2528  -53.5762 C.3       17 UNK         0.1400 
     96 CB         -0.7750  -18.9192  -54.2375 C.3       17 UNK        -0.1800 
     97 C          -0.1467  -21.3934  -54.5922 C.2       17 UNK         0.5000 
     98 O           0.0096  -21.1367  -55.7869 O.2       17 UNK        -0.5000 
     99 N          -0.1490  -22.6370  -54.0870 N.am      18 UNK        -0.5000 
    100 CA        -0.0500  -23.9044  -54.8206 C.3       18 UNK         0.1400 
    101 CB         1.2898  -24.0141  -55.5786 C.3       18 UNK        -0.1800 
    102 C         -1.2730  -24.2061  -55.7166 C.2       18 UNK         0.5000 
    103 O         -1.1842  -25.0637  -56.5969 O.2       18 UNK        -0.5000 
    104 N         -2.3959  -23.5248  -55.4636 N.am      19 UNK        -0.5000 
    105 CA        -3.6894  -23.7230  -56.1080 C.3       19 UNK         0.1400 
    106 CB        -4.0557  -22.4342  -56.8634 C.3       19 UNK        -0.1800 
    107 C         -4.7425  -24.0697  -55.0408 C.2       19 UNK         0.5000 
    108 O         -4.4251  -24.1441  -53.8515 O.2       19 UNK        -0.5000 
    109 N         -5.9867  -24.2938  -55.4804 N.am      20 UNK        -0.5000 
    110 CA        -7.1130  -24.6197  -54.6028 C.3       20 UNK         0.1400 
    111 CB        -8.2778  -25.1522  -55.4518 C.3       20 UNK        -0.1800 
    112 C         -7.5749  -23.4290  -53.7403 C.2       20 UNK         0.5000 
    113 O         -7.9752  -23.6334  -52.5938 O.2       20 UNK        -0.5000 
    114 N         -7.5168  -22.2162  -54.3049 N.am      21 UNK        -0.5000 
    115 CA        -7.9808  -20.9758  -53.6861 C.3       21 UNK         0.1400 
    116 CB        -9.5246  -20.9394  -53.6447 C.3       21 UNK        -0.1800 
    117 C         -7.3742  -19.7756  -54.4318 C.2       21 UNK         0.5000 
    118 O         -8.1142  -18.9163  -54.9151 O.2       21 UNK        -0.5000 
    119 N         -6.0375  -19.7561  -54.5339 N.am      22 UNK        -0.5000 
    120 CA        -5.2364  -18.7514  -55.2595 C.3       22 UNK         0.1400 
    121 C         -5.3890  -18.8330  -56.8108 C.2       22 UNK         0.5000 
    122 N         -4.6767  -18.0021  -57.5612 N.am      22 UNK        -0.7600 
    123 O         -6.1154  -19.6610  -57.3568 O.2       22 UNK        -0.5000 
    124 C124       -5.4222  -17.3012  -54.7163 C.3       23 UNK        -0.0398 
    125 S125       -5.0382  -17.1500  -52.9372 S.3       23 UNK        -0.2404 
    126 C126       -3.3918  -16.3768  -53.0201 C.3       23 UNK        -0.0205 
    127 H127        1.9492  -16.2994  -47.7758 H         1 UNK         0.0600 
    128 H128        2.4950  -16.9513  -46.2304 H         1 UNK         0.0600 
    129 H129        3.6313  -16.0932  -47.2730 H         1 UNK         0.0600 
    130 H130        0.8743  -14.3698  -47.6271 H         1 UNK         0.3000 
    131 H131        0.2682  -13.0607  -45.2965 H         1 UNK         0.0600 
    132 H132       -0.8599  -11.3886  -46.6680 H         1 UNK         0.0800 
    133 H133        0.1258  -11.7410  -48.0595 H         1 UNK         0.0800 
    134 H134        0.1262  -13.8646  -49.3897 H         1 UNK         0.0800 
    135 H135       -1.2101  -12.9626  -50.0593 H         1 UNK         0.0800 
    136 H136       -2.3459  -14.2197  -51.7142 H         1 UNK         0.1150 
    137 H137       -2.8698  -18.4539  -51.3324 H         1 UNK         0.1150 
    138 H138       -0.8066  -16.2722  -48.2798 H         1 UNK         0.1150 
    139 H139       -1.6820  -18.4810  -47.8412 H         1 UNK         0.0800 
    140 H140       -2.5658  -19.3936  -49.0164 H         1 UNK         0.0800 
    141 H141        0.1088  -19.4137  -46.9373 H         1 UNK         0.0800 
    142 H142        1.5004  -20.1323  -47.6447 H         1 UNK         0.0800 
    143 H143        0.7286  -22.3132  -47.4465 H         1 UNK         0.0600 
    144 H144        0.2981  -20.7333  -45.1506 H         1 UNK         0.3000 
    145 H145       -0.5682  -23.3264  -42.8417 H         1 UNK         0.0600 
    146 H146        1.3157  -22.2349  -41.6567 H         1 UNK         0.0600 
    147 H147        1.9177  -23.2268  -42.9766 H         1 UNK         0.0600 
    148 H148        1.8561  -21.4781  -43.1531 H         1 UNK         0.0600 
    149 H149       -0.3741  -20.5231  -42.4742 H         1 UNK         0.3000 
    150 H150       -3.7841  -19.7220  -43.3200 H         1 UNK         0.0600 
    151 H151       -3.7299  -20.4756  -40.9489 H         1 UNK         0.0600 
    152 H152       -3.6012  -18.7265  -41.0586 H         1 UNK         0.0600 
    153 H153       -2.1712  -19.6967  -40.7157 H         1 UNK         0.0600 
    154 H154       -1.6801  -18.0075  -42.5435 H         1 UNK         0.3000 
    155 H155       -0.3547  -17.3704  -45.8390 H         1 UNK         0.0600 
    156 H156       -1.9304  -15.7154  -43.8035 H         1 UNK         0.0600 
    157 H157       -2.2449  -15.8348  -45.5290 H         1 UNK         0.0600 
    158 H158       -0.7703  -15.0717  -44.9587 H         1 UNK         0.0600 
    159 H159        0.5113  -16.4343  -43.3111 H         1 UNK         0.3000 
    160 H160        2.6932  -19.1685  -42.5006 H         1 UNK         0.0600 
    161 H161        3.2229  -16.2419  -43.2191 H         1 UNK         0.0600 
    162 H162        3.9903  -17.6286  -43.9743 H         1 UNK         0.0600 
    163 H163        4.2774  -17.2872  -42.2742 H         1 UNK         0.0600 
    164 H164        1.8868  -16.7113  -41.1976 H         1 UNK         0.3000 
    165 H165       -0.7488  -18.1533  -39.2835 H         1 UNK         0.0600 
    166 H166        0.6312  -17.3218  -37.3975 H         1 UNK         0.0600 
    167 H167        1.3149  -18.8083  -38.0356 H         1 UNK         0.0600 
    168 H168        2.0606  -17.2638  -38.4295 H         1 UNK         0.0600 
    169 H169        0.4858  -15.5669  -39.2966 H         1 UNK         0.3000 
    170 H170       -1.4018  -14.1344  -41.9406 H         1 UNK         0.0600 
    171 H171       -2.9838  -14.0151  -40.0117 H         1 UNK         0.0600 
    172 H172       -1.6468  -13.6882  -38.9155 H         1 UNK         0.0600 
    173 H173       -2.0680  -12.5254  -40.1735 H         1 UNK         0.0600 
    174 H174        0.4599  -13.0517  -40.0549 H         1 UNK         0.3000 
    175 H175        2.5533  -12.3721  -40.9182 H         1 UNK         0.0600 
    176 H176        3.5027  -15.2753  -40.4767 H         1 UNK         0.0600 
    177 H177        4.2054  -13.8396  -39.7417 H         1 UNK         0.0600 
    178 H178        2.5951  -14.3443  -39.2908 H         1 UNK         0.0600 
    179 H179        3.2326  -13.8586  -43.2508 H         1 UNK         0.3000 
    180 H180        6.5373  -12.3652  -43.6005 H         1 UNK         0.0600 
    181 H181        5.1851  -15.0567  -44.1462 H         1 UNK         0.0600 
    182 H182        6.5955  -14.8013  -43.1308 H         1 UNK         0.0600 
    183 H183        6.6873  -14.4774  -44.8551 H         1 UNK         0.0600 
    184 H184        4.2057  -13.0738  -45.2885 H         1 UNK         0.3000 
    185 H185        3.6367   -9.7737  -46.3107 H         1 UNK         0.0600 
    186 H186        5.6968  -10.0616  -47.6882 H         1 UNK         0.0600 
    187 H187        5.2613  -11.7334  -48.0214 H         1 UNK         0.0600 
    188 H188        4.2576  -10.4160  -48.6299 H         1 UNK         0.0600 
    189 H189        2.9676  -12.3581  -47.4292 H         1 UNK         0.3000 
    190 H190       -2.3118  -20.7165  -46.3466 H         1 UNK         0.3000 
    191 H191       -3.9577  -21.7249  -48.3926 H         1 UNK         0.0600 
    192 H192       -4.6762  -20.8403  -45.5508 H         1 UNK         0.0600 
    193 H193       -5.8204  -21.0284  -46.8757 H         1 UNK         0.0600 
    194 H194       -4.5673  -19.7993  -46.9686 H         1 UNK         0.0600 
    195 H195       -3.2001  -23.1362  -45.1927 H         1 UNK         0.3000 
    196 H196       -4.9840  -25.3454  -45.3480 H         1 UNK         0.0600 
    197 H197       -3.5665  -26.2582  -43.4975 H         1 UNK         0.0600 
    198 H198       -3.9873  -24.5750  -43.2219 H         1 UNK         0.0600 
    199 H199       -2.3715  -24.9986  -43.7850 H         1 UNK         0.0600 
    200 H200       -1.6183  -24.9404  -46.4857 H         1 UNK         0.3000 
    201 H201       -1.2491  -27.6967  -47.2663 H         1 UNK         0.0600 
    202 H202        0.6758  -26.2717  -46.7159 H         1 UNK         0.0600 
    203 H203        0.2824  -25.1488  -48.0120 H         1 UNK         0.0600 
    204 H204        0.7956  -26.7890  -48.3913 H         1 UNK         0.0600 
    205 H205       -1.6480  -24.6913  -49.1889 H         1 UNK         0.3000 
    206 H206       -3.5975  -25.4324  -50.9912 H         1 UNK         0.0600 
    207 H207       -0.7802  -26.0621  -52.0658 H         1 UNK         0.0600 
    208 H208       -2.1610  -27.1575  -52.0276 H         1 UNK         0.0600 
    209 H209       -2.1795  -25.7748  -53.0963 H         1 UNK         0.0600 
    210 H210       -4.2291  -23.3677  -51.1251 H         1 UNK         0.3000 
    211 H211       -2.7676  -21.0875  -50.5232 H         1 UNK         0.0600 
    212 H212       -5.3636  -21.4551  -52.0989 H         1 UNK         0.0600 
    213 H213       -4.8043  -19.9059  -51.4786 H         1 UNK         0.0600 
    214 H214       -5.2192  -21.1982  -50.3645 H         1 UNK         0.0600 
    215 H215       -0.9352  -20.6317  -51.5847 H         1 UNK         0.3000 
    216 H216        0.5803  -20.0979  -53.0821 H         1 UNK         0.0600 
    217 H217       -0.0393  -18.6138  -54.9823 H         1 UNK         0.0600 
    218 H218       -0.8235  -18.1241  -53.4946 H         1 UNK         0.0600 
    219 H219       -1.7411  -18.9847  -54.7375 H         1 UNK         0.0600 
    220 H220       -0.3326  -22.7402  -53.0909 H         1 UNK         0.3000 
    221 H221       -0.0479  -24.6812  -54.0558 H         1 UNK         0.0600 
    222 H222        1.3342  -23.3334  -56.4288 H         1 UNK         0.0600 
    223 H223        2.1329  -23.7921  -54.9245 H         1 UNK         0.0600 
    224 H224        1.4382  -25.0233  -55.9643 H         1 UNK         0.0600 
    225 H225       -2.4076  -22.8568  -54.7010 H         1 UNK         0.3000 
    226 H226       -3.6485  -24.5531  -56.8157 H         1 UNK         0.0600 
    227 H227       -3.2829  -22.1695  -57.5853 H         1 UNK         0.0600 
    228 H228       -4.9885  -22.5426  -57.4173 H         1 UNK         0.0600 
    229 H229       -4.1736  -21.5913  -56.1830 H         1 UNK         0.0600 
    230 H230       -6.1820  -24.2366  -56.4694 H         1 UNK         0.3000 
    231 H231       -6.7989  -25.4163  -53.9245 H         1 UNK         0.0600 
    232 H232       -7.9865  -26.0448  -56.0057 H         1 UNK         0.0600 
    233 H233       -8.6270  -24.4092  -56.1699 H         1 UNK         0.0600 
    234 H234       -9.1264  -25.4243  -54.8226 H         1 UNK         0.0600 
    235 H235       -7.1571  -22.1308  -55.2458 H         1 UNK         0.3000 
    236 H236       -7.6126  -20.9296  -52.6597 H         1 UNK         0.0600 
    237 H237       -9.9532  -21.0166  -54.6446 H         1 UNK         0.0600 
    238 H238       -9.9302  -21.7532  -53.0440 H         1 UNK         0.0600 
    239 H239       -9.8829  -20.0091  -53.2021 H         1 UNK         0.0600 
    240 H240       -5.5013  -20.5127  -54.1316 H         1 UNK         0.3000 
    241 H241       -4.2014  -19.0363  -55.0727 H         1 UNK         0.0600 
    242 H242       -4.0398  -17.3294  -57.1651 H         1 UNK         0.3800 
    243 H243       -4.7648  -18.0627  -58.5638 H         1 UNK         0.3800 
    244 H244       -4.7936  -16.5971  -55.2621 H         1 UNK         0.0800 
    245 H245       -6.4436  -16.9552  -54.8759 H         1 UNK         0.0800 
    246 H246       -3.5005  -15.3685  -53.4227 H         1 UNK         0.0800 
    247 H247       -2.7736  -16.9255  -53.7285 H         1 UNK         0.0800 
@<TRIPOS>BOND
     1    1    2 1    
     2    1  127 1    
     3    1  128 1    
     4    1  129 1    
     5    2    3 2    
     6    2    4 am   BACKBONE|DICT|INTERRES
     7    4    5 1    
     8    4  130 1    
     9    5    6 1    
    10    5   65 1    
    11    5  131 1    
    12    6    7 1    
    13    6  132 1    
    14    6  133 1    
    15    7    8 1    
    16    8    9 1    
    17    8  134 1    
    18    8  135 1    
    19    9   10 ar   
    20    9   14 ar   
    21   10   11 ar   
    22   10  136 1    
    23   11   12 ar   
    24   11  126 1    
    25   12   13 ar   
    26   12  137 1    
    27   13   14 ar   
    28   13   15 1    
    29   14  138 1    
    30   15   16 1    
    31   15  139 1    
    32   15  140 1    
    33   16   17 1    
    34   17   18 1    
    35   17  141 1    
    36   17  142 1    
    37   18   19 1    
    38   18   67 1    
    39   18  143 1    
    40   19   20 am   BACKBONE|DICT|INTERRES
    41   19  144 1    
    42   20   21 2    
    43   20   22 1    
    44   22   23 1    
    45   22   24 1    
    46   22  145 1    
    47   23  146 1    
    48   23  147 1    
    49   23  148 1    
    50   24   25 am   BACKBONE|DICT|INTERRES
    51   24  149 1    
    52   25   26 2    
    53   25   27 1    
    54   27   28 1    
    55   27   29 1    
    56   27  150 1    
    57   28  151 1    
    58   28  152 1    
    59   28  153 1    
    60   29   30 am   BACKBONE|DICT|INTERRES
    61   29  154 1    
    62   30   31 2    
    63   30   32 1    
    64   32   33 1    
    65   32   34 1    
    66   32  155 1    
    67   33  156 1    
    68   33  157 1    
    69   33  158 1    
    70   34   35 am   BACKBONE|DICT|INTERRES
    71   34  159 1    
    72   35   36 2    
    73   35   37 1    
    74   37   38 1    
    75   37   39 1    
    76   37  160 1    
    77   38  161 1    
    78   38  162 1    
    79   38  163 1    
    80   39   40 am   BACKBONE|DICT|INTERRES
    81   39  164 1    
    82   40   41 2    
    83   40   42 1    
    84   42   43 1    
    85   42   44 1    
    86   42  165 1    
    87   43  166 1    
    88   43  167 1    
    89   43  168 1    
    90   44   45 am   BACKBONE|DICT|INTERRES
    91   44  169 1    
    92   45   46 2    
    93   45   47 1    
    94   47   48 1    
    95   47   49 1    
    96   47  170 1    
    97   48  171 1    
    98   48  172 1    
    99   48  173 1    
   100   49   50 am   BACKBONE|DICT|INTERRES
   101   49  174 1    
   102   50   51 2    
   103   50   52 1    
   104   52   53 1    
   105   52   54 1    
   106   52  175 1    
   107   53  176 1    
   108   53  177 1    
   109   53  178 1    
   110   54   55 am   BACKBONE|DICT|INTERRES
   111   54  179 1    
   112   55   56 2    
   113   55   57 1    
   114   57   58 1    
   115   57   59 1    
   116   57  180 1    
   117   58  181 1    
   118   58  182 1    
   119   58  183 1    
   120   59   60 am   BACKBONE|DICT|INTERRES
   121   59  184 1    
   122   60   61 2    
   123   60   62 1    
   124   62   63 1    
   125   62   64 1    
   126   62  185 1    
   127   63  186 1    
   128   63  187 1    
   129   63  188 1    
   130   64   65 am   BACKBONE|DICT|INTERRES
   131   64  189 1    
   132   65   66 2    
   133   67   68 2    
   134   67   69 am   BACKBONE|DICT|INTERRES
   135   69   70 1    
   136   69  190 1    
   137   70   71 1    
   138   70   72 1    
   139   70  191 1    
   140   71  192 1    
   141   71  193 1    
   142   71  194 1    
   143   72   73 2    
   144   72   74 am   BACKBONE|DICT|INTERRES
   145   74   75 1    
   146   74  195 1    
   147   75   76 1    
   148   75   77 1    
   149   75  196 1    
   150   76  197 1    
   151   76  198 1    
   152   76  199 1    
   153   77   78 2    
   154   77   79 am   BACKBONE|DICT|INTERRES
   155   79   80 1    
   156   79  200 1    
   157   80   81 1    
   158   80   82 1    
   159   80  201 1    
   160   81  202 1    
   161   81  203 1    
   162   81  204 1    
   163   82   83 2    
   164   82   84 am   BACKBONE|DICT|INTERRES
   165   84   85 1    
   166   84  205 1    
   167   85   86 1    
   168   85   87 1    
   169   85  206 1    
   170   86  207 1    
   171   86  208 1    
   172   86  209 1    
   173   87   88 2    
   174   87   89 am   BACKBONE|DICT|INTERRES
   175   89   90 1    
   176   89  210 1    
   177   90   91 1    
   178   90   92 1    
   179   90  211 1    
   180   91  212 1    
   181   91  213 1    
   182   91  214 1    
   183   92   93 2    
   184   92   94 am   BACKBONE|DICT|INTERRES
   185   94   95 1    
   186   94  215 1    
   187   95   96 1    
   188   95   97 1    
   189   95  216 1    
   190   96  217 1    
   191   96  218 1    
   192   96  219 1    
   193   97   98 2    
   194   97   99 am   BACKBONE|DICT|INTERRES
   195   99  100 1    
   196   99  220 1    
   197  100  101 1    
   198  100  102 1    
   199  100  221 1    
   200  101  222 1    
   201  101  223 1    
   202  101  224 1    
   203  102  103 2    
   204  102  104 am   BACKBONE|DICT|INTERRES
   205  104  105 1    
   206  104  225 1    
   207  105  106 1    
   208  105  107 1    
   209  105  226 1    
   210  106  227 1    
   211  106  228 1    
   212  106  229 1    
   213  107  108 2    
   214  107  109 am   BACKBONE|DICT|INTERRES
   215  109  110 1    
   216  109  230 1    
   217  110  111 1    
   218  110  112 1    
   219  110  231 1    
   220  111  232 1    
   221  111  233 1    
   222  111  234 1    
   223  112  113 2    
   224  112  114 am   BACKBONE|DICT|INTERRES
   225  114  115 1    
   226  114  235 1    
   227  115  116 1    
   228  115  117 1    
   229  115  236 1    
   230  116  237 1    
   231  116  238 1    
   232  116  239 1    
   233  117  118 2    
   234  117  119 am   BACKBONE|DICT|INTERRES
   235  119  120 1    
   236  119  240 1    
   237  120  121 1    
   238  120  124 1    
   239  120  241 1    
   240  121  122 am   BACKBONE|DICT|INTERRES
   241  121  123 2    
   242  122  242 1    
   243  122  243 1    
   244  124  125 1    
   245  124  244 1    
   246  124  245 1    
   247  125  126 1    
   248  126  246 1    
   249  126  247 1    
@<TRIPOS>SUBSTRUCTURE
     1 UNK         1 GROUP             0       ****    0 ROOT    
