@<TRIPOS>MOLECULE
3R540
247   249    1
SMALL
USER_CHARGES


@<TRIPOS>ATOM
      1 CA         -2.2757  -10.0704  -51.6037 C.3       0 UNK        -0.1800 
      2 C          -1.4810  -10.7844  -50.5197 C.2       0 UNK         0.5000 
      3 O          -1.7343  -10.5737  -49.3338 O.2       0 UNK        -0.5000 
      4 N          -0.5231  -11.6294  -50.9212 N.am      1 UNK        -0.5000 
      5 CA          0.3310  -12.4239  -50.0281 C.3       1 UNK         0.1400 
      6 C6          1.6238  -12.9031  -50.7394 C.3       23 UNK        -0.0398 
      7 S7          1.3477  -13.8169  -52.3037 S.3       23 UNK        -0.2404 
      8 C8          2.2623  -15.3699  -52.0280 C.3       23 UNK        -0.0205 
      9 C9          1.4224  -16.4056  -51.2963 C.ar      23 UNK        -0.0193 
     10 C10         0.6145  -17.2921  -52.0167 C.ar      23 UNK        -0.1150 
     11 C11        -0.1654  -18.2442  -51.3524 C.ar      23 UNK        -0.0193 
     12 C12        -0.1442  -18.2907  -49.9567 C.ar      23 UNK        -0.1150 
     13 C13         0.6545  -17.4087  -49.2266 C.ar      23 UNK        -0.0193 
     14 C14         1.4520  -16.4820  -49.9015 C.ar      23 UNK        -0.1150 
     15 C15         0.6127  -17.4333  -47.7102 C.3       23 UNK        -0.0205 
     16 S16         1.6756  -18.7442  -47.0417 S.3       23 UNK        -0.2404 
     17 C17         0.7534  -19.1741  -45.5278 C.3       23 UNK        -0.0398 
     18 CA         -0.2728  -20.2916  -45.8147 C.3       11 UNK         0.1400 
     19 N           0.3584  -21.5118  -46.3175 N.am      11 UNK        -0.5000 
     20 C          -0.2866  -22.5500  -46.8606 C.2       10 UNK         0.5000 
     21 O          -1.5088  -22.6067  -46.9840 O.2       10 UNK        -0.5000 
     22 CA          0.5872  -23.7340  -47.3056 C.3       10 UNK         0.1400 
     23 CB          1.1903  -23.4611  -48.6924 C.3       10 UNK        -0.1800 
     24 N           1.6586  -24.0146  -46.3460 N.am      10 UNK        -0.5000 
     25 C           1.4497  -24.5000  -45.1133 C.2       9 UNK         0.5000 
     26 O           0.3404  -24.8140  -44.6816 O.2       9 UNK        -0.5000 
     27 CA          2.6809  -24.6117  -44.1931 C.3       9 UNK         0.1400 
     28 CB          3.4577  -25.9049  -44.4831 C.3       9 UNK        -0.1800 
     29 N           3.5958  -23.4657  -44.2680 N.am      9 UNK        -0.5000 
     30 C           3.2559  -22.1992  -43.9939 C.2       8 UNK         0.5000 
     31 O           2.1022  -21.8451  -43.7438 O.2       8 UNK        -0.5000 
     32 CA          4.3824  -21.1486  -44.0359 C.3       8 UNK         0.1400 
     33 CB          4.6930  -20.7440  -45.4840 C.3       8 UNK        -0.1800 
     34 N           4.0157  -19.9520  -43.2737 N.am      8 UNK        -0.5000 
     35 C           3.9740  -19.8940  -41.9361 C.2       7 UNK         0.5000 
     36 O           4.3662  -20.8135  -41.2148 O.2       7 UNK        -0.5000 
     37 CA          3.3677  -18.6351  -41.2768 C.3       7 UNK         0.1400 
     38 CB          4.2426  -18.1132  -40.1181 C.3       7 UNK        -0.1800 
     39 N           3.0015  -17.5362  -42.1812 N.am      7 UNK        -0.5000 
     40 C           3.8157  -16.7514  -42.9059 C.2       6 UNK         0.5000 
     41 O           5.0245  -16.9480  -43.0290 O.2       6 UNK        -0.5000 
     42 CA          3.1803  -15.5278  -43.6047 C.3       6 UNK         0.1400 
     43 CB          2.9521  -15.8126  -45.0939 C.3       6 UNK        -0.1800 
     44 N           1.9084  -15.1072  -43.0124 N.am      6 UNK        -0.5000 
     45 C           1.7696  -14.5696  -41.7914 C.2       5 UNK         0.5000 
     46 O           2.7204  -14.2667  -41.0699 O.2       5 UNK        -0.5000 
     47 CA          0.3315  -14.3574  -41.2709 C.3       5 UNK         0.1400 
     48 CB         -0.0704  -12.8798  -41.3972 C.3       5 UNK        -0.1800 
     49 N          -0.6880  -15.1776  -41.9334 N.am      5 UNK        -0.5000 
     50 C          -0.7204  -16.5173  -41.9863 C.2       4 UNK         0.5000 
     51 O           0.1281  -17.2421  -41.4662 O.2       4 UNK        -0.5000 
     52 CA         -1.8631  -17.1605  -42.7953 C.3       4 UNK         0.1400 
     53 CB         -2.9158  -17.7769  -41.8627 C.3       4 UNK        -0.1800 
     54 N          -2.5250  -16.2561  -43.7428 N.am      4 UNK        -0.5000 
     55 C          -1.9458  -15.7332  -44.8311 C.2       3 UNK         0.5000 
     56 O          -0.7590  -15.9021  -45.1212 O.2       3 UNK        -0.5000 
     57 CA         -2.8310  -14.8481  -45.7176 C.3       3 UNK         0.1400 
     58 CB         -2.7805  -13.3838  -45.2524 C.3       3 UNK        -0.1800 
     59 N          -2.3540  -14.9380  -47.0912 N.am      3 UNK        -0.5000 
     60 C          -3.1102  -14.9248  -48.1913 C.2       2 UNK         0.5000 
     61 O          -4.3299  -14.7493  -48.1769 O.2       2 UNK        -0.5000 
     62 CA         -2.3718  -15.1534  -49.5273 C.3       2 UNK         0.1400 
     63 CB         -3.3283  -15.4925  -50.6848 C.3       2 UNK        -0.1800 
     64 N          -1.5438  -14.0192  -49.9343 N.am      2 UNK        -0.5000 
     65 C          -0.4136  -13.5952  -49.3508 C.2       1 UNK         0.5000 
     66 O           0.0599  -14.0908  -48.3280 O.2       1 UNK        -0.5000 
     67 C          -1.1723  -20.5830  -44.6021 C.2       11 UNK         0.5000 
     68 O          -2.3209  -20.1393  -44.5828 O.2       11 UNK        -0.5000 
     69 N          -0.6576  -21.3825  -43.6582 N.am      12 UNK        -0.5000 
     70 CA         -1.3686  -21.8849  -42.4821 C.3       12 UNK         0.1400 
     71 CB         -0.3811  -22.6540  -41.5925 C.3       12 UNK        -0.1800 
     72 C          -2.5866  -22.7635  -42.8306 C.2       12 UNK         0.5000 
     73 O          -3.5686  -22.7550  -42.0890 O.2       12 UNK        -0.5000 
     74 N          -2.5372  -23.4499  -43.9806 N.am      13 UNK        -0.5000 
     75 CA         -3.6397  -24.2091  -44.5767 C.3       13 UNK         0.1400 
     76 CB         -3.0550  -25.3539  -45.4238 C.3       13 UNK        -0.1800 
     77 C          -4.6042  -23.3103  -45.3862 C.2       13 UNK         0.5000 
     78 O          -5.1084  -23.7314  -46.4293 O.2       13 UNK        -0.5000 
     79 N          -4.8361  -22.0818  -44.8987 N.am      14 UNK        -0.5000 
     80 CA         -5.6975  -21.0372  -45.4608 C.3       14 UNK         0.1400 
     81 CB         -7.1814  -21.4389  -45.3281 C.3       14 UNK        -0.1800 
     82 C          -5.3064  -20.6559  -46.9021 C.2       14 UNK         0.5000 
     83 O          -6.1744  -20.5638  -47.7708 O.2       14 UNK        -0.5000 
     84 N          -3.9964  -20.4818  -47.1321 N.am      15 UNK        -0.5000 
     85 CA         -3.3666  -20.2326  -48.4353 C.3       15 UNK         0.1400 
     86 CB         -3.7124  -18.8175  -48.9405 C.3       15 UNK        -0.1800 
     87 C          -3.6834  -21.3467  -49.4530 C.2       15 UNK         0.5000 
     88 O          -4.1682  -21.0688  -50.5498 O.2       15 UNK        -0.5000 
     89 N          -3.4438  -22.5935  -49.0220 N.am      16 UNK        -0.5000 
     90 CA         -3.7381  -23.8573  -49.7021 C.3       16 UNK         0.1400 
     91 CB         -2.7493  -24.0809  -50.8629 C.3       16 UNK        -0.1800 
     92 C          -5.2201  -23.9712  -50.1190 C.2       16 UNK         0.5000 
     93 O          -5.5206  -24.3222  -51.2610 O.2       16 UNK        -0.5000 
     94 N          -6.1117  -23.6431  -49.1716 N.am      17 UNK        -0.5000 
     95 CA         -7.5643  -23.5155  -49.3222 C.3       17 UNK         0.1400 
     96 CB         -8.2131  -24.8943  -49.5644 C.3       17 UNK        -0.1800 
     97 C          -7.9536  -22.4587  -50.3800 C.2       17 UNK         0.5000 
     98 O          -8.7426  -22.7426  -51.2838 O.2       17 UNK        -0.5000 
     99 N          -7.3799  -21.2562  -50.2311 N.am      18 UNK        -0.5000 
    100 CA        -7.5370  -20.0689  -51.0755 C.3       18 UNK         0.1400 
    101 CB        -8.9560  -19.4835  -50.9211 C.3       18 UNK        -0.1800 
    102 C         -7.1345  -20.3116  -52.5458 C.2       18 UNK         0.5000 
    103 O         -7.9004  -20.0021  -53.4620 O.2       18 UNK        -0.5000 
    104 N         -5.9359  -20.8718  -52.7450 N.am      19 UNK        -0.5000 
    105 CA        -5.3364  -21.1055  -54.0567 C.3       19 UNK         0.1400 
    106 CB        -4.1597  -22.0787  -53.9030 C.3       19 UNK        -0.1800 
    107 C         -4.8583  -19.7951  -54.7083 C.2       19 UNK         0.5000 
    108 O         -4.4761  -18.8548  -54.0071 O.2       19 UNK        -0.5000 
    109 N         -4.8553  -19.7733  -56.0475 N.am      20 UNK        -0.5000 
    110 CA        -4.3855  -18.6449  -56.8572 C.3       20 UNK         0.1400 
    111 CB        -4.8794  -18.8257  -58.3009 C.3       20 UNK        -0.1800 
    112 C         -2.8536  -18.4711  -56.8300 C.2       20 UNK         0.5000 
    113 O         -2.3665  -17.3575  -57.0289 O.2       20 UNK        -0.5000 
    114 N         -2.1271  -19.5655  -56.5805 N.am      21 UNK        -0.5000 
    115 CA        -0.6803  -19.6148  -56.4231 C.3       21 UNK         0.1400 
    116 CB        -0.0012  -19.7333  -57.7983 C.3       21 UNK        -0.1800 
    117 C         -0.3421  -20.8137  -55.5286 C.2       21 UNK         0.5000 
    118 O         -1.0511  -21.8224  -55.5726 O.2       21 UNK        -0.5000 
    119 N          0.7280  -20.6741  -54.7416 N.am      22 UNK        -0.5000 
    120 CA         1.2022  -21.6679  -53.7618 C.3       22 UNK         0.1400 
    121 C          2.6476  -22.1678  -54.0578 C.2       22 UNK         0.5000 
    122 N          3.2608  -21.8142  -55.1816 N.am      22 UNK        -0.7600 
    123 O          3.2226  -22.9092  -53.2657 O.2       22 UNK        -0.5000 
    124 C124        1.0630  -21.1339  -52.3102 C.3       23 UNK        -0.0398 
    125 S125       -0.6763  -20.9601  -51.7803 S.3       23 UNK        -0.2404 
    126 C126       -1.0421  -19.2090  -52.1400 C.3       23 UNK        -0.0205 
    127 H127       -1.9429  -10.3524  -52.6030 H         1 UNK         0.0600 
    128 H128       -2.1650   -8.9910  -51.5006 H         1 UNK         0.0600 
    129 H129       -3.3342  -10.3157  -51.5160 H         1 UNK         0.0600 
    130 H130       -0.3556  -11.7648  -51.9089 H         1 UNK         0.3000 
    131 H131        0.6463  -11.7659  -49.2152 H         1 UNK         0.0600 
    132 H132        2.2353  -12.0330  -50.9814 H         1 UNK         0.0800 
    133 H133        2.2351  -13.4970  -50.0584 H         1 UNK         0.0800 
    134 H134        3.1881  -15.1718  -51.4857 H         1 UNK         0.0800 
    135 H135        2.5652  -15.7689  -52.9973 H         1 UNK         0.0800 
    136 H136        0.5924  -17.2361  -53.0958 H         1 UNK         0.1150 
    137 H137       -0.7493  -19.0174  -49.4374 H         1 UNK         0.1150 
    138 H138        2.0701  -15.7992  -49.3363 H         1 UNK         0.1150 
    139 H139        0.9243  -16.4715  -47.3010 H         1 UNK         0.0800 
    140 H140       -0.4191  -17.5799  -47.3881 H         1 UNK         0.0800 
    141 H141        0.2637  -18.2815  -45.1394 H         1 UNK         0.0800 
    142 H142        1.4654  -19.4837  -44.7627 H         1 UNK         0.0800 
    143 H143       -0.9295  -19.9210  -46.6001 H         1 UNK         0.0600 
    144 H144        1.3608  -21.5648  -46.2209 H         1 UNK         0.3000 
    145 H145       -0.0542  -24.6151  -47.3774 H         1 UNK         0.0600 
    146 H146        1.8664  -22.6051  -48.6794 H         1 UNK         0.0600 
    147 H147        1.7475  -24.3241  -49.0571 H         1 UNK         0.0600 
    148 H148        0.4087  -23.2473  -49.4228 H         1 UNK         0.0600 
    149 H149        2.6014  -23.7853  -46.6240 H         1 UNK         0.3000 
    150 H150        2.3113  -24.6639  -43.1668 H         1 UNK         0.0600 
    151 H151        2.8045  -26.7762  -44.4175 H         1 UNK         0.0600 
    152 H152        4.2636  -26.0509  -43.7637 H         1 UNK         0.0600 
    153 H153        3.8958  -25.8974  -45.4819 H         1 UNK         0.0600 
    154 H154        4.5599  -23.6771  -44.4813 H         1 UNK         0.3000 
    155 H155        5.2814  -21.5835  -43.5943 H         1 UNK         0.0600 
    156 H156        5.0433  -21.5982  -46.0645 H         1 UNK         0.0600 
    157 H157        5.4742  -19.9845  -45.5230 H         1 UNK         0.0600 
    158 H158        3.8143  -20.3459  -45.9884 H         1 UNK         0.0600 
    159 H159        3.6769  -19.1596  -43.7965 H         1 UNK         0.3000 
    160 H160        2.4248  -18.9682  -40.8408 H         1 UNK         0.0600 
    161 H161        3.7812  -17.2524  -39.6335 H         1 UNK         0.0600 
    162 H162        5.2333  -17.8143  -40.4613 H         1 UNK         0.0600 
    163 H163        4.3804  -18.8779  -39.3530 H         1 UNK         0.0600 
    164 H164        2.0180  -17.2870  -42.1446 H         1 UNK         0.3000 
    165 H165        3.8876  -14.7004  -43.5188 H         1 UNK         0.0600 
    166 H166        2.1903  -16.5777  -45.2273 H         1 UNK         0.0600 
    167 H167        2.6213  -14.9186  -45.6230 H         1 UNK         0.0600 
    168 H168        3.8644  -16.1620  -45.5791 H         1 UNK         0.0600 
    169 H169        1.0734  -15.3053  -43.5482 H         1 UNK         0.3000 
    170 H170        0.3303  -14.6254  -40.2125 H         1 UNK         0.0600 
    171 H171       -0.1185  -12.5649  -42.4406 H         1 UNK         0.0600 
    172 H172       -1.0446  -12.6947  -40.9444 H         1 UNK         0.0600 
    173 H173        0.6484  -12.2332  -40.8918 H         1 UNK         0.0600 
    174 H174       -1.4267  -14.6753  -42.4023 H         1 UNK         0.3000 
    175 H175       -1.4115  -17.9672  -43.3710 H         1 UNK         0.0600 
    176 H176       -3.4358  -17.0143  -41.2818 H         1 UNK         0.0600 
    177 H177       -3.6597  -18.3389  -42.4281 H         1 UNK         0.0600 
    178 H178       -2.4564  -18.4718  -41.1583 H         1 UNK         0.0600 
    179 H179       -3.4983  -16.0561  -43.5612 H         1 UNK         0.3000 
    180 H180       -3.8575  -15.2160  -45.6576 H         1 UNK         0.0600 
    181 H181       -1.7658  -12.9853  -45.2937 H         1 UNK         0.0600 
    182 H182       -3.1336  -13.2841  -44.2253 H         1 UNK         0.0600 
    183 H183       -3.4125  -12.7512  -45.8760 H         1 UNK         0.0600 
    184 H184       -1.3460  -15.0246  -47.1911 H         1 UNK         0.3000 
    185 H185       -1.7201  -16.0143  -49.3835 H         1 UNK         0.0600 
    186 H186       -2.7751  -15.7923  -51.5754 H         1 UNK         0.0600 
    187 H187       -3.9894  -16.3190  -50.4236 H         1 UNK         0.0600 
    188 H188       -3.9583  -14.6424  -50.9492 H         1 UNK         0.0600 
    189 H189       -1.8504  -13.5221  -50.7568 H         1 UNK         0.3000 
    190 H190        0.3141  -21.6764  -43.7519 H         1 UNK         0.3000 
    191 H191       -1.7344  -21.0209  -41.9235 H         1 UNK         0.0600 
    192 H192        0.0390  -23.5156  -42.1131 H         1 UNK         0.0600 
    193 H193        0.4469  -22.0169  -41.2807 H         1 UNK         0.0600 
    194 H194       -0.8699  -23.0199  -40.6888 H         1 UNK         0.0600 
    195 H195       -1.6917  -23.3939  -44.5329 H         1 UNK         0.3000 
    196 H196       -4.2286  -24.6611  -43.7763 H         1 UNK         0.0600 
    197 H197       -2.3829  -25.9771  -44.8336 H         1 UNK         0.0600 
    198 H198       -2.4948  -24.9781  -46.2797 H         1 UNK         0.0600 
    199 H199       -3.8437  -26.0024  -45.8070 H         1 UNK         0.0600 
    200 H200       -4.3535  -21.8303  -44.0463 H         1 UNK         0.3000 
    201 H201       -5.5380  -20.1445  -44.8544 H         1 UNK         0.0600 
    202 H202       -7.8368  -20.6280  -45.6482 H         1 UNK         0.0600 
    203 H203       -7.4354  -21.6708  -44.2939 H         1 UNK         0.0600 
    204 H204       -7.4210  -22.3123  -45.9354 H         1 UNK         0.0600 
    205 H205       -3.3685  -20.5955  -46.3441 H         1 UNK         0.3000 
    206 H206       -2.2904  -20.2751  -48.2857 H         1 UNK         0.0600 
    207 H207       -4.7791  -18.7011  -49.1322 H         1 UNK         0.0600 
    208 H208       -3.1912  -18.5978  -49.8713 H         1 UNK         0.0600 
    209 H209       -3.4169  -18.0597  -48.2153 H         1 UNK         0.0600 
    210 H210       -3.0029  -22.6864  -48.1100 H         1 UNK         0.3000 
    211 H211       -3.5680  -24.6463  -48.9681 H         1 UNK         0.0600 
    212 H212       -1.7193  -24.0724  -50.5073 H         1 UNK         0.0600 
    213 H213       -2.9186  -25.0435  -51.3462 H         1 UNK         0.0600 
    214 H214       -2.8419  -23.3082  -51.6244 H         1 UNK         0.0600 
    215 H215       -5.7481  -23.4174  -48.2491 H         1 UNK         0.3000 
    216 H216       -7.9360  -23.1423  -48.3669 H         1 UNK         0.0600 
    217 H217       -9.3009  -24.8175  -49.5645 H         1 UNK         0.0600 
    218 H218       -7.9161  -25.3220  -50.5223 H         1 UNK         0.0600 
    219 H219       -7.9380  -25.6011  -48.7816 H         1 UNK         0.0600 
    220 H220       -6.7664  -21.1243  -49.4290 H         1 UNK         0.3000 
    221 H221       -6.8341  -19.3300  -50.6879 H         1 UNK         0.0600 
    222 H222       -9.7185  -20.1600  -51.3083 H         1 UNK         0.0600 
    223 H223       -9.1862  -19.2821  -49.8749 H         1 UNK         0.0600 
    224 H224       -9.0500  -18.5405  -51.4608 H         1 UNK         0.0600 
    225 H225       -5.3363  -21.0427  -51.9383 H         1 UNK         0.3000 
    226 H226       -6.0880  -21.5681  -54.6998 H         1 UNK         0.0600 
    227 H227       -3.7231  -22.3252  -54.8712 H         1 UNK         0.0600 
    228 H228       -3.3677  -21.6526  -53.2855 H         1 UNK         0.0600 
    229 H229       -4.4791  -23.0144  -53.4451 H         1 UNK         0.0600 
    230 H230       -5.1821  -20.5838  -56.5538 H         1 UNK         0.3000 
    231 H231       -4.8275  -17.7293  -56.4583 H         1 UNK         0.0600 
    232 H232       -4.5709  -17.9873  -58.9269 H         1 UNK         0.0600 
    233 H233       -5.9676  -18.8769  -58.3427 H         1 UNK         0.0600 
    234 H234       -4.4814  -19.7355  -58.7521 H         1 UNK         0.0600 
    235 H235       -2.5950  -20.4424  -56.3905 H         1 UNK         0.3000 
    236 H236       -0.3421  -18.7025  -55.9264 H         1 UNK         0.0600 
    237 H237       -0.2305  -18.8737  -58.4283 H         1 UNK         0.0600 
    238 H238        1.0835  -19.7805  -57.6969 H         1 UNK         0.0600 
    239 H239       -0.3226  -20.6312  -58.3276 H         1 UNK         0.0600 
    240 H240        1.2650  -19.8201  -54.7850 H         1 UNK         0.3000 
    241 H241        0.5914  -22.5695  -53.8349 H         1 UNK         0.0600 
    242 H242        4.1932  -22.1527  -55.3624 H         1 UNK         0.3800 
    243 H243        2.7960  -21.2426  -55.8682 H         1 UNK         0.3800 
    244 H244        1.5259  -21.8220  -51.6010 H         1 UNK         0.0800 
    245 H245        1.5928  -20.1880  -52.1932 H         1 UNK         0.0800 
    246 H246       -2.0884  -19.0168  -51.9006 H         1 UNK         0.0800 
    247 H247       -0.9478  -19.0326  -53.2109 H         1 UNK         0.0800 
@<TRIPOS>BOND
     1    1    2 1    
     2    1  127 1    
     3    1  128 1    
     4    1  129 1    
     5    2    3 2    
     6    2    4 am   BACKBONE|DICT|INTERRES
     7    4    5 1    
     8    4  130 1    
     9    5    6 1    
    10    5   65 1    
    11    5  131 1    
    12    6    7 1    
    13    6  132 1    
    14    6  133 1    
    15    7    8 1    
    16    8    9 1    
    17    8  134 1    
    18    8  135 1    
    19    9   10 ar   
    20    9   14 ar   
    21   10   11 ar   
    22   10  136 1    
    23   11   12 ar   
    24   11  126 1    
    25   12   13 ar   
    26   12  137 1    
    27   13   14 ar   
    28   13   15 1    
    29   14  138 1    
    30   15   16 1    
    31   15  139 1    
    32   15  140 1    
    33   16   17 1    
    34   17   18 1    
    35   17  141 1    
    36   17  142 1    
    37   18   19 1    
    38   18   67 1    
    39   18  143 1    
    40   19   20 am   BACKBONE|DICT|INTERRES
    41   19  144 1    
    42   20   21 2    
    43   20   22 1    
    44   22   23 1    
    45   22   24 1    
    46   22  145 1    
    47   23  146 1    
    48   23  147 1    
    49   23  148 1    
    50   24   25 am   BACKBONE|DICT|INTERRES
    51   24  149 1    
    52   25   26 2    
    53   25   27 1    
    54   27   28 1    
    55   27   29 1    
    56   27  150 1    
    57   28  151 1    
    58   28  152 1    
    59   28  153 1    
    60   29   30 am   BACKBONE|DICT|INTERRES
    61   29  154 1    
    62   30   31 2    
    63   30   32 1    
    64   32   33 1    
    65   32   34 1    
    66   32  155 1    
    67   33  156 1    
    68   33  157 1    
    69   33  158 1    
    70   34   35 am   BACKBONE|DICT|INTERRES
    71   34  159 1    
    72   35   36 2    
    73   35   37 1    
    74   37   38 1    
    75   37   39 1    
    76   37  160 1    
    77   38  161 1    
    78   38  162 1    
    79   38  163 1    
    80   39   40 am   BACKBONE|DICT|INTERRES
    81   39  164 1    
    82   40   41 2    
    83   40   42 1    
    84   42   43 1    
    85   42   44 1    
    86   42  165 1    
    87   43  166 1    
    88   43  167 1    
    89   43  168 1    
    90   44   45 am   BACKBONE|DICT|INTERRES
    91   44  169 1    
    92   45   46 2    
    93   45   47 1    
    94   47   48 1    
    95   47   49 1    
    96   47  170 1    
    97   48  171 1    
    98   48  172 1    
    99   48  173 1    
   100   49   50 am   BACKBONE|DICT|INTERRES
   101   49  174 1    
   102   50   51 2    
   103   50   52 1    
   104   52   53 1    
   105   52   54 1    
   106   52  175 1    
   107   53  176 1    
   108   53  177 1    
   109   53  178 1    
   110   54   55 am   BACKBONE|DICT|INTERRES
   111   54  179 1    
   112   55   56 2    
   113   55   57 1    
   114   57   58 1    
   115   57   59 1    
   116   57  180 1    
   117   58  181 1    
   118   58  182 1    
   119   58  183 1    
   120   59   60 am   BACKBONE|DICT|INTERRES
   121   59  184 1    
   122   60   61 2    
   123   60   62 1    
   124   62   63 1    
   125   62   64 1    
   126   62  185 1    
   127   63  186 1    
   128   63  187 1    
   129   63  188 1    
   130   64   65 am   BACKBONE|DICT|INTERRES
   131   64  189 1    
   132   65   66 2    
   133   67   68 2    
   134   67   69 am   BACKBONE|DICT|INTERRES
   135   69   70 1    
   136   69  190 1    
   137   70   71 1    
   138   70   72 1    
   139   70  191 1    
   140   71  192 1    
   141   71  193 1    
   142   71  194 1    
   143   72   73 2    
   144   72   74 am   BACKBONE|DICT|INTERRES
   145   74   75 1    
   146   74  195 1    
   147   75   76 1    
   148   75   77 1    
   149   75  196 1    
   150   76  197 1    
   151   76  198 1    
   152   76  199 1    
   153   77   78 2    
   154   77   79 am   BACKBONE|DICT|INTERRES
   155   79   80 1    
   156   79  200 1    
   157   80   81 1    
   158   80   82 1    
   159   80  201 1    
   160   81  202 1    
   161   81  203 1    
   162   81  204 1    
   163   82   83 2    
   164   82   84 am   BACKBONE|DICT|INTERRES
   165   84   85 1    
   166   84  205 1    
   167   85   86 1    
   168   85   87 1    
   169   85  206 1    
   170   86  207 1    
   171   86  208 1    
   172   86  209 1    
   173   87   88 2    
   174   87   89 am   BACKBONE|DICT|INTERRES
   175   89   90 1    
   176   89  210 1    
   177   90   91 1    
   178   90   92 1    
   179   90  211 1    
   180   91  212 1    
   181   91  213 1    
   182   91  214 1    
   183   92   93 2    
   184   92   94 am   BACKBONE|DICT|INTERRES
   185   94   95 1    
   186   94  215 1    
   187   95   96 1    
   188   95   97 1    
   189   95  216 1    
   190   96  217 1    
   191   96  218 1    
   192   96  219 1    
   193   97   98 2    
   194   97   99 am   BACKBONE|DICT|INTERRES
   195   99  100 1    
   196   99  220 1    
   197  100  101 1    
   198  100  102 1    
   199  100  221 1    
   200  101  222 1    
   201  101  223 1    
   202  101  224 1    
   203  102  103 2    
   204  102  104 am   BACKBONE|DICT|INTERRES
   205  104  105 1    
   206  104  225 1    
   207  105  106 1    
   208  105  107 1    
   209  105  226 1    
   210  106  227 1    
   211  106  228 1    
   212  106  229 1    
   213  107  108 2    
   214  107  109 am   BACKBONE|DICT|INTERRES
   215  109  110 1    
   216  109  230 1    
   217  110  111 1    
   218  110  112 1    
   219  110  231 1    
   220  111  232 1    
   221  111  233 1    
   222  111  234 1    
   223  112  113 2    
   224  112  114 am   BACKBONE|DICT|INTERRES
   225  114  115 1    
   226  114  235 1    
   227  115  116 1    
   228  115  117 1    
   229  115  236 1    
   230  116  237 1    
   231  116  238 1    
   232  116  239 1    
   233  117  118 2    
   234  117  119 am   BACKBONE|DICT|INTERRES
   235  119  120 1    
   236  119  240 1    
   237  120  121 1    
   238  120  124 1    
   239  120  241 1    
   240  121  122 am   BACKBONE|DICT|INTERRES
   241  121  123 2    
   242  122  242 1    
   243  122  243 1    
   244  124  125 1    
   245  124  244 1    
   246  124  245 1    
   247  125  126 1    
   248  126  246 1    
   249  126  247 1    
@<TRIPOS>SUBSTRUCTURE
     1 UNK         1 GROUP             0       ****    0 ROOT    
