@<TRIPOS>MOLECULE
3R540
247   249    1
SMALL
USER_CHARGES


@<TRIPOS>ATOM
      1 CA          4.2799  -10.8935  -43.5108 C.3       0 UNK        -0.1800 
      2 C           3.2011  -11.6976  -44.2194 C.2       0 UNK         0.5000 
      3 O           2.0804  -11.7941  -43.7194 O.2       0 UNK        -0.5000 
      4 N           3.5199  -12.2616  -45.3924 N.am      1 UNK        -0.5000 
      5 CA          2.6183  -13.1106  -46.1854 C.3       1 UNK         0.1400 
      6 C6          3.3729  -13.8547  -47.3199 C.3       23 UNK        -0.0398 
      7 S7          2.8132  -15.5796  -47.4796 S.3       23 UNK        -0.2404 
      8 C8          2.0528  -15.6103  -49.1375 C.3       23 UNK        -0.0205 
      9 C9          1.2729  -16.9021  -49.3538 C.ar      23 UNK        -0.0193 
     10 C10        -0.0910  -16.8688  -49.6596 C.ar      23 UNK        -0.1150 
     11 C11        -0.8333  -18.0511  -49.7489 C.ar      23 UNK        -0.0193 
     12 C12        -0.1910  -19.2751  -49.5212 C.ar      23 UNK        -0.1150 
     13 C13         1.1809  -19.3296  -49.2437 C.ar      23 UNK        -0.0193 
     14 C14         1.9047  -18.1372  -49.1889 C.ar      23 UNK        -0.1150 
     15 C15         1.8966  -20.6356  -48.9015 C.3       23 UNK        -0.0205 
     16 S16         1.1904  -22.1191  -49.6856 S.3       23 UNK        -0.2404 
     17 C17         1.3842  -23.3669  -48.3590 C.3       23 UNK        -0.0398 
     18 CA          0.4127  -23.2968  -47.1398 C.3       11 UNK         0.1400 
     19 N           1.0414  -22.6541  -45.9724 N.am      11 UNK        -0.5000 
     20 C           0.5414  -22.6105  -44.7287 C.2       10 UNK         0.5000 
     21 O          -0.5714  -23.0487  -44.4353 O.2       10 UNK        -0.5000 
     22 CA          1.3837  -21.9389  -43.6262 C.3       10 UNK         0.1400 
     23 CB          2.1749  -22.9861  -42.8207 C.3       10 UNK        -0.1800 
     24 N           2.2482  -20.8308  -44.0596 N.am      10 UNK        -0.5000 
     25 C           3.3503  -20.8716  -44.8209 C.2       9 UNK         0.5000 
     26 O           3.7469  -21.8923  -45.3838 O.2       9 UNK        -0.5000 
     27 CA          4.1415  -19.5656  -45.0084 C.3       9 UNK         0.1400 
     28 CB          3.9284  -19.0034  -46.4190 C.3       9 UNK        -0.1800 
     29 N           3.7900  -18.5242  -44.0387 N.am      9 UNK        -0.5000 
     30 C           4.6850  -17.8109  -43.3428 C.2       8 UNK         0.5000 
     31 O           5.8972  -18.0306  -43.3536 O.2       8 UNK        -0.5000 
     32 CA          4.1503  -16.6292  -42.5141 C.3       8 UNK         0.1400 
     33 CB          3.9444  -15.3997  -43.4122 C.3       8 UNK        -0.1800 
     34 N           2.9062  -16.9127  -41.8006 N.am      8 UNK        -0.5000 
     35 C           2.8017  -17.7264  -40.7404 C.2       7 UNK         0.5000 
     36 O           3.7316  -18.4032  -40.3007 O.2       7 UNK        -0.5000 
     37 CA          1.4309  -17.7817  -40.0452 C.3       7 UNK         0.1400 
     38 CB          1.2275  -16.5497  -39.1484 C.3       7 UNK        -0.1800 
     39 N           0.3527  -17.8470  -41.0293 N.am      7 UNK        -0.5000 
     40 C          -0.2482  -18.9797  -41.4170 C.2       6 UNK         0.5000 
     41 O          -0.0339  -20.0753  -40.8991 O.2       6 UNK        -0.5000 
     42 CA         -1.2454  -18.8929  -42.5919 C.3       6 UNK         0.1400 
     43 CB         -2.6933  -18.9284  -42.0818 C.3       6 UNK        -0.1800 
     44 N          -1.0683  -17.7105  -43.4374 N.am      6 UNK        -0.5000 
     45 C           0.0026  -17.4688  -44.2056 C.2       5 UNK         0.5000 
     46 O           0.9640  -18.2326  -44.2951 O.2       5 UNK        -0.5000 
     47 CA          0.0252  -16.1207  -44.9499 C.3       5 UNK         0.1400 
     48 CB         -0.6829  -16.2650  -46.3008 C.3       5 UNK        -0.1800 
     49 N          -0.5699  -15.0078  -44.1993 N.am      5 UNK        -0.5000 
     50 C          -0.1904  -14.6197  -42.9747 C.2       4 UNK         0.5000 
     51 O           0.7312  -15.1514  -42.3526 O.2       4 UNK        -0.5000 
     52 CA         -0.9904  -13.4743  -42.3412 C.3       4 UNK         0.1400 
     53 CB         -0.7642  -13.3672  -40.8197 C.3       4 UNK        -0.1800 
     54 N          -0.6471  -12.2089  -42.9824 N.am      4 UNK        -0.5000 
     55 C          -1.4663  -11.1514  -43.0482 C.2       3 UNK         0.5000 
     56 O          -2.6370  -11.1707  -42.6655 O.2       3 UNK        -0.5000 
     57 CA         -0.8889   -9.8484  -43.6225 C.3       3 UNK         0.1400 
     58 CB          0.0070   -9.1519  -42.5852 C.3       3 UNK        -0.1800 
     59 N          -0.1181  -10.0865  -44.8405 N.am      3 UNK        -0.5000 
     60 C          -0.5787   -9.8924  -46.0844 C.2       2 UNK         0.5000 
     61 O          -1.7219   -9.5096  -46.3370 O.2       2 UNK        -0.5000 
     62 CA          0.3993  -10.1446  -47.2512 C.3       2 UNK         0.1400 
     63 CB          0.9814   -8.8160  -47.7581 C.3       2 UNK        -0.1800 
     64 N           1.5033  -11.0363  -46.8960 N.am      2 UNK        -0.5000 
     65 C           1.3778  -12.3577  -46.7152 C.2       1 UNK         0.5000 
     66 O           0.3287  -12.9682  -46.9107 O.2       1 UNK        -0.5000 
     67 C          -0.9950  -22.7452  -47.4754 C.2       11 UNK         0.5000 
     68 O          -1.7988  -23.4537  -48.0844 O.2       11 UNK        -0.5000 
     69 N          -1.2826  -21.5131  -47.0297 N.am      12 UNK        -0.5000 
     70 CA         -2.5779  -20.8403  -47.1151 C.3       12 UNK         0.1400 
     71 CB         -2.4429  -19.4358  -46.5170 C.3       12 UNK        -0.1800 
     72 C          -3.7221  -21.5986  -46.4186 C.2       12 UNK         0.5000 
     73 O          -4.8662  -21.4786  -46.8543 O.2       12 UNK        -0.5000 
     74 N          -3.4003  -22.4082  -45.3973 N.am      13 UNK        -0.5000 
     75 CA         -4.3481  -23.2876  -44.7058 C.3       13 UNK         0.1400 
     76 CB         -3.6675  -23.8840  -43.4650 C.3       13 UNK        -0.1800 
     77 C          -4.9112  -24.4076  -45.6066 C.2       13 UNK         0.5000 
     78 O          -6.0164  -24.8878  -45.3538 O.2       13 UNK        -0.5000 
     79 N          -4.1564  -24.7792  -46.6491 N.am      14 UNK        -0.5000 
     80 CA         -4.5537  -25.7180  -47.6983 C.3       14 UNK         0.1400 
     81 CB         -3.4290  -26.7546  -47.8659 C.3       14 UNK        -0.1800 
     82 C          -4.8247  -24.9964  -49.0340 C.2       14 UNK         0.5000 
     83 O          -5.0292  -25.6695  -50.0447 O.2       14 UNK        -0.5000 
     84 N          -4.7693  -23.6544  -49.0381 N.am      15 UNK        -0.5000 
     85 CA         -4.8400  -22.7581  -50.1982 C.3       15 UNK         0.1400 
     86 CB         -6.2837  -22.6859  -50.7336 C.3       15 UNK        -0.1800 
     87 C          -3.8052  -23.1054  -51.2908 C.2       15 UNK         0.5000 
     88 O          -4.1388  -23.1109  -52.4750 O.2       15 UNK        -0.5000 
     89 N          -2.5791  -23.4456  -50.8628 N.am      16 UNK        -0.5000 
     90 CA         -1.4633  -23.9215  -51.6898 C.3       16 UNK         0.1400 
     91 CB         -0.9170  -22.7842  -52.5751 C.3       16 UNK        -0.1800 
     92 C          -1.8212  -25.1925  -52.4920 C.2       16 UNK         0.5000 
     93 O          -1.5099  -25.2866  -53.6802 O.2       16 UNK        -0.5000 
     94 N          -2.4890  -26.1349  -51.8096 N.am      17 UNK        -0.5000 
     95 CA         -3.0705  -27.3746  -52.3329 C.3       17 UNK         0.1400 
     96 CB         -1.9900  -28.3094  -52.9175 C.3       17 UNK        -0.1800 
     97 C          -4.2401  -27.0944  -53.2989 C.2       17 UNK         0.5000 
     98 O          -4.2525  -27.5899  -54.4275 O.2       17 UNK        -0.5000 
     99 N          -5.2086  -26.3077  -52.8079 N.am      18 UNK        -0.5000 
    100 CA        -6.4694  -25.9274  -53.4527 C.3       18 UNK         0.1400 
    101 CB        -7.3959  -27.1547  -53.5844 C.3       18 UNK        -0.1800 
    102 C         -6.2890  -25.1604  -54.7802 C.2       18 UNK         0.5000 
    103 O         -7.0265  -25.4021  -55.7387 O.2       18 UNK        -0.5000 
    104 N         -5.3199  -24.2394  -54.8139 N.am      19 UNK        -0.5000 
    105 CA        -5.0853  -23.3306  -55.9309 C.3       19 UNK         0.1400 
    106 CB        -3.5856  -23.0140  -56.0068 C.3       19 UNK        -0.1800 
    107 C         -5.9083  -22.0463  -55.7374 C.2       19 UNK         0.5000 
    108 O         -6.0581  -21.5739  -54.6069 O.2       19 UNK        -0.5000 
    109 N         -6.4137  -21.4896  -56.8459 N.am      20 UNK        -0.5000 
    110 CA        -7.2007  -20.2553  -56.8831 C.3       20 UNK         0.1400 
    111 CB        -7.7045  -20.0187  -58.3158 C.3       20 UNK        -0.1800 
    112 C         -6.3790  -19.0571  -56.3751 C.2       20 UNK         0.5000 
    113 O         -5.3981  -18.6792  -57.0196 O.2       20 UNK        -0.5000 
    114 N         -6.7543  -18.5372  -55.1971 N.am      21 UNK        -0.5000 
    115 CA        -6.0709  -17.4766  -54.4429 C.3       21 UNK         0.1400 
    116 CB        -6.2452  -16.1177  -55.1529 C.3       21 UNK        -0.1800 
    117 C         -4.5917  -17.8045  -54.1299 C.2       21 UNK         0.5000 
    118 O         -3.7534  -16.9019  -54.1080 O.2       21 UNK        -0.5000 
    119 N         -4.3028  -19.0981  -53.9269 N.am      22 UNK        -0.5000 
    120 CA        -2.9590  -19.6834  -53.7777 C.3       22 UNK         0.1400 
    121 C         -2.1077  -19.6925  -55.0864 C.2       22 UNK         0.5000 
    122 N         -2.6614  -19.3990  -56.2578 N.am      22 UNK        -0.7600 
    123 O         -0.9211  -20.0048  -55.0512 O.2       22 UNK        -0.5000 
    124 C124       -2.1570  -19.1333  -52.5636 C.3       23 UNK        -0.0398 
    125 S125       -3.0205  -19.3633  -50.9743 S.3       23 UNK        -0.2404 
    126 C126       -2.3372  -17.9689  -50.0152 C.3       23 UNK        -0.0205 
    127 H127        3.9352   -9.8732  -43.3400 H         1 UNK         0.0600 
    128 H128        5.2015  -10.8503  -44.0923 H         1 UNK         0.0600 
    129 H129        4.5062  -11.3448  -42.5445 H         1 UNK         0.0600 
    130 H130        4.4517  -12.1364  -45.7619 H         1 UNK         0.3000 
    131 H131        2.2337  -13.8489  -45.4801 H         1 UNK         0.0600 
    132 H132        3.3026  -13.3339  -48.2768 H         1 UNK         0.0800 
    133 H133        4.4393  -13.9079  -47.0969 H         1 UNK         0.0800 
    134 H134        1.3964  -14.7451  -49.2441 H         1 UNK         0.0800 
    135 H135        2.8282  -15.5200  -49.8990 H         1 UNK         0.0800 
    136 H136       -0.5862  -15.9163  -49.7868 H         1 UNK         0.1150 
    137 H137       -0.7689  -20.1866  -49.5399 H         1 UNK         0.1150 
    138 H138        2.9593  -18.1615  -48.9545 H         1 UNK         0.1150 
    139 H139        2.9482  -20.5749  -49.1852 H         1 UNK         0.0800 
    140 H140        1.8729  -20.7459  -47.8184 H         1 UNK         0.0800 
    141 H141        2.4243  -23.3724  -48.0293 H         1 UNK         0.0800 
    142 H142        1.2440  -24.3328  -48.8464 H         1 UNK         0.0800 
    143 H143        0.2406  -24.3285  -46.8255 H         1 UNK         0.0600 
    144 H144        1.9929  -22.3198  -46.0878 H         1 UNK         0.3000 
    145 H145        0.6644  -21.4923  -42.9426 H         1 UNK         0.0600 
    146 H146        2.7042  -22.5231  -41.9877 H         1 UNK         0.0600 
    147 H147        1.5064  -23.7390  -42.4013 H         1 UNK         0.0600 
    148 H148        2.9068  -23.5097  -43.4361 H         1 UNK         0.0600 
    149 H149        1.9389  -19.9138  -43.7597 H         1 UNK         0.3000 
    150 H150        5.1938  -19.8387  -44.9091 H         1 UNK         0.0600 
    151 H151        4.1930  -19.7370  -47.1807 H         1 UNK         0.0600 
    152 H152        4.5472  -18.1224  -46.5899 H         1 UNK         0.0600 
    153 H153        2.8879  -18.7150  -46.5716 H         1 UNK         0.0600 
    154 H154        2.8082  -18.2660  -43.9923 H         1 UNK         0.3000 
    155 H155        4.9093  -16.3767  -41.7706 H         1 UNK         0.0600 
    156 H156        4.8717  -15.1170  -43.9119 H         1 UNK         0.0600 
    157 H157        3.6081  -14.5380  -42.8351 H         1 UNK         0.0600 
    158 H158        3.2030  -15.5943  -44.1859 H         1 UNK         0.0600 
    159 H159        2.1020  -16.3485  -42.0630 H         1 UNK         0.3000 
    160 H160        1.4145  -18.6653  -39.4036 H         1 UNK         0.0600 
    161 H161        1.2571  -15.6206  -39.7182 H         1 UNK         0.0600 
    162 H162        2.0055  -16.4909  -38.3864 H         1 UNK         0.0600 
    163 H163        0.2687  -16.5939  -38.6316 H         1 UNK         0.0600 
    164 H164        0.1484  -16.9887  -41.5255 H         1 UNK         0.3000 
    165 H165       -1.0865  -19.7748  -43.2154 H         1 UNK         0.0600 
    166 H166       -3.4025  -18.9570  -42.9094 H         1 UNK         0.0600 
    167 H167       -2.8720  -19.8161  -41.4734 H         1 UNK         0.0600 
    168 H168       -2.9249  -18.0569  -41.4681 H         1 UNK         0.0600 
    169 H169       -1.8068  -17.0229  -43.4150 H         1 UNK         0.3000 
    170 H170        1.0696  -15.8738  -45.1340 H         1 UNK         0.0600 
    171 H171       -0.2373  -17.0787  -46.8721 H         1 UNK         0.0600 
    172 H172       -1.7456  -16.4793  -46.1846 H         1 UNK         0.0600 
    173 H173       -0.5863  -15.3649  -46.9049 H         1 UNK         0.0600 
    174 H174       -1.3090  -14.4987  -44.6629 H         1 UNK         0.3000 
    175 H175       -2.0457  -13.6971  -42.5122 H         1 UNK         0.0600 
    176 H176        0.2689  -13.1068  -40.5856 H         1 UNK         0.0600 
    177 H177       -1.4084  -12.6089  -40.3748 H         1 UNK         0.0600 
    178 H178       -0.9872  -14.3122  -40.3227 H         1 UNK         0.0600 
    179 H179        0.3153  -12.1189  -43.3050 H         1 UNK         0.3000 
    180 H180       -1.7257   -9.1792  -43.8333 H         1 UNK         0.0600 
    181 H181        0.8719   -9.7603  -42.3189 H         1 UNK         0.0600 
    182 H182       -0.5456   -8.9488  -41.6670 H         1 UNK         0.0600 
    183 H183        0.3739   -8.1969  -42.9615 H         1 UNK         0.0600 
    184 H184        0.8115  -10.4665  -44.7137 H         1 UNK         0.3000 
    185 H185       -0.1683  -10.6010  -48.0650 H         1 UNK         0.0600 
    186 H186        0.1878   -8.1326  -48.0632 H         1 UNK         0.0600 
    187 H187        1.5687   -8.3138  -46.9884 H         1 UNK         0.0600 
    188 H188        1.6245   -8.9716  -48.6245 H         1 UNK         0.0600 
    189 H189        2.3975  -10.6056  -46.7108 H         1 UNK         0.3000 
    190 H190       -0.5539  -21.0163  -46.5401 H         1 UNK         0.3000 
    191 H191       -2.8339  -20.7476  -48.1720 H         1 UNK         0.0600 
    192 H192       -1.6579  -18.8763  -47.0204 H         1 UNK         0.0600 
    193 H193       -3.3691  -18.8703  -46.6261 H         1 UNK         0.0600 
    194 H194       -2.2020  -19.4729  -45.4549 H         1 UNK         0.0600 
    195 H195       -2.4292  -22.4820  -45.1107 H         1 UNK         0.3000 
    196 H196       -5.1905  -22.6775  -44.3734 H         1 UNK         0.0600 
    197 H197       -4.3653  -24.4969  -42.8931 H         1 UNK         0.0600 
    198 H198       -3.3011  -23.1012  -42.8004 H         1 UNK         0.0600 
    199 H199       -2.8213  -24.5163  -43.7364 H         1 UNK         0.0600 
    200 H200       -3.2651  -24.3188  -46.7927 H         1 UNK         0.3000 
    201 H201       -5.4699  -26.2434  -47.4224 H         1 UNK         0.0600 
    202 H202       -3.2355  -27.2782  -46.9296 H         1 UNK         0.0600 
    203 H203       -2.4965  -26.2882  -48.1868 H         1 UNK         0.0600 
    204 H204       -3.6934  -27.5093  -48.6078 H         1 UNK         0.0600 
    205 H205       -4.6350  -23.1904  -48.1493 H         1 UNK         0.3000 
    206 H206       -4.5744  -21.7643  -49.8366 H         1 UNK         0.0600 
    207 H207       -6.9725  -22.3536  -49.9572 H         1 UNK         0.0600 
    208 H208       -6.3624  -21.9789  -51.5609 H         1 UNK         0.0600 
    209 H209       -6.6290  -23.6538  -51.0937 H         1 UNK         0.0600 
    210 H210       -2.4014  -23.4321  -49.8610 H         1 UNK         0.3000 
    211 H211       -0.6723  -24.2094  -50.9964 H         1 UNK         0.0600 
    212 H212       -1.6152  -22.5152  -53.3656 H         1 UNK         0.0600 
    213 H213        0.0182  -23.0771  -53.0528 H         1 UNK         0.0600 
    214 H214       -0.7149  -21.8904  -51.9869 H         1 UNK         0.0600 
    215 H215       -2.7413  -25.9185  -50.8558 H         1 UNK         0.3000 
    216 H216       -3.5057  -27.8874  -51.4737 H         1 UNK         0.0600 
    217 H217       -2.4169  -29.2795  -53.1743 H         1 UNK         0.0600 
    218 H218       -1.1909  -28.4868  -52.1979 H         1 UNK         0.0600 
    219 H219       -1.5417  -27.9040  -53.8246 H         1 UNK         0.0600 
    220 H220       -5.0943  -25.9660  -51.8552 H         1 UNK         0.3000 
    221 H221       -6.9567  -25.2293  -52.7725 H         1 UNK         0.0600 
    222 H222       -6.9997  -27.8873  -54.2882 H         1 UNK         0.0600 
    223 H223       -7.5305  -27.6510  -52.6234 H         1 UNK         0.0600 
    224 H224       -8.3854  -26.8629  -53.9379 H         1 UNK         0.0600 
    225 H225       -4.8223  -24.0137  -53.9544 H         1 UNK         0.3000 
    226 H226       -5.3801  -23.8080  -56.8677 H         1 UNK         0.0600 
    227 H227       -3.0006  -23.9185  -56.1750 H         1 UNK         0.0600 
    228 H228       -3.3682  -22.3251  -56.8238 H         1 UNK         0.0600 
    229 H229       -3.2281  -22.5578  -55.0853 H         1 UNK         0.0600 
    230 H230       -6.2198  -21.9183  -57.7391 H         1 UNK         0.3000 
    231 H231       -8.0709  -20.3903  -56.2372 H         1 UNK         0.0600 
    232 H232       -6.8802  -19.9202  -59.0234 H         1 UNK         0.0600 
    233 H233       -8.2975  -19.1051  -58.3739 H         1 UNK         0.0600 
    234 H234       -8.3389  -20.8391  -58.6518 H         1 UNK         0.0600 
    235 H235       -7.5444  -18.9568  -54.7265 H         1 UNK         0.3000 
    236 H236       -6.5747  -17.4119  -53.4775 H         1 UNK         0.0600 
    237 H237       -7.2967  -15.9059  -55.3461 H         1 UNK         0.0600 
    238 H238       -5.8593  -15.3022  -54.5402 H         1 UNK         0.0600 
    239 H239       -5.7166  -16.0893  -56.1063 H         1 UNK         0.0600 
    240 H240       -5.0552  -19.7748  -53.9934 H         1 UNK         0.3000 
    241 H241       -3.1488  -20.7361  -53.5733 H         1 UNK         0.0600 
    242 H242       -2.0874  -19.4207  -57.0852 H         1 UNK         0.3800 
    243 H243       -3.6359  -19.1264  -56.3395 H         1 UNK         0.3800 
    244 H244       -1.1935  -19.6368  -52.4774 H         1 UNK         0.0800 
    245 H245       -1.9240  -18.0777  -52.7049 H         1 UNK         0.0800 
    246 H246       -2.5780  -17.0425  -50.5391 H         1 UNK         0.0800 
    247 H247       -2.8550  -17.9209  -49.0573 H         1 UNK         0.0800 
@<TRIPOS>BOND
     1    1    2 1    
     2    1  127 1    
     3    1  128 1    
     4    1  129 1    
     5    2    3 2    
     6    2    4 am   BACKBONE|DICT|INTERRES
     7    4    5 1    
     8    4  130 1    
     9    5    6 1    
    10    5   65 1    
    11    5  131 1    
    12    6    7 1    
    13    6  132 1    
    14    6  133 1    
    15    7    8 1    
    16    8    9 1    
    17    8  134 1    
    18    8  135 1    
    19    9   10 ar   
    20    9   14 ar   
    21   10   11 ar   
    22   10  136 1    
    23   11   12 ar   
    24   11  126 1    
    25   12   13 ar   
    26   12  137 1    
    27   13   14 ar   
    28   13   15 1    
    29   14  138 1    
    30   15   16 1    
    31   15  139 1    
    32   15  140 1    
    33   16   17 1    
    34   17   18 1    
    35   17  141 1    
    36   17  142 1    
    37   18   19 1    
    38   18   67 1    
    39   18  143 1    
    40   19   20 am   BACKBONE|DICT|INTERRES
    41   19  144 1    
    42   20   21 2    
    43   20   22 1    
    44   22   23 1    
    45   22   24 1    
    46   22  145 1    
    47   23  146 1    
    48   23  147 1    
    49   23  148 1    
    50   24   25 am   BACKBONE|DICT|INTERRES
    51   24  149 1    
    52   25   26 2    
    53   25   27 1    
    54   27   28 1    
    55   27   29 1    
    56   27  150 1    
    57   28  151 1    
    58   28  152 1    
    59   28  153 1    
    60   29   30 am   BACKBONE|DICT|INTERRES
    61   29  154 1    
    62   30   31 2    
    63   30   32 1    
    64   32   33 1    
    65   32   34 1    
    66   32  155 1    
    67   33  156 1    
    68   33  157 1    
    69   33  158 1    
    70   34   35 am   BACKBONE|DICT|INTERRES
    71   34  159 1    
    72   35   36 2    
    73   35   37 1    
    74   37   38 1    
    75   37   39 1    
    76   37  160 1    
    77   38  161 1    
    78   38  162 1    
    79   38  163 1    
    80   39   40 am   BACKBONE|DICT|INTERRES
    81   39  164 1    
    82   40   41 2    
    83   40   42 1    
    84   42   43 1    
    85   42   44 1    
    86   42  165 1    
    87   43  166 1    
    88   43  167 1    
    89   43  168 1    
    90   44   45 am   BACKBONE|DICT|INTERRES
    91   44  169 1    
    92   45   46 2    
    93   45   47 1    
    94   47   48 1    
    95   47   49 1    
    96   47  170 1    
    97   48  171 1    
    98   48  172 1    
    99   48  173 1    
   100   49   50 am   BACKBONE|DICT|INTERRES
   101   49  174 1    
   102   50   51 2    
   103   50   52 1    
   104   52   53 1    
   105   52   54 1    
   106   52  175 1    
   107   53  176 1    
   108   53  177 1    
   109   53  178 1    
   110   54   55 am   BACKBONE|DICT|INTERRES
   111   54  179 1    
   112   55   56 2    
   113   55   57 1    
   114   57   58 1    
   115   57   59 1    
   116   57  180 1    
   117   58  181 1    
   118   58  182 1    
   119   58  183 1    
   120   59   60 am   BACKBONE|DICT|INTERRES
   121   59  184 1    
   122   60   61 2    
   123   60   62 1    
   124   62   63 1    
   125   62   64 1    
   126   62  185 1    
   127   63  186 1    
   128   63  187 1    
   129   63  188 1    
   130   64   65 am   BACKBONE|DICT|INTERRES
   131   64  189 1    
   132   65   66 2    
   133   67   68 2    
   134   67   69 am   BACKBONE|DICT|INTERRES
   135   69   70 1    
   136   69  190 1    
   137   70   71 1    
   138   70   72 1    
   139   70  191 1    
   140   71  192 1    
   141   71  193 1    
   142   71  194 1    
   143   72   73 2    
   144   72   74 am   BACKBONE|DICT|INTERRES
   145   74   75 1    
   146   74  195 1    
   147   75   76 1    
   148   75   77 1    
   149   75  196 1    
   150   76  197 1    
   151   76  198 1    
   152   76  199 1    
   153   77   78 2    
   154   77   79 am   BACKBONE|DICT|INTERRES
   155   79   80 1    
   156   79  200 1    
   157   80   81 1    
   158   80   82 1    
   159   80  201 1    
   160   81  202 1    
   161   81  203 1    
   162   81  204 1    
   163   82   83 2    
   164   82   84 am   BACKBONE|DICT|INTERRES
   165   84   85 1    
   166   84  205 1    
   167   85   86 1    
   168   85   87 1    
   169   85  206 1    
   170   86  207 1    
   171   86  208 1    
   172   86  209 1    
   173   87   88 2    
   174   87   89 am   BACKBONE|DICT|INTERRES
   175   89   90 1    
   176   89  210 1    
   177   90   91 1    
   178   90   92 1    
   179   90  211 1    
   180   91  212 1    
   181   91  213 1    
   182   91  214 1    
   183   92   93 2    
   184   92   94 am   BACKBONE|DICT|INTERRES
   185   94   95 1    
   186   94  215 1    
   187   95   96 1    
   188   95   97 1    
   189   95  216 1    
   190   96  217 1    
   191   96  218 1    
   192   96  219 1    
   193   97   98 2    
   194   97   99 am   BACKBONE|DICT|INTERRES
   195   99  100 1    
   196   99  220 1    
   197  100  101 1    
   198  100  102 1    
   199  100  221 1    
   200  101  222 1    
   201  101  223 1    
   202  101  224 1    
   203  102  103 2    
   204  102  104 am   BACKBONE|DICT|INTERRES
   205  104  105 1    
   206  104  225 1    
   207  105  106 1    
   208  105  107 1    
   209  105  226 1    
   210  106  227 1    
   211  106  228 1    
   212  106  229 1    
   213  107  108 2    
   214  107  109 am   BACKBONE|DICT|INTERRES
   215  109  110 1    
   216  109  230 1    
   217  110  111 1    
   218  110  112 1    
   219  110  231 1    
   220  111  232 1    
   221  111  233 1    
   222  111  234 1    
   223  112  113 2    
   224  112  114 am   BACKBONE|DICT|INTERRES
   225  114  115 1    
   226  114  235 1    
   227  115  116 1    
   228  115  117 1    
   229  115  236 1    
   230  116  237 1    
   231  116  238 1    
   232  116  239 1    
   233  117  118 2    
   234  117  119 am   BACKBONE|DICT|INTERRES
   235  119  120 1    
   236  119  240 1    
   237  120  121 1    
   238  120  124 1    
   239  120  241 1    
   240  121  122 am   BACKBONE|DICT|INTERRES
   241  121  123 2    
   242  122  242 1    
   243  122  243 1    
   244  124  125 1    
   245  124  244 1    
   246  124  245 1    
   247  125  126 1    
   248  126  246 1    
   249  126  247 1    
@<TRIPOS>SUBSTRUCTURE
     1 UNK         1 GROUP             0       ****    0 ROOT    
