@<TRIPOS>MOLECULE
3R540
247   249    1
SMALL
USER_CHARGES


@<TRIPOS>ATOM
      1 CA          0.3620   -8.5118  -47.0899 C.3       0 UNK        -0.1800 
      2 C           0.4712  -10.0222  -46.9473 C.2       0 UNK         0.5000 
      3 O           0.9586  -10.5111  -45.9270 O.2       0 UNK        -0.5000 
      4 N           0.0019  -10.7748  -47.9518 N.am      1 UNK        -0.5000 
      5 CA          0.0499  -12.2426  -47.9756 C.3       1 UNK         0.1400 
      6 C6         -0.2624  -12.8222  -49.3753 C.3       23 UNK        -0.0398 
      7 S7         -1.9921  -12.5854  -49.9225 S.3       23 UNK        -0.2404 
      8 C8         -2.1070  -13.7376  -51.3343 C.3       23 UNK        -0.0205 
      9 C9         -1.6604  -15.1621  -51.0157 C.ar      23 UNK        -0.0193 
     10 C10        -0.7806  -15.8191  -51.8809 C.ar      23 UNK        -0.1150 
     11 C11        -0.3661  -17.1266  -51.6166 C.ar      23 UNK        -0.0193 
     12 C12        -0.8255  -17.7729  -50.4676 C.ar      23 UNK        -0.1150 
     13 C13        -1.6975  -17.1288  -49.5836 C.ar      23 UNK        -0.0193 
     14 C14        -2.1229  -15.8285  -49.8746 C.ar      23 UNK        -0.1150 
     15 C15        -2.2287  -17.8410  -48.3436 C.3       23 UNK        -0.0205 
     16 S16        -0.9631  -18.8009  -47.4450 S.3       23 UNK        -0.2404 
     17 C17        -2.0264  -19.6703  -46.2488 C.3       23 UNK        -0.0398 
     18 CA         -2.2483  -21.1565  -46.6239 C.3       11 UNK         0.1400 
     19 N          -1.0526  -21.9661  -46.3564 N.am      11 UNK        -0.5000 
     20 C          -0.9402  -23.2877  -46.5621 C.2       10 UNK         0.5000 
     21 O          -1.8134  -23.9704  -47.0978 O.2       10 UNK        -0.5000 
     22 CA          0.3178  -23.9911  -46.0140 C.3       10 UNK         0.1400 
     23 CB          1.3728  -24.1318  -47.1198 C.3       10 UNK        -0.1800 
     24 N           0.9198  -23.3248  -44.8561 N.am      10 UNK        -0.5000 
     25 C           0.2967  -23.0004  -43.7130 C.2       9 UNK         0.5000 
     26 O          -0.8678  -23.3116  -43.4605 O.2       9 UNK        -0.5000 
     27 CA          1.0744  -22.1305  -42.7074 C.3       9 UNK         0.1400 
     28 CB          1.6061  -22.9933  -41.5542 C.3       9 UNK        -0.1800 
     29 N           2.1845  -21.3592  -43.2770 N.am      9 UNK        -0.5000 
     30 C           2.1099  -20.4751  -44.2818 C.2       8 UNK         0.5000 
     31 O           1.0887  -20.2720  -44.9406 O.2       8 UNK        -0.5000 
     32 CA          3.4014  -19.6889  -44.5772 C.3       8 UNK         0.1400 
     33 CB          3.3012  -18.8383  -45.8564 C.3       8 UNK        -0.1800 
     34 N           3.7401  -18.8178  -43.4537 N.am      8 UNK        -0.5000 
     35 C           4.3317  -19.1987  -42.3134 C.2       7 UNK         0.5000 
     36 O           4.7110  -20.3502  -42.0945 O.2       7 UNK        -0.5000 
     37 CA          4.4813  -18.1236  -41.2257 C.3       7 UNK         0.1400 
     38 CB          5.6055  -17.1372  -41.5801 C.3       7 UNK        -0.1800 
     39 N           3.2262  -17.3923  -41.0615 N.am      7 UNK        -0.5000 
     40 C           2.2825  -17.6845  -40.1556 C.2       6 UNK         0.5000 
     41 O           2.4085  -18.5521  -39.2908 O.2       6 UNK        -0.5000 
     42 CA          0.9682  -16.8802  -40.2311 C.3       6 UNK         0.1400 
     43 CB          1.0482  -15.6331  -39.3385 C.3       6 UNK        -0.1800 
     44 N           0.6313  -16.4773  -41.5977 N.am      6 UNK        -0.5000 
     45 C           0.2431  -17.3317  -42.5570 C.2       5 UNK         0.5000 
     46 O           0.0096  -18.5207  -42.3420 O.2       5 UNK        -0.5000 
     47 CA          0.1028  -16.7886  -43.9960 C.3       5 UNK         0.1400 
     48 CB         -1.3810  -16.5894  -44.3417 C.3       5 UNK        -0.1800 
     49 N           0.8170  -15.5357  -44.2627 N.am      5 UNK        -0.5000 
     50 C           2.1250  -15.2987  -44.0882 C.2       4 UNK         0.5000 
     51 O           2.9269  -16.1458  -43.6976 O.2       4 UNK        -0.5000 
     52 CA          2.6103  -13.8548  -44.3197 C.3       4 UNK         0.1400 
     53 CB          3.0836  -13.6749  -45.7685 C.3       4 UNK        -0.1800 
     54 N           1.5995  -12.8419  -43.9950 N.am      4 UNK        -0.5000 
     55 C           1.0613  -12.6616  -42.7777 C.2       3 UNK         0.5000 
     56 O           1.3715  -13.3263  -41.7889 O.2       3 UNK        -0.5000 
     57 CA         -0.0431  -11.5988  -42.6585 C.3       3 UNK         0.1400 
     58 CB          0.5545  -10.1895  -42.5266 C.3       3 UNK        -0.1800 
     59 N          -0.9403  -11.6568  -43.8120 N.am      3 UNK        -0.5000 
     60 C          -1.9601  -12.5215  -43.9209 C.2       2 UNK         0.5000 
     61 O          -2.3220  -13.2639  -43.0083 O.2       2 UNK        -0.5000 
     62 CA         -2.6920  -12.5888  -45.2763 C.3       2 UNK         0.1400 
     63 CB         -3.9436  -11.6989  -45.2583 C.3       2 UNK        -0.1800 
     64 N          -1.8492  -12.2013  -46.4074 N.am      2 UNK        -0.5000 
     65 C          -0.7940  -12.8972  -46.8558 C.2       1 UNK         0.5000 
     66 O          -0.4459  -13.9785  -46.3847 O.2       1 UNK        -0.5000 
     67 C          -3.5098  -21.6838  -45.9031 C.2       11 UNK         0.5000 
     68 O          -4.6059  -21.5448  -46.4455 O.2       11 UNK        -0.5000 
     69 N          -3.3364  -22.2777  -44.7146 N.am      12 UNK        -0.5000 
     70 CA         -4.4061  -22.8709  -43.9164 C.3       12 UNK         0.1400 
     71 CB         -4.3048  -22.3449  -42.4757 C.3       12 UNK        -0.1800 
     72 C          -4.3267  -24.4054  -43.9350 C.2       12 UNK         0.5000 
     73 O          -5.3544  -25.0613  -44.1035 O.2       12 UNK        -0.5000 
     74 N          -3.1159  -24.9521  -43.7560 N.am      13 UNK        -0.5000 
     75 CA         -2.8667  -26.3838  -43.5797 C.3       13 UNK         0.1400 
     76 CB         -1.4453  -26.5837  -43.0310 C.3       13 UNK        -0.1800 
     77 C          -3.0730  -27.2166  -44.8567 C.2       13 UNK         0.5000 
     78 O          -3.5360  -28.3541  -44.7625 O.2       13 UNK        -0.5000 
     79 N          -2.7275  -26.6434  -46.0160 N.am      14 UNK        -0.5000 
     80 CA         -2.8514  -27.2799  -47.3302 C.3       14 UNK         0.1400 
     81 CB         -1.4618  -27.3092  -47.9906 C.3       14 UNK        -0.1800 
     82 C          -3.8669  -26.5533  -48.2316 C.2       14 UNK         0.5000 
     83 O          -4.1241  -27.0235  -49.3404 O.2       14 UNK        -0.5000 
     84 N          -4.4031  -25.4171  -47.7566 N.am      15 UNK        -0.5000 
     85 CA         -5.2543  -24.4632  -48.4763 C.3       15 UNK         0.1400 
     86 CB         -6.6293  -25.0842  -48.7978 C.3       15 UNK        -0.1800 
     87 C          -4.5557  -23.8644  -49.7175 C.2       15 UNK         0.5000 
     88 O          -5.2101  -23.5881  -50.7246 O.2       15 UNK        -0.5000 
     89 N          -3.2301  -23.6797  -49.6316 N.am      16 UNK        -0.5000 
     90 CA         -2.3472  -23.2662  -50.7245 C.3       16 UNK         0.1400 
     91 CB         -0.9213  -23.7575  -50.4150 C.3       16 UNK        -0.1800 
     92 C          -2.4049  -21.7502  -51.0108 C.2       16 UNK         0.5000 
     93 O          -1.3686  -21.0887  -51.0636 O.2       16 UNK        -0.5000 
     94 N          -3.6243  -21.2297  -51.1676 N.am      17 UNK        -0.5000 
     95 CA         -3.9320  -19.8274  -51.4236 C.3       17 UNK         0.1400 
     96 CB         -5.3811  -19.5737  -50.9742 C.3       17 UNK        -0.1800 
     97 C          -3.7267  -19.4201  -52.8950 C.2       17 UNK         0.5000 
     98 O          -3.4611  -20.2647  -53.7595 O.2       17 UNK        -0.5000 
     99 N          -3.8929  -18.1144  -53.1497 N.am      18 UNK        -0.5000 
    100 CA        -3.8772  -17.4870  -54.4709 C.3       18 UNK         0.1400 
    101 CB        -4.1064  -15.9762  -54.3152 C.3       18 UNK        -0.1800 
    102 C         -4.9229  -18.1159  -55.4069 C.2       18 UNK         0.5000 
    103 O         -6.1005  -18.1784  -55.0493 O.2       18 UNK        -0.5000 
    104 N         -4.4474  -18.6156  -56.5549 N.am      19 UNK        -0.5000 
    105 CA        -5.1671  -19.3808  -57.5826 C.3       19 UNK         0.1400 
    106 CB        -6.3697  -18.5927  -58.1411 C.3       19 UNK        -0.1800 
    107 C         -5.5655  -20.8153  -57.1662 C.2       19 UNK         0.5000 
    108 O         -5.9955  -21.5803  -58.0306 O.2       19 UNK        -0.5000 
    109 N         -5.3928  -21.1816  -55.8882 N.am      20 UNK        -0.5000 
    110 CA        -5.6145  -22.5351  -55.3784 C.3       20 UNK         0.1400 
    111 CB        -6.0806  -22.4714  -53.9161 C.3       20 UNK        -0.1800 
    112 C         -4.3463  -23.3948  -55.5153 C.2       20 UNK         0.5000 
    113 O         -4.4585  -24.5850  -55.8117 O.2       20 UNK        -0.5000 
    114 N         -3.1699  -22.7793  -55.3281 N.am      21 UNK        -0.5000 
    115 CA        -1.8675  -23.4175  -55.5193 C.3       21 UNK         0.1400 
    116 CB        -1.3219  -23.9312  -54.1786 C.3       21 UNK        -0.1800 
    117 C         -0.8739  -22.4619  -56.1911 C.2       21 UNK         0.5000 
    118 O         -0.3007  -22.8162  -57.2216 O.2       21 UNK        -0.5000 
    119 N         -0.6892  -21.2688  -55.6110 N.am      22 UNK        -0.5000 
    120 CA         0.2654  -20.2496  -56.0883 C.3       22 UNK         0.1400 
    121 C         -0.2538  -19.3573  -57.2579 C.2       22 UNK         0.5000 
    122 N         -1.4365  -19.6026  -57.8101 N.am      22 UNK        -0.7600 
    123 O          0.4374  -18.4390  -57.6904 O.2       22 UNK        -0.5000 
    124 C124        0.8591  -19.4262  -54.9141 C.3       23 UNK        -0.0398 
    125 S125       -0.4060  -18.5264  -53.9667 S.3       23 UNK        -0.2404 
    126 C126        0.5549  -17.8504  -52.5853 C.3       23 UNK        -0.0205 
    127 H127       -0.2392   -8.1018  -46.2785 H         1 UNK         0.0600 
    128 H128       -0.0999   -8.2265  -48.0353 H         1 UNK         0.0600 
    129 H129        1.3527   -8.0597  -47.0439 H         1 UNK         0.0600 
    130 H130       -0.4073  -10.3333  -48.7636 H         1 UNK         0.3000 
    131 H131        1.0867  -12.5071  -47.7637 H         1 UNK         0.0600 
    132 H132        0.3975  -12.3737  -50.1190 H         1 UNK         0.0800 
    133 H133       -0.0205  -13.8855  -49.3744 H         1 UNK         0.0800 
    134 H134       -3.1407  -13.7652  -51.6806 H         1 UNK         0.0800 
    135 H135       -1.5188  -13.3274  -52.1566 H         1 UNK         0.0800 
    136 H136       -0.4278  -15.3216  -52.7734 H         1 UNK         0.1150 
    137 H137       -0.5117  -18.7874  -50.2680 H         1 UNK         0.1150 
    138 H138       -2.8099  -15.3269  -49.2074 H         1 UNK         0.1150 
    139 H139       -3.0384  -18.5072  -48.6410 H         1 UNK         0.0800 
    140 H140       -2.6606  -17.1162  -47.6516 H         1 UNK         0.0800 
    141 H141       -2.9725  -19.1296  -46.1769 H         1 UNK         0.0800 
    142 H142       -1.5689  -19.5947  -45.2610 H         1 UNK         0.0800 
    143 H143       -2.4516  -21.2222  -47.6952 H         1 UNK         0.0600 
    144 H144       -0.2801  -21.4743  -45.9169 H         1 UNK         0.3000 
    145 H145        0.0191  -24.9918  -45.6979 H         1 UNK         0.0600 
    146 H146        2.2390  -24.6939  -46.7706 H         1 UNK         0.0600 
    147 H147        0.9684  -24.6658  -47.9808 H         1 UNK         0.0600 
    148 H148        1.7205  -23.1588  -47.4696 H         1 UNK         0.0600 
    149 H149        1.8718  -23.0097  -44.9681 H         1 UNK         0.3000 
    150 H150        0.3634  -21.4110  -42.2964 H         1 UNK         0.0600 
    151 H151        0.8010  -23.5607  -41.0850 H         1 UNK         0.0600 
    152 H152        2.0619  -22.3770  -40.7788 H         1 UNK         0.0600 
    153 H153        2.3544  -23.7078  -41.8996 H         1 UNK         0.0600 
    154 H154        3.0679  -21.4149  -42.7819 H         1 UNK         0.3000 
    155 H155        4.2048  -20.4139  -44.7228 H         1 UNK         0.0600 
    156 H156        2.5247  -18.0773  -45.7799 H         1 UNK         0.0600 
    157 H157        4.2431  -18.3315  -46.0663 H         1 UNK         0.0600 
    158 H158        3.0657  -19.4596  -46.7214 H         1 UNK         0.0600 
    159 H159        3.4470  -17.8469  -43.5443 H         1 UNK         0.3000 
    160 H160        4.7527  -18.6206  -40.2919 H         1 UNK         0.0600 
    161 H161        5.7424  -16.3991  -40.7898 H         1 UNK         0.0600 
    162 H162        5.3999  -16.5994  -42.5064 H         1 UNK         0.0600 
    163 H163        6.5552  -17.6584  -41.7067 H         1 UNK         0.0600 
    164 H164        3.0167  -16.7032  -41.7751 H         1 UNK         0.3000 
    165 H165        0.1648  -17.5166  -39.8541 H         1 UNK         0.0600 
    166 H166        0.1172  -15.0664  -39.3656 H         1 UNK         0.0600 
    167 H167        1.2320  -15.9090  -38.2994 H         1 UNK         0.0600 
    168 H168        1.8550  -14.9679  -39.6482 H         1 UNK         0.0600 
    169 H169        0.7944  -15.5073  -41.8390 H         1 UNK         0.3000 
    170 H170        0.5081  -17.5475  -44.6665 H         1 UNK         0.0600 
    171 H171       -1.9572  -17.4946  -44.1502 H         1 UNK         0.0600 
    172 H172       -1.8256  -15.7915  -43.7478 H         1 UNK         0.0600 
    173 H173       -1.5108  -16.3386  -45.3946 H         1 UNK         0.0600 
    174 H174        0.2639  -14.7953  -44.6811 H         1 UNK         0.3000 
    175 H175        3.4634  -13.6839  -43.6601 H         1 UNK         0.0600 
    176 H176        3.3725  -12.6433  -45.9710 H         1 UNK         0.0600 
    177 H177        2.3099  -13.9589  -46.4808 H         1 UNK         0.0600 
    178 H178        3.9520  -14.3033  -45.9701 H         1 UNK         0.0600 
    179 H179        1.3111  -12.2252  -44.7457 H         1 UNK         0.3000 
    180 H180       -0.6114  -11.8035  -41.7484 H         1 UNK         0.0600 
    181 H181        1.1765   -9.9252  -43.3816 H         1 UNK         0.0600 
    182 H182        1.1793  -10.1168  -41.6356 H         1 UNK         0.0600 
    183 H183       -0.2287   -9.4367  -42.4365 H         1 UNK         0.0600 
    184 H184       -0.6731  -11.1065  -44.6182 H         1 UNK         0.3000 
    185 H185       -3.0076  -13.6231  -45.4289 H         1 UNK         0.0600 
    186 H186       -4.6104  -11.9794  -44.4419 H         1 UNK         0.0600 
    187 H187       -3.6878  -10.6467  -45.1270 H         1 UNK         0.0600 
    188 H188       -4.5090  -11.7948  -46.1855 H         1 UNK         0.0600 
    189 H189       -2.0639  -11.3229  -46.8561 H         1 UNK         0.3000 
    190 H190       -2.3949  -22.3897  -44.3540 H         1 UNK         0.3000 
    191 H191       -5.3846  -22.5850  -44.3080 H         1 UNK         0.0600 
    192 H192       -4.4245  -21.2618  -42.4451 H         1 UNK         0.0600 
    193 H193       -5.0842  -22.7760  -41.8460 H         1 UNK         0.0600 
    194 H194       -3.3428  -22.5867  -42.0218 H         1 UNK         0.0600 
    195 H195       -2.3149  -24.3396  -43.6141 H         1 UNK         0.3000 
    196 H196       -3.5697  -26.7545  -42.8306 H         1 UNK         0.0600 
    197 H197       -1.2431  -27.6391  -42.8438 H         1 UNK         0.0600 
    198 H198       -1.3089  -26.0545  -42.0876 H         1 UNK         0.0600 
    199 H199       -0.6884  -26.2232  -43.7276 H         1 UNK         0.0600 
    200 H200       -2.3613  -25.6995  -46.0144 H         1 UNK         0.3000 
    201 H201       -3.2000  -28.3097  -47.2324 H         1 UNK         0.0600 
    202 H202       -0.7429  -27.8449  -47.3706 H         1 UNK         0.0600 
    203 H203       -1.0730  -26.3056  -48.1617 H         1 UNK         0.0600 
    204 H204       -1.4966  -27.8149  -48.9563 H         1 UNK         0.0600 
    205 H205       -4.1168  -25.1284  -46.8333 H         1 UNK         0.3000 
    206 H206       -5.4267  -23.6317  -47.7938 H         1 UNK         0.0600 
    207 H207       -7.0941  -25.4967  -47.9024 H         1 UNK         0.0600 
    208 H208       -7.3113  -24.3344  -49.2003 H         1 UNK         0.0600 
    209 H209       -6.5522  -25.8833  -49.5355 H         1 UNK         0.0600 
    210 H210       -2.7737  -23.8891  -48.7478 H         1 UNK         0.3000 
    211 H211       -2.6831  -23.7718  -51.6307 H         1 UNK         0.0600 
    212 H212       -0.5102  -23.2609  -49.5362 H         1 UNK         0.0600 
    213 H213       -0.2453  -23.5573  -51.2467 H         1 UNK         0.0600 
    214 H214       -0.9029  -24.8324  -50.2352 H         1 UNK         0.0600 
    215 H215       -4.4088  -21.8731  -51.1344 H         1 UNK         0.3000 
    216 H216       -3.2654  -19.2134  -50.8201 H         1 UNK         0.0600 
    217 H217       -5.6498  -18.5204  -51.0597 H         1 UNK         0.0600 
    218 H218       -5.5237  -19.8554  -49.9305 H         1 UNK         0.0600 
    219 H219       -6.0919  -20.1438  -51.5741 H         1 UNK         0.0600 
    220 H220       -4.1133  -17.5007  -52.3803 H         1 UNK         0.3000 
    221 H221       -2.8889  -17.6329  -54.9056 H         1 UNK         0.0600 
    222 H222       -3.3227  -15.5206  -53.7098 H         1 UNK         0.0600 
    223 H223       -4.0971  -15.4783  -55.2855 H         1 UNK         0.0600 
    224 H224       -5.0657  -15.7601  -53.8433 H         1 UNK         0.0600 
    225 H225       -3.4549  -18.5211  -56.7239 H         1 UNK         0.3000 
    226 H226       -4.4571  -19.5006  -58.4019 H         1 UNK         0.0600 
    227 H227       -6.0767  -17.5886  -58.4477 H         1 UNK         0.0600 
    228 H228       -6.7862  -19.0900  -59.0178 H         1 UNK         0.0600 
    229 H229       -7.1744  -18.5015  -57.4115 H         1 UNK         0.0600 
    230 H230       -5.0098  -20.5111  -55.2337 H         1 UNK         0.3000 
    231 H231       -6.4089  -23.0138  -55.9551 H         1 UNK         0.0600 
    232 H232       -5.3093  -22.0727  -53.2602 H         1 UNK         0.0600 
    233 H233       -6.3338  -23.4657  -53.5461 H         1 UNK         0.0600 
    234 H234       -6.9681  -21.8477  -53.8093 H         1 UNK         0.0600 
    235 H235       -3.1742  -21.8077  -55.0352 H         1 UNK         0.3000 
    236 H236       -1.9739  -24.2741  -56.1886 H         1 UNK         0.0600 
    237 H237       -1.9921  -24.6696  -53.7389 H         1 UNK         0.0600 
    238 H238       -0.3514  -24.4114  -54.3094 H         1 UNK         0.0600 
    239 H239       -1.1914  -23.1177  -53.4658 H         1 UNK         0.0600 
    240 H240       -1.2028  -21.0254  -54.7746 H         1 UNK         0.3000 
    241 H241        1.1125  -20.7834  -56.5233 H         1 UNK         0.0600 
    242 H242       -1.7281  -19.0491  -58.6003 H         1 UNK         0.3800 
    243 H243       -1.9588  -20.4166  -57.5337 H         1 UNK         0.3800 
    244 H244        1.3852  -20.0957  -54.2323 H         1 UNK         0.0800 
    245 H245        1.6069  -18.7168  -55.2726 H         1 UNK         0.0800 
    246 H246        1.3147  -17.1657  -52.9647 H         1 UNK         0.0800 
    247 H247        1.0823  -18.6593  -52.0772 H         1 UNK         0.0800 
@<TRIPOS>BOND
     1    1    2 1    
     2    1  127 1    
     3    1  128 1    
     4    1  129 1    
     5    2    3 2    
     6    2    4 am   BACKBONE|DICT|INTERRES
     7    4    5 1    
     8    4  130 1    
     9    5    6 1    
    10    5   65 1    
    11    5  131 1    
    12    6    7 1    
    13    6  132 1    
    14    6  133 1    
    15    7    8 1    
    16    8    9 1    
    17    8  134 1    
    18    8  135 1    
    19    9   10 ar   
    20    9   14 ar   
    21   10   11 ar   
    22   10  136 1    
    23   11   12 ar   
    24   11  126 1    
    25   12   13 ar   
    26   12  137 1    
    27   13   14 ar   
    28   13   15 1    
    29   14  138 1    
    30   15   16 1    
    31   15  139 1    
    32   15  140 1    
    33   16   17 1    
    34   17   18 1    
    35   17  141 1    
    36   17  142 1    
    37   18   19 1    
    38   18   67 1    
    39   18  143 1    
    40   19   20 am   BACKBONE|DICT|INTERRES
    41   19  144 1    
    42   20   21 2    
    43   20   22 1    
    44   22   23 1    
    45   22   24 1    
    46   22  145 1    
    47   23  146 1    
    48   23  147 1    
    49   23  148 1    
    50   24   25 am   BACKBONE|DICT|INTERRES
    51   24  149 1    
    52   25   26 2    
    53   25   27 1    
    54   27   28 1    
    55   27   29 1    
    56   27  150 1    
    57   28  151 1    
    58   28  152 1    
    59   28  153 1    
    60   29   30 am   BACKBONE|DICT|INTERRES
    61   29  154 1    
    62   30   31 2    
    63   30   32 1    
    64   32   33 1    
    65   32   34 1    
    66   32  155 1    
    67   33  156 1    
    68   33  157 1    
    69   33  158 1    
    70   34   35 am   BACKBONE|DICT|INTERRES
    71   34  159 1    
    72   35   36 2    
    73   35   37 1    
    74   37   38 1    
    75   37   39 1    
    76   37  160 1    
    77   38  161 1    
    78   38  162 1    
    79   38  163 1    
    80   39   40 am   BACKBONE|DICT|INTERRES
    81   39  164 1    
    82   40   41 2    
    83   40   42 1    
    84   42   43 1    
    85   42   44 1    
    86   42  165 1    
    87   43  166 1    
    88   43  167 1    
    89   43  168 1    
    90   44   45 am   BACKBONE|DICT|INTERRES
    91   44  169 1    
    92   45   46 2    
    93   45   47 1    
    94   47   48 1    
    95   47   49 1    
    96   47  170 1    
    97   48  171 1    
    98   48  172 1    
    99   48  173 1    
   100   49   50 am   BACKBONE|DICT|INTERRES
   101   49  174 1    
   102   50   51 2    
   103   50   52 1    
   104   52   53 1    
   105   52   54 1    
   106   52  175 1    
   107   53  176 1    
   108   53  177 1    
   109   53  178 1    
   110   54   55 am   BACKBONE|DICT|INTERRES
   111   54  179 1    
   112   55   56 2    
   113   55   57 1    
   114   57   58 1    
   115   57   59 1    
   116   57  180 1    
   117   58  181 1    
   118   58  182 1    
   119   58  183 1    
   120   59   60 am   BACKBONE|DICT|INTERRES
   121   59  184 1    
   122   60   61 2    
   123   60   62 1    
   124   62   63 1    
   125   62   64 1    
   126   62  185 1    
   127   63  186 1    
   128   63  187 1    
   129   63  188 1    
   130   64   65 am   BACKBONE|DICT|INTERRES
   131   64  189 1    
   132   65   66 2    
   133   67   68 2    
   134   67   69 am   BACKBONE|DICT|INTERRES
   135   69   70 1    
   136   69  190 1    
   137   70   71 1    
   138   70   72 1    
   139   70  191 1    
   140   71  192 1    
   141   71  193 1    
   142   71  194 1    
   143   72   73 2    
   144   72   74 am   BACKBONE|DICT|INTERRES
   145   74   75 1    
   146   74  195 1    
   147   75   76 1    
   148   75   77 1    
   149   75  196 1    
   150   76  197 1    
   151   76  198 1    
   152   76  199 1    
   153   77   78 2    
   154   77   79 am   BACKBONE|DICT|INTERRES
   155   79   80 1    
   156   79  200 1    
   157   80   81 1    
   158   80   82 1    
   159   80  201 1    
   160   81  202 1    
   161   81  203 1    
   162   81  204 1    
   163   82   83 2    
   164   82   84 am   BACKBONE|DICT|INTERRES
   165   84   85 1    
   166   84  205 1    
   167   85   86 1    
   168   85   87 1    
   169   85  206 1    
   170   86  207 1    
   171   86  208 1    
   172   86  209 1    
   173   87   88 2    
   174   87   89 am   BACKBONE|DICT|INTERRES
   175   89   90 1    
   176   89  210 1    
   177   90   91 1    
   178   90   92 1    
   179   90  211 1    
   180   91  212 1    
   181   91  213 1    
   182   91  214 1    
   183   92   93 2    
   184   92   94 am   BACKBONE|DICT|INTERRES
   185   94   95 1    
   186   94  215 1    
   187   95   96 1    
   188   95   97 1    
   189   95  216 1    
   190   96  217 1    
   191   96  218 1    
   192   96  219 1    
   193   97   98 2    
   194   97   99 am   BACKBONE|DICT|INTERRES
   195   99  100 1    
   196   99  220 1    
   197  100  101 1    
   198  100  102 1    
   199  100  221 1    
   200  101  222 1    
   201  101  223 1    
   202  101  224 1    
   203  102  103 2    
   204  102  104 am   BACKBONE|DICT|INTERRES
   205  104  105 1    
   206  104  225 1    
   207  105  106 1    
   208  105  107 1    
   209  105  226 1    
   210  106  227 1    
   211  106  228 1    
   212  106  229 1    
   213  107  108 2    
   214  107  109 am   BACKBONE|DICT|INTERRES
   215  109  110 1    
   216  109  230 1    
   217  110  111 1    
   218  110  112 1    
   219  110  231 1    
   220  111  232 1    
   221  111  233 1    
   222  111  234 1    
   223  112  113 2    
   224  112  114 am   BACKBONE|DICT|INTERRES
   225  114  115 1    
   226  114  235 1    
   227  115  116 1    
   228  115  117 1    
   229  115  236 1    
   230  116  237 1    
   231  116  238 1    
   232  116  239 1    
   233  117  118 2    
   234  117  119 am   BACKBONE|DICT|INTERRES
   235  119  120 1    
   236  119  240 1    
   237  120  121 1    
   238  120  124 1    
   239  120  241 1    
   240  121  122 am   BACKBONE|DICT|INTERRES
   241  121  123 2    
   242  122  242 1    
   243  122  243 1    
   244  124  125 1    
   245  124  244 1    
   246  124  245 1    
   247  125  126 1    
   248  126  246 1    
   249  126  247 1    
@<TRIPOS>SUBSTRUCTURE
     1 UNK         1 GROUP             0       ****    0 ROOT    
