@<TRIPOS>MOLECULE
3R540
247   249    1
SMALL
USER_CHARGES


@<TRIPOS>ATOM
      1 CA          5.6292  -14.1735  -47.6157 C.3       0 UNK        -0.1800 
      2 C           4.4422  -13.7115  -48.4480 C.2       0 UNK         0.5000 
      3 O           4.6377  -13.2072  -49.5542 O.2       0 UNK        -0.5000 
      4 N           3.2174  -13.8758  -47.9277 N.am      1 UNK        -0.5000 
      5 CA          1.9790  -13.5587  -48.6512 C.3       1 UNK         0.1400 
      6 C6          0.8315  -13.1006  -47.7156 C.3       23 UNK        -0.0398 
      7 S7          0.1605  -14.3713  -46.5832 S.3       23 UNK        -0.2404 
      8 C8         -1.6375  -14.1617  -46.8159 C.3       23 UNK        -0.0205 
      9 C9         -2.1784  -14.9412  -48.0068 C.ar      23 UNK        -0.0193 
     10 C10        -2.2984  -14.3341  -49.2612 C.ar      23 UNK        -0.1150 
     11 C11        -2.8137  -15.0440  -50.3509 C.ar      23 UNK        -0.0193 
     12 C12        -3.2283  -16.3670  -50.1692 C.ar      23 UNK        -0.1150 
     13 C13        -3.1253  -16.9832  -48.9199 C.ar      23 UNK        -0.0193 
     14 C14        -2.5898  -16.2680  -47.8447 C.ar      23 UNK        -0.1150 
     15 C15        -3.5332  -18.4389  -48.7606 C.3       23 UNK        -0.0205 
     16 S16        -5.0984  -18.6558  -47.8416 S.3       23 UNK        -0.2404 
     17 C17        -4.5504  -18.8738  -46.1122 C.3       23 UNK        -0.0398 
     18 CA         -3.5619  -20.0645  -45.9407 C.3       11 UNK         0.1400 
     19 N          -2.2627  -19.6157  -45.4470 N.am      11 UNK        -0.5000 
     20 C          -1.0866  -19.8516  -46.0374 C.2       10 UNK         0.5000 
     21 O          -0.9520  -20.4684  -47.0916 O.2       10 UNK        -0.5000 
     22 CA          0.1529  -19.3197  -45.3084 C.3       10 UNK         0.1400 
     23 CB          0.3606  -17.8430  -45.6673 C.3       10 UNK        -0.1800 
     24 N           0.0753  -19.4537  -43.8540 N.am      10 UNK        -0.5000 
     25 C          -0.0501  -20.6048  -43.1782 C.2       9 UNK         0.5000 
     26 O          -0.1982  -21.7032  -43.7130 O.2       9 UNK        -0.5000 
     27 CA         -0.0282  -20.5043  -41.6463 C.3       9 UNK         0.1400 
     28 CB          1.4085  -20.3175  -41.1338 C.3       9 UNK        -0.1800 
     29 N          -0.8580  -19.3906  -41.1936 N.am      9 UNK        -0.5000 
     30 C          -2.1647  -19.4895  -40.9147 C.2       8 UNK         0.5000 
     31 O          -2.7854  -20.5519  -40.9092 O.2       8 UNK        -0.5000 
     32 CA         -2.9151  -18.1819  -40.5948 C.3       8 UNK         0.1400 
     33 CB         -2.9517  -17.9412  -39.0780 C.3       8 UNK        -0.1800 
     34 N          -2.3458  -17.0034  -41.2502 N.am      8 UNK        -0.5000 
     35 C          -2.3266  -16.7965  -42.5739 C.2       7 UNK         0.5000 
     36 O          -2.7945  -17.5802  -43.4007 O.2       7 UNK        -0.5000 
     37 CA         -1.6182  -15.5166  -43.0549 C.3       7 UNK         0.1400 
     38 CB         -2.5982  -14.3344  -43.0718 C.3       7 UNK        -0.1800 
     39 N          -0.4276  -15.1481  -42.2807 N.am      7 UNK        -0.5000 
     40 C           0.6375  -15.9354  -42.0834 C.2       6 UNK         0.5000 
     41 O           0.6965  -17.1149  -42.4350 O.2       6 UNK        -0.5000 
     42 CA          1.8457  -15.3132  -41.3737 C.3       6 UNK         0.1400 
     43 CB          2.1995  -16.1036  -40.1036 C.3       6 UNK        -0.1800 
     44 N           2.9854  -15.3316  -42.2851 N.am      6 UNK        -0.5000 
     45 C           3.2273  -14.4007  -43.2179 C.2       5 UNK         0.5000 
     46 O           2.5586  -13.3754  -43.3493 O.2       5 UNK        -0.5000 
     47 CA          4.4148  -14.6551  -44.1641 C.3       5 UNK         0.1400 
     48 CB          5.7000  -14.0310  -43.5999 C.3       5 UNK        -0.1800 
     49 N           4.6385  -16.0829  -44.4045 N.am      5 UNK        -0.5000 
     50 C           3.9918  -16.7982  -45.3323 C.2       4 UNK         0.5000 
     51 O           3.2212  -16.3059  -46.1648 O.2       4 UNK        -0.5000 
     52 CA          4.2536  -18.3135  -45.3273 C.3       4 UNK         0.1400 
     53 CB          3.7655  -18.9677  -44.0201 C.3       4 UNK        -0.1800 
     54 N           3.5656  -18.9037  -46.4691 N.am      4 UNK        -0.5000 
     55 C           3.8941  -20.0382  -47.0969 C.2       3 UNK         0.5000 
     56 O           4.7984  -20.7842  -46.7198 O.2       3 UNK        -0.5000 
     57 CA          3.0922  -20.4066  -48.3666 C.3       3 UNK         0.1400 
     58 CB          2.2229  -21.6535  -48.1280 C.3       3 UNK        -0.1800 
     59 N           2.2502  -19.3208  -48.8879 N.am      3 UNK        -0.5000 
     60 C           2.7203  -18.2126  -49.4805 C.2       2 UNK         0.5000 
     61 O           3.9214  -17.9840  -49.6297 O.2       2 UNK        -0.5000 
     62 CA          1.7056  -17.1670  -49.9680 C.3       2 UNK         0.1400 
     63 CB          0.2290  -17.6004  -49.8888 C.3       2 UNK        -0.1800 
     64 N           1.9215  -15.9471  -49.2033 N.am      2 UNK        -0.5000 
     65 C           1.5680  -14.7139  -49.5868 C.2       1 UNK         0.5000 
     66 O           0.9800  -14.4612  -50.6394 O.2       1 UNK        -0.5000 
     67 C          -4.0723  -21.2577  -45.1059 C.2       11 UNK         0.5000 
     68 O          -5.2743  -21.4055  -44.8853 O.2       11 UNK        -0.5000 
     69 N          -3.1334  -22.1288  -44.7167 N.am      12 UNK        -0.5000 
     70 CA         -3.3763  -23.4629  -44.1806 C.3       12 UNK         0.1400 
     71 CB         -3.2219  -23.4605  -42.6519 C.3       12 UNK        -0.1800 
     72 C          -2.4116  -24.4532  -44.8499 C.2       12 UNK         0.5000 
     73 O          -2.8614  -25.4533  -45.4121 O.2       12 UNK        -0.5000 
     74 N          -1.1088  -24.1354  -44.8223 N.am      13 UNK        -0.5000 
     75 CA         -0.0303  -24.9144  -45.4328 C.3       13 UNK         0.1400 
     76 CB          1.3143  -24.2574  -45.0844 C.3       13 UNK        -0.1800 
     77 C          -0.1741  -25.0419  -46.9599 C.2       13 UNK         0.5000 
     78 O          -0.6687  -24.1177  -47.6082 O.2       13 UNK        -0.5000 
     79 N           0.2715  -26.1855  -47.5006 N.am      14 UNK        -0.5000 
     80 CA          0.2622  -26.5438  -48.9257 C.3       14 UNK         0.1400 
     81 CB          1.2865  -25.6859  -49.6988 C.3       14 UNK        -0.1800 
     82 C          -1.1509  -26.5011  -49.5480 C.2       14 UNK         0.5000 
     83 O          -1.3235  -25.9861  -50.6537 O.2       14 UNK        -0.5000 
     84 N          -2.1422  -27.0084  -48.7971 N.am      15 UNK        -0.5000 
     85 CA         -3.5798  -26.9735  -49.0989 C.3       15 UNK         0.1400 
     86 CB         -3.9091  -27.8691  -50.3120 C.3       15 UNK        -0.1800 
     87 C          -4.0916  -25.5270  -49.2593 C.2       15 UNK         0.5000 
     88 O          -4.7385  -25.1992  -50.2559 O.2       15 UNK        -0.5000 
     89 N          -3.7293  -24.6789  -48.2861 N.am      16 UNK        -0.5000 
     90 CA         -3.9313  -23.2281  -48.2589 C.3       16 UNK         0.1400 
     91 CB         -5.4224  -22.8881  -48.0594 C.3       16 UNK        -0.1800 
     92 C          -3.3062  -22.5251  -49.4792 C.2       16 UNK         0.5000 
     93 O          -3.9756  -21.7409  -50.1515 O.2       16 UNK        -0.5000 
     94 N          -2.0413  -22.8669  -49.7593 N.am      17 UNK        -0.5000 
     95 CA         -1.2430  -22.4428  -50.9118 C.3       17 UNK         0.1400 
     96 CB         -0.8474  -20.9639  -50.7607 C.3       17 UNK        -0.1800 
     97 C          -1.9355  -22.7492  -52.2571 C.2       17 UNK         0.5000 
     98 O          -2.0560  -21.8671  -53.1083 O.2       17 UNK        -0.5000 
     99 N          -2.3991  -23.9994  -52.3979 N.am      18 UNK        -0.5000 
    100 CA        -3.1934  -24.5349  -53.5068 C.3       18 UNK         0.1400 
    101 CB        -2.3454  -24.6236  -54.7928 C.3       18 UNK        -0.1800 
    102 C         -4.5227  -23.7726  -53.7000 C.2       18 UNK         0.5000 
    103 O         -4.8316  -23.3297  -54.8081 O.2       18 UNK        -0.5000 
    104 N         -5.2799  -23.6440  -52.6010 N.am      19 UNK        -0.5000 
    105 CA        -6.5801  -22.9765  -52.4859 C.3       19 UNK         0.1400 
    106 CB        -7.6612  -23.7537  -53.2662 C.3       19 UNK        -0.1800 
    107 C         -6.5354  -21.4733  -52.8392 C.2       19 UNK         0.5000 
    108 O         -7.4177  -20.9759  -53.5416 O.2       19 UNK        -0.5000 
    109 N         -5.5193  -20.7799  -52.3092 N.am      20 UNK        -0.5000 
    110 CA        -5.2564  -19.3437  -52.3964 C.3       20 UNK         0.1400 
    111 CB        -6.3025  -18.5503  -51.5838 C.3       20 UNK        -0.1800 
    112 C         -5.0884  -18.8290  -53.8389 C.2       20 UNK         0.5000 
    113 O         -3.9750  -18.8647  -54.3641 O.2       20 UNK        -0.5000 
    114 N         -6.1747  -18.3044  -54.4252 N.am      21 UNK        -0.5000 
    115 CA        -6.3031  -17.6381  -55.7292 C.3       21 UNK         0.1400 
    116 CB        -5.8805  -18.5614  -56.8881 C.3       21 UNK        -0.1800 
    117 C         -5.5948  -16.2700  -55.8086 C.2       21 UNK         0.5000 
    118 O         -6.1980  -15.3084  -56.2861 O.2       21 UNK        -0.5000 
    119 N         -4.3501  -16.2025  -55.3217 N.am      22 UNK        -0.5000 
    120 CA        -3.5049  -15.0006  -55.1975 C.3       22 UNK         0.1400 
    121 C         -3.0430  -14.3768  -56.5513 C.2       22 UNK         0.5000 
    122 N         -3.1267  -15.0867  -57.6699 N.am      22 UNK        -0.7600 
    123 O         -2.5693  -13.2442  -56.5902 O.2       22 UNK        -0.5000 
    124 C124       -4.0861  -13.9379  -54.2182 C.3       23 UNK        -0.0398 
    125 S125       -4.4708  -14.6108  -52.5637 S.3       23 UNK        -0.2404 
    126 C126       -2.8611  -14.4014  -51.7326 C.3       23 UNK        -0.0205 
    127 H127        5.7940  -13.4964  -46.7781 H         1 UNK         0.0600 
    128 H128        6.5370  -14.1897  -48.2191 H         1 UNK         0.0600 
    129 H129        5.4703  -15.1799  -47.2332 H         1 UNK         0.0600 
    130 H130        3.1021  -14.3646  -47.0469 H         1 UNK         0.3000 
    131 H131        2.1822  -12.7052  -49.3020 H         1 UNK         0.0600 
    132 H132        1.1778  -12.2662  -47.1045 H         1 UNK         0.0800 
    133 H133        0.0223  -12.6921  -48.3209 H         1 UNK         0.0800 
    134 H134       -2.1479  -14.4992  -45.9151 H         1 UNK         0.0800 
    135 H135       -1.8804  -13.1022  -46.9092 H         1 UNK         0.0800 
    136 H136       -1.9766  -13.3114  -49.3942 H         1 UNK         0.1150 
    137 H137       -3.6120  -16.9241  -51.0115 H         1 UNK         0.1150 
    138 H138       -2.4891  -16.7444  -46.8810 H         1 UNK         0.1150 
    139 H139       -3.6585  -18.9017  -49.7384 H         1 UNK         0.0800 
    140 H140       -2.7105  -18.9792  -48.3017 H         1 UNK         0.0800 
    141 H141       -5.4415  -18.9805  -45.4925 H         1 UNK         0.0800 
    142 H142       -4.1034  -17.9356  -45.7836 H         1 UNK         0.0800 
    143 H143       -3.4222  -20.5273  -46.9171 H         1 UNK         0.0600 
    144 H144       -2.2811  -19.0764  -44.5853 H         1 UNK         0.3000 
    145 H145        1.0208  -19.8911  -45.6392 H         1 UNK         0.0600 
    146 H146        1.1252  -17.3808  -45.0474 H         1 UNK         0.0600 
    147 H147        0.6693  -17.7275  -46.7049 H         1 UNK         0.0600 
    148 H148       -0.5531  -17.2661  -45.5353 H         1 UNK         0.0600 
    149 H149        0.2158  -18.5970  -43.3222 H         1 UNK         0.3000 
    150 H150       -0.4099  -21.4435  -41.2399 H         1 UNK         0.0600 
    151 H151        2.0485  -21.1377  -41.4614 H         1 UNK         0.0600 
    152 H152        1.4367  -20.2975  -40.0444 H         1 UNK         0.0600 
    153 H153        1.8541  -19.3906  -41.4954 H         1 UNK         0.0600 
    154 H154       -0.4359  -18.4714  -41.2309 H         1 UNK         0.3000 
    155 H155       -3.9417  -18.2987  -40.9484 H         1 UNK         0.0600 
    156 H156       -3.3951  -18.7916  -38.5582 H         1 UNK         0.0600 
    157 H157       -3.5500  -17.0638  -38.8315 H         1 UNK         0.0600 
    158 H158       -1.9511  -17.7924  -38.6699 H         1 UNK         0.0600 
    159 H159       -1.9259  -16.3078  -40.6514 H         1 UNK         0.3000 
    160 H160       -1.2876  -15.6965  -44.0771 H         1 UNK         0.0600 
    161 H161       -2.9293  -14.0712  -42.0665 H         1 UNK         0.0600 
    162 H162       -3.4868  -14.5709  -43.6589 H         1 UNK         0.0600 
    163 H163       -2.1419  -13.4503  -43.5177 H         1 UNK         0.0600 
    164 H164       -0.3849  -14.1907  -41.9625 H         1 UNK         0.3000 
    165 H165        1.6156  -14.2852  -41.0856 H         1 UNK         0.0600 
    166 H166        3.0458  -15.6534  -39.5844 H         1 UNK         0.0600 
    167 H167        1.3607  -16.1177  -39.4067 H         1 UNK         0.0600 
    168 H168        2.4579  -17.1396  -40.3269 H         1 UNK         0.0600 
    169 H169        3.5503  -16.1665  -42.2757 H         1 UNK         0.3000 
    170 H170        4.1853  -14.1575  -45.1071 H         1 UNK         0.0600 
    171 H171        5.5731  -12.9604  -43.4334 H         1 UNK         0.0600 
    172 H172        5.9834  -14.4805  -42.6475 H         1 UNK         0.0600 
    173 H173        6.5338  -14.1547  -44.2912 H         1 UNK         0.0600 
    174 H174        5.2855  -16.5493  -43.7852 H         1 UNK         0.3000 
    175 H175        5.3283  -18.4705  -45.4387 H         1 UNK         0.0600 
    176 H176        2.7287  -18.7132  -43.8061 H         1 UNK         0.0600 
    177 H177        3.8395  -20.0544  -44.0630 H         1 UNK         0.0600 
    178 H178        4.3616  -18.6403  -43.1682 H         1 UNK         0.0600 
    179 H179        2.8651  -18.2999  -46.8768 H         1 UNK         0.3000 
    180 H180        3.8242  -20.6580  -49.1370 H         1 UNK         0.0600 
    181 H181        1.4650  -21.4824  -47.3653 H         1 UNK         0.0600 
    182 H182        2.8296  -22.4971  -47.7963 H         1 UNK         0.0600 
    183 H183        1.7142  -21.9651  -49.0402 H         1 UNK         0.0600 
    184 H184        1.2519  -19.4411  -48.7932 H         1 UNK         0.3000 
    185 H185        1.9460  -16.9671  -51.0142 H         1 UNK         0.0600 
    186 H186        0.0505  -18.4686  -50.5174 H         1 UNK         0.0600 
    187 H187       -0.0902  -17.8360  -48.8743 H         1 UNK         0.0600 
    188 H188       -0.4242  -16.8129  -50.2612 H         1 UNK         0.0600 
    189 H189        2.4394  -16.0507  -48.3389 H         1 UNK         0.3000 
    190 H190       -2.1679  -21.9131  -44.9311 H         1 UNK         0.3000 
    191 H191       -4.3912  -23.7835  -44.4263 H         1 UNK         0.0600 
    192 H192       -3.9607  -22.8076  -42.1869 H         1 UNK         0.0600 
    193 H193       -3.3665  -24.4607  -42.2423 H         1 UNK         0.0600 
    194 H194       -2.2347  -23.1156  -42.3429 H         1 UNK         0.0600 
    195 H195       -0.8143  -23.2799  -44.3559 H         1 UNK         0.3000 
    196 H196       -0.0564  -25.9137  -44.9939 H         1 UNK         0.0600 
    197 H197        2.1497  -24.8261  -45.4944 H         1 UNK         0.0600 
    198 H198        1.4581  -24.1995  -44.0053 H         1 UNK         0.0600 
    199 H199        1.3792  -23.2443  -45.4839 H         1 UNK         0.0600 
    200 H200        0.6581  -26.8866  -46.8836 H         1 UNK         0.3000 
    201 H201        0.5884  -27.5828  -48.9895 H         1 UNK         0.0600 
    202 H202        2.2834  -25.7831  -49.2690 H         1 UNK         0.0600 
    203 H203        1.0223  -24.6286  -49.6873 H         1 UNK         0.0600 
    204 H204        1.3530  -25.9966  -50.7421 H         1 UNK         0.0600 
    205 H205       -1.8967  -27.3850  -47.8921 H         1 UNK         0.3000 
    206 H206       -4.0935  -27.3888  -48.2307 H         1 UNK         0.0600 
    207 H207       -3.5487  -28.8863  -50.1598 H         1 UNK         0.0600 
    208 H208       -4.9865  -27.9269  -50.4711 H         1 UNK         0.0600 
    209 H209       -3.4647  -27.4904  -51.2329 H         1 UNK         0.0600 
    210 H210       -3.1850  -25.0516  -47.5166 H         1 UNK         0.3000 
    211 H211       -3.3776  -22.8682  -47.3945 H         1 UNK         0.0600 
    212 H212       -6.0310  -23.2195  -48.9010 H         1 UNK         0.0600 
    213 H213       -5.5684  -21.8123  -47.9564 H         1 UNK         0.0600 
    214 H214       -5.8143  -23.3554  -47.1561 H         1 UNK         0.0600 
    215 H215       -1.5652  -23.4796  -49.0997 H         1 UNK         0.3000 
    216 H216       -0.3283  -23.0356  -50.8907 H         1 UNK         0.0600 
    217 H217       -0.1446  -20.6689  -51.5405 H         1 UNK         0.0600 
    218 H218       -0.3668  -20.7862  -49.7993 H         1 UNK         0.0600 
    219 H219       -1.7130  -20.3041  -50.8280 H         1 UNK         0.0600 
    220 H220       -2.2012  -24.6604  -51.6492 H         1 UNK         0.3000 
    221 H221       -3.4632  -25.5528  -53.2214 H         1 UNK         0.0600 
    222 H222       -2.0598  -23.6378  -55.1611 H         1 UNK         0.0600 
    223 H223       -1.4332  -25.1956  -54.6234 H         1 UNK         0.0600 
    224 H224       -2.8980  -25.1224  -55.5896 H         1 UNK         0.0600 
    225 H225       -4.9415  -24.0705  -51.7403 H         1 UNK         0.3000 
    226 H226       -6.8451  -23.0261  -51.4288 H         1 UNK         0.0600 
    227 H227       -7.6861  -24.8015  -52.9666 H         1 UNK         0.0600 
    228 H228       -8.6523  -23.3399  -53.0773 H         1 UNK         0.0600 
    229 H229       -7.4912  -23.7158  -54.3425 H         1 UNK         0.0600 
    230 H230       -4.8642  -21.2868  -51.7164 H         1 UNK         0.3000 
    231 H231       -4.2892  -19.1957  -51.9164 H         1 UNK         0.0600 
    232 H232       -7.3174  -18.6952  -51.9543 H         1 UNK         0.0600 
    233 H233       -6.0888  -17.4808  -51.6070 H         1 UNK         0.0600 
    234 H234       -6.2935  -18.8578  -50.5391 H         1 UNK         0.0600 
    235 H235       -7.0321  -18.3475  -53.8920 H         1 UNK         0.3000 
    236 H236       -7.3699  -17.4420  -55.8477 H         1 UNK         0.0600 
    237 H237       -6.4192  -19.5084  -56.8521 H         1 UNK         0.0600 
    238 H238       -6.0993  -18.0985  -57.8511 H         1 UNK         0.0600 
    239 H239       -4.8132  -18.7827  -56.8703 H         1 UNK         0.0600 
    240 H240       -3.9508  -17.0670  -54.9669 H         1 UNK         0.3000 
    241 H241       -2.5785  -15.3621  -54.7509 H         1 UNK         0.0600 
    242 H242       -2.8169  -14.6827  -58.5399 H         1 UNK         0.3800 
    243 H243       -3.5023  -16.0213  -57.6552 H         1 UNK         0.3800 
    244 H244       -3.3923  -13.1047  -54.0949 H         1 UNK         0.0800 
    245 H245       -4.9990  -13.5054  -54.6295 H         1 UNK         0.0800 
    246 H246       -2.0757  -14.8495  -52.3426 H         1 UNK         0.0800 
    247 H247       -2.6358  -13.3358  -51.6678 H         1 UNK         0.0800 
@<TRIPOS>BOND
     1    1    2 1    
     2    1  127 1    
     3    1  128 1    
     4    1  129 1    
     5    2    3 2    
     6    2    4 am   BACKBONE|DICT|INTERRES
     7    4    5 1    
     8    4  130 1    
     9    5    6 1    
    10    5   65 1    
    11    5  131 1    
    12    6    7 1    
    13    6  132 1    
    14    6  133 1    
    15    7    8 1    
    16    8    9 1    
    17    8  134 1    
    18    8  135 1    
    19    9   10 ar   
    20    9   14 ar   
    21   10   11 ar   
    22   10  136 1    
    23   11   12 ar   
    24   11  126 1    
    25   12   13 ar   
    26   12  137 1    
    27   13   14 ar   
    28   13   15 1    
    29   14  138 1    
    30   15   16 1    
    31   15  139 1    
    32   15  140 1    
    33   16   17 1    
    34   17   18 1    
    35   17  141 1    
    36   17  142 1    
    37   18   19 1    
    38   18   67 1    
    39   18  143 1    
    40   19   20 am   BACKBONE|DICT|INTERRES
    41   19  144 1    
    42   20   21 2    
    43   20   22 1    
    44   22   23 1    
    45   22   24 1    
    46   22  145 1    
    47   23  146 1    
    48   23  147 1    
    49   23  148 1    
    50   24   25 am   BACKBONE|DICT|INTERRES
    51   24  149 1    
    52   25   26 2    
    53   25   27 1    
    54   27   28 1    
    55   27   29 1    
    56   27  150 1    
    57   28  151 1    
    58   28  152 1    
    59   28  153 1    
    60   29   30 am   BACKBONE|DICT|INTERRES
    61   29  154 1    
    62   30   31 2    
    63   30   32 1    
    64   32   33 1    
    65   32   34 1    
    66   32  155 1    
    67   33  156 1    
    68   33  157 1    
    69   33  158 1    
    70   34   35 am   BACKBONE|DICT|INTERRES
    71   34  159 1    
    72   35   36 2    
    73   35   37 1    
    74   37   38 1    
    75   37   39 1    
    76   37  160 1    
    77   38  161 1    
    78   38  162 1    
    79   38  163 1    
    80   39   40 am   BACKBONE|DICT|INTERRES
    81   39  164 1    
    82   40   41 2    
    83   40   42 1    
    84   42   43 1    
    85   42   44 1    
    86   42  165 1    
    87   43  166 1    
    88   43  167 1    
    89   43  168 1    
    90   44   45 am   BACKBONE|DICT|INTERRES
    91   44  169 1    
    92   45   46 2    
    93   45   47 1    
    94   47   48 1    
    95   47   49 1    
    96   47  170 1    
    97   48  171 1    
    98   48  172 1    
    99   48  173 1    
   100   49   50 am   BACKBONE|DICT|INTERRES
   101   49  174 1    
   102   50   51 2    
   103   50   52 1    
   104   52   53 1    
   105   52   54 1    
   106   52  175 1    
   107   53  176 1    
   108   53  177 1    
   109   53  178 1    
   110   54   55 am   BACKBONE|DICT|INTERRES
   111   54  179 1    
   112   55   56 2    
   113   55   57 1    
   114   57   58 1    
   115   57   59 1    
   116   57  180 1    
   117   58  181 1    
   118   58  182 1    
   119   58  183 1    
   120   59   60 am   BACKBONE|DICT|INTERRES
   121   59  184 1    
   122   60   61 2    
   123   60   62 1    
   124   62   63 1    
   125   62   64 1    
   126   62  185 1    
   127   63  186 1    
   128   63  187 1    
   129   63  188 1    
   130   64   65 am   BACKBONE|DICT|INTERRES
   131   64  189 1    
   132   65   66 2    
   133   67   68 2    
   134   67   69 am   BACKBONE|DICT|INTERRES
   135   69   70 1    
   136   69  190 1    
   137   70   71 1    
   138   70   72 1    
   139   70  191 1    
   140   71  192 1    
   141   71  193 1    
   142   71  194 1    
   143   72   73 2    
   144   72   74 am   BACKBONE|DICT|INTERRES
   145   74   75 1    
   146   74  195 1    
   147   75   76 1    
   148   75   77 1    
   149   75  196 1    
   150   76  197 1    
   151   76  198 1    
   152   76  199 1    
   153   77   78 2    
   154   77   79 am   BACKBONE|DICT|INTERRES
   155   79   80 1    
   156   79  200 1    
   157   80   81 1    
   158   80   82 1    
   159   80  201 1    
   160   81  202 1    
   161   81  203 1    
   162   81  204 1    
   163   82   83 2    
   164   82   84 am   BACKBONE|DICT|INTERRES
   165   84   85 1    
   166   84  205 1    
   167   85   86 1    
   168   85   87 1    
   169   85  206 1    
   170   86  207 1    
   171   86  208 1    
   172   86  209 1    
   173   87   88 2    
   174   87   89 am   BACKBONE|DICT|INTERRES
   175   89   90 1    
   176   89  210 1    
   177   90   91 1    
   178   90   92 1    
   179   90  211 1    
   180   91  212 1    
   181   91  213 1    
   182   91  214 1    
   183   92   93 2    
   184   92   94 am   BACKBONE|DICT|INTERRES
   185   94   95 1    
   186   94  215 1    
   187   95   96 1    
   188   95   97 1    
   189   95  216 1    
   190   96  217 1    
   191   96  218 1    
   192   96  219 1    
   193   97   98 2    
   194   97   99 am   BACKBONE|DICT|INTERRES
   195   99  100 1    
   196   99  220 1    
   197  100  101 1    
   198  100  102 1    
   199  100  221 1    
   200  101  222 1    
   201  101  223 1    
   202  101  224 1    
   203  102  103 2    
   204  102  104 am   BACKBONE|DICT|INTERRES
   205  104  105 1    
   206  104  225 1    
   207  105  106 1    
   208  105  107 1    
   209  105  226 1    
   210  106  227 1    
   211  106  228 1    
   212  106  229 1    
   213  107  108 2    
   214  107  109 am   BACKBONE|DICT|INTERRES
   215  109  110 1    
   216  109  230 1    
   217  110  111 1    
   218  110  112 1    
   219  110  231 1    
   220  111  232 1    
   221  111  233 1    
   222  111  234 1    
   223  112  113 2    
   224  112  114 am   BACKBONE|DICT|INTERRES
   225  114  115 1    
   226  114  235 1    
   227  115  116 1    
   228  115  117 1    
   229  115  236 1    
   230  116  237 1    
   231  116  238 1    
   232  116  239 1    
   233  117  118 2    
   234  117  119 am   BACKBONE|DICT|INTERRES
   235  119  120 1    
   236  119  240 1    
   237  120  121 1    
   238  120  124 1    
   239  120  241 1    
   240  121  122 am   BACKBONE|DICT|INTERRES
   241  121  123 2    
   242  122  242 1    
   243  122  243 1    
   244  124  125 1    
   245  124  244 1    
   246  124  245 1    
   247  125  126 1    
   248  126  246 1    
   249  126  247 1    
@<TRIPOS>SUBSTRUCTURE
     1 UNK         1 GROUP             0       ****    0 ROOT    
