@<TRIPOS>MOLECULE
3R540
247   249    1
SMALL
USER_CHARGES


@<TRIPOS>ATOM
      1 CA          0.5110  -12.4777  -46.4049 C.3       0 UNK        -0.1800 
      2 C           2.0157  -12.4300  -46.6182 C.2       0 UNK         0.5000 
      3 O           2.7804  -12.4496  -45.6522 O.2       0 UNK        -0.5000 
      4 N           2.4394  -12.3595  -47.8864 N.am      1 UNK        -0.5000 
      5 CA          3.8238  -12.3948  -48.3855 C.3       1 UNK         0.1400 
      6 C6          4.6312  -13.6546  -47.9616 C.3       23 UNK        -0.0398 
      7 S7          3.7284  -15.2140  -48.2398 S.3       23 UNK        -0.2404 
      8 C8          4.2103  -15.6066  -49.9448 C.3       23 UNK        -0.0205 
      9 C9          3.3355  -16.7236  -50.4828 C.ar      23 UNK        -0.0193 
     10 C10         2.1656  -16.4235  -51.1841 C.ar      23 UNK        -0.1150 
     11 C11         1.3246  -17.4450  -51.6345 C.ar      23 UNK        -0.0193 
     12 C12         1.6716  -18.7781  -51.3927 C.ar      23 UNK        -0.1150 
     13 C13         2.8451  -19.0887  -50.6963 C.ar      23 UNK        -0.0193 
     14 C14         3.6740  -18.0574  -50.2476 C.ar      23 UNK        -0.1150 
     15 C15         3.2213  -20.5331  -50.4088 C.3       23 UNK        -0.0205 
     16 S16         2.6167  -21.0593  -48.7747 S.3       23 UNK        -0.2404 
     17 C17         0.8441  -21.2848  -49.1266 C.3       23 UNK        -0.0398 
     18 CA          0.1981  -22.3179  -48.1788 C.3       11 UNK         0.1400 
     19 N           0.0861  -21.8303  -46.8013 N.am      11 UNK        -0.5000 
     20 C          -0.2309  -22.6020  -45.7526 C.2       10 UNK         0.5000 
     21 O          -0.4218  -23.8158  -45.8288 O.2       10 UNK        -0.5000 
     22 CA         -0.4156  -21.8926  -44.3996 C.3       10 UNK         0.1400 
     23 CB          0.9445  -21.6030  -43.7475 C.3       10 UNK        -0.1800 
     24 N          -1.1872  -20.6536  -44.5115 N.am      10 UNK        -0.5000 
     25 C          -2.4585  -20.5889  -44.9334 C.2       9 UNK         0.5000 
     26 O          -3.1304  -21.5770  -45.2226 O.2       9 UNK        -0.5000 
     27 CA         -3.0792  -19.1915  -45.1038 C.3       9 UNK         0.1400 
     28 CB         -3.6709  -18.6981  -43.7768 C.3       9 UNK        -0.1800 
     29 N          -2.1407  -18.1992  -45.6279 N.am      9 UNK        -0.5000 
     30 C          -1.5362  -18.2741  -46.8233 C.2       8 UNK         0.5000 
     31 O          -1.6948  -19.2052  -47.6138 O.2       8 UNK        -0.5000 
     32 CA         -0.5607  -17.1350  -47.1671 C.3       8 UNK         0.1400 
     33 CB         -1.3186  -15.8722  -47.6053 C.3       8 UNK        -0.1800 
     34 N           0.3049  -16.8102  -46.0347 N.am      8 UNK        -0.5000 
     35 C           1.2823  -17.6046  -45.5779 C.2       7 UNK         0.5000 
     36 O           1.5943  -18.6777  -46.0941 O.2       7 UNK        -0.5000 
     37 CA          1.9913  -17.1408  -44.2923 C.3       7 UNK         0.1400 
     38 CB          3.0552  -16.0773  -44.6049 C.3       7 UNK        -0.1800 
     39 N           1.0518  -16.6169  -43.2978 N.am      7 UNK        -0.5000 
     40 C           0.1440  -17.3671  -42.6534 C.2       6 UNK         0.5000 
     41 O           0.0196  -18.5786  -42.8256 O.2       6 UNK        -0.5000 
     42 CA         -0.8104  -16.6526  -41.6748 C.3       6 UNK         0.1400 
     43 CB         -0.2022  -16.6214  -40.2649 C.3       6 UNK        -0.1800 
     44 N          -1.1564  -15.2891  -42.0719 N.am      6 UNK        -0.5000 
     45 C          -1.7085  -14.9258  -43.2377 C.2       5 UNK         0.5000 
     46 O          -2.0735  -15.7246  -44.1005 O.2       5 UNK        -0.5000 
     47 CA         -1.8193  -13.4119  -43.5106 C.3       5 UNK         0.1400 
     48 CB         -3.2360  -12.9173  -43.1844 C.3       5 UNK        -0.1800 
     49 N          -0.8435  -12.5751  -42.7951 N.am      5 UNK        -0.5000 
     50 C           0.4891  -12.7260  -42.8036 C.2       4 UNK         0.5000 
     51 O           1.0733  -13.6519  -43.3720 O.2       4 UNK        -0.5000 
     52 CA          1.2951  -11.7121  -41.9839 C.3       4 UNK         0.1400 
     53 CB          1.2513  -12.1094  -40.4929 C.3       4 UNK        -0.1800 
     54 N           2.6683  -11.7026  -42.4817 N.am      4 UNK        -0.5000 
     55 C           3.6546  -10.8967  -42.0734 C.2       3 UNK         0.5000 
     56 O           3.5038   -9.9792  -41.2652 O.2       3 UNK        -0.5000 
     57 CA          5.0517  -11.1735  -42.6556 C.3       3 UNK         0.1400 
     58 CB          5.4911  -12.6274  -42.4053 C.3       3 UNK        -0.1800 
     59 N           5.1329  -10.8879  -44.0856 N.am      3 UNK        -0.5000 
     60 C           5.1334   -9.6636  -44.6347 C.2       2 UNK         0.5000 
     61 O           5.0291   -8.6200  -43.9899 O.2       2 UNK        -0.5000 
     62 CA          5.2988   -9.5939  -46.1625 C.3       2 UNK         0.1400 
     63 CB          6.7999   -9.5129  -46.5118 C.3       2 UNK        -0.1800 
     64 N           4.6562  -10.7542  -46.7786 N.am      2 UNK        -0.5000 
     65 C           4.6079  -11.1042  -48.0669 C.2       1 UNK         0.5000 
     66 O           5.1239  -10.4623  -48.9826 O.2       1 UNK        -0.5000 
     67 C          -1.1630  -22.7854  -48.7259 C.2       11 UNK         0.5000 
     68 O          -1.2297  -23.8575  -49.3275 O.2       11 UNK        -0.5000 
     69 N          -2.2238  -22.0051  -48.4739 N.am      12 UNK        -0.5000 
     70 CA         -3.5987  -22.3426  -48.8450 C.3       12 UNK         0.1400 
     71 CB         -4.5289  -21.1688  -48.5060 C.3       12 UNK        -0.1800 
     72 C          -4.0861  -23.6394  -48.1725 C.2       12 UNK         0.5000 
     73 O          -4.6730  -24.4854  -48.8453 O.2       12 UNK        -0.5000 
     74 N          -3.7980  -23.7909  -46.8719 N.am      13 UNK        -0.5000 
     75 CA         -4.1002  -24.9817  -46.0788 C.3       13 UNK         0.1400 
     76 CB         -3.8249  -24.7015  -44.5940 C.3       13 UNK        -0.1800 
     77 C          -3.3282  -26.2252  -46.5514 C.2       13 UNK         0.5000 
     78 O          -3.9292  -27.2922  -46.6760 O.2       13 UNK        -0.5000 
     79 N          -2.0299  -26.0660  -46.8497 N.am      14 UNK        -0.5000 
     80 CA         -1.1676  -27.1203  -47.3947 C.3       14 UNK         0.1400 
     81 CB          0.2848  -26.6232  -47.4451 C.3       14 UNK        -0.1800 
     82 C          -1.6227  -27.6128  -48.7824 C.2       14 UNK         0.5000 
     83 O          -1.5357  -28.8077  -49.0664 O.2       14 UNK        -0.5000 
     84 N          -2.1410  -26.6882  -49.5991 N.am      15 UNK        -0.5000 
     85 CA         -2.7507  -26.9499  -50.9025 C.3       15 UNK         0.1400 
     86 CB         -2.6068  -25.6832  -51.7570 C.3       15 UNK        -0.1800 
     87 C          -4.2289  -27.3914  -50.8156 C.2       15 UNK         0.5000 
     88 O          -4.8569  -27.5795  -51.8585 O.2       15 UNK        -0.5000 
     89 N          -4.7753  -27.5234  -49.5956 N.am      16 UNK        -0.5000 
     90 CA         -6.1508  -27.9213  -49.2665 C.3       16 UNK         0.1400 
     91 CB         -6.3700  -29.4099  -49.6064 C.3       16 UNK        -0.1800 
     92 C          -7.2286  -27.0035  -49.8863 C.2       16 UNK         0.5000 
     93 O          -8.3236  -27.4674  -50.2081 O.2       16 UNK        -0.5000 
     94 N          -6.8796  -25.7214  -50.0681 N.am      17 UNK        -0.5000 
     95 CA         -7.6416  -24.6509  -50.7188 C.3       17 UNK         0.1400 
     96 CB         -8.9163  -24.3208  -49.9162 C.3       17 UNK        -0.1800 
     97 C          -7.9346  -24.8824  -52.2194 C.2       17 UNK         0.5000 
     98 O          -8.7067  -24.1204  -52.8035 O.2       17 UNK        -0.5000 
     99 N          -7.3063  -25.8948  -52.8366 N.am      18 UNK        -0.5000 
    100 CA        -7.4170  -26.1896  -54.2685 C.3       18 UNK         0.1400 
    101 CB        -7.0707  -27.6679  -54.5038 C.3       18 UNK        -0.1800 
    102 C         -6.5146  -25.2786  -55.1235 C.2       18 UNK         0.5000 
    103 O         -6.7408  -25.1479  -56.3271 O.2       18 UNK        -0.5000 
    104 N         -5.5179  -24.6631  -54.4825 N.am      19 UNK        -0.5000 
    105 CA        -4.5759  -23.6987  -55.0282 C.3       19 UNK         0.1400 
    106 CB        -3.4443  -24.4375  -55.7682 C.3       19 UNK        -0.1800 
    107 C         -4.0414  -22.8580  -53.8575 C.2       19 UNK         0.5000 
    108 O         -4.3915  -23.1236  -52.7040 O.2       19 UNK        -0.5000 
    109 N         -3.2053  -21.8598  -54.1752 N.am      20 UNK        -0.5000 
    110 CA        -2.4503  -21.0090  -53.2423 C.3       20 UNK         0.1400 
    111 CB        -1.3964  -21.8456  -52.4889 C.3       20 UNK        -0.1800 
    112 C         -3.3114  -20.1628  -52.2784 C.2       20 UNK         0.5000 
    113 O         -2.7945  -19.6626  -51.2795 O.2       20 UNK        -0.5000 
    114 N         -4.5979  -19.9783  -52.6018 N.am      21 UNK        -0.5000 
    115 CA        -5.5824  -19.2262  -51.8219 C.3       21 UNK         0.1400 
    116 CB        -6.9861  -19.7597  -52.1605 C.3       21 UNK        -0.1800 
    117 C         -5.4459  -17.7026  -52.0314 C.2       21 UNK         0.5000 
    118 O         -6.4172  -17.0310  -52.3835 O.2       21 UNK        -0.5000 
    119 N         -4.2273  -17.1902  -51.8337 N.am      22 UNK        -0.5000 
    120 CA        -3.8535  -15.7770  -51.9884 C.3       22 UNK         0.1400 
    121 C         -4.2146  -14.8642  -50.7782 C.2       22 UNK         0.5000 
    122 N         -4.7011  -15.3950  -49.6626 N.am      22 UNK        -0.7600 
    123 O         -4.0702  -13.6475  -50.8616 O.2       22 UNK        -0.5000 
    124 C124       -2.3707  -15.6313  -52.4184 C.3       23 UNK        -0.0398 
    125 S125       -1.1796  -16.3628  -51.2414 S.3       23 UNK        -0.2404 
    126 C126        0.0429  -17.0927  -52.3731 C.3       23 UNK        -0.0205 
    127 H127        0.2067  -11.7130  -45.6908 H         1 UNK         0.0600 
    128 H128       -0.0382  -12.3155  -47.3325 H         1 UNK         0.0600 
    129 H129        0.2310  -13.4541  -46.0111 H         1 UNK         0.0600 
    130 H130        1.7420  -12.3146  -48.6155 H         1 UNK         0.3000 
    131 H131        3.7277  -12.4309  -49.4718 H         1 UNK         0.0600 
    132 H132        5.5840  -13.6953  -48.4924 H         1 UNK         0.0800 
    133 H133        4.8815  -13.6147  -46.9004 H         1 UNK         0.0800 
    134 H134        4.1130  -14.7193  -50.5721 H         1 UNK         0.0800 
    135 H135        5.2613  -15.8981  -49.9729 H         1 UNK         0.0800 
    136 H136        1.8928  -15.3918  -51.3573 H         1 UNK         0.1150 
    137 H137        1.0240  -19.5717  -51.7355 H         1 UNK         0.1150 
    138 H138        4.5717  -18.2925  -49.6930 H         1 UNK         0.1150 
    139 H139        2.8389  -21.1952  -51.1871 H         1 UNK         0.0800 
    140 H140        4.3070  -20.6397  -50.4306 H         1 UNK         0.0800 
    141 H141        0.7520  -21.6197  -50.1604 H         1 UNK         0.0800 
    142 H142        0.3383  -20.3195  -49.0659 H         1 UNK         0.0800 
    143 H143        0.8419  -23.2003  -48.1593 H         1 UNK         0.0600 
    144 H144        0.2213  -20.8381  -46.6588 H         1 UNK         0.3000 
    145 H145       -0.9680  -22.5697  -43.7449 H         1 UNK         0.0600 
    146 H146        0.8209  -21.2141  -42.7368 H         1 UNK         0.0600 
    147 H147        1.5451  -22.5106  -43.6741 H         1 UNK         0.0600 
    148 H148        1.5184  -20.8728  -44.3192 H         1 UNK         0.0600 
    149 H149       -0.7193  -19.7997  -44.2245 H         1 UNK         0.3000 
    150 H150       -3.8942  -19.2772  -45.8249 H         1 UNK         0.0600 
    151 H151       -4.4421  -19.3807  -43.4178 H         1 UNK         0.0600 
    152 H152       -4.1298  -17.7153  -43.8862 H         1 UNK         0.0600 
    153 H153       -2.9087  -18.6313  -43.0019 H         1 UNK         0.0600 
    154 H154       -1.9812  -17.3768  -45.0518 H         1 UNK         0.3000 
    155 H155        0.0630  -17.4662  -48.0010 H         1 UNK         0.0600 
    156 H156       -0.6325  -15.1160  -47.9872 H         1 UNK         0.0600 
    157 H157       -1.8854  -15.4300  -46.7859 H         1 UNK         0.0600 
    158 H158       -2.0271  -16.0999  -48.4021 H         1 UNK         0.0600 
    159 H159        0.0816  -15.9759  -45.5127 H         1 UNK         0.3000 
    160 H160        2.4952  -18.0067  -43.8574 H         1 UNK         0.0600 
    161 H161        2.6163  -15.1899  -45.0622 H         1 UNK         0.0600 
    162 H162        3.8017  -16.4659  -45.2984 H         1 UNK         0.0600 
    163 H163        3.5794  -15.7627  -43.7025 H         1 UNK         0.0600 
    164 H164        1.0665  -15.6123  -43.1454 H         1 UNK         0.3000 
    165 H165       -1.7366  -17.2262  -41.6311 H         1 UNK         0.0600 
    166 H166        0.7115  -16.0262  -40.2343 H         1 UNK         0.0600 
    167 H167       -0.9016  -16.2017  -39.5417 H         1 UNK         0.0600 
    168 H168        0.0493  -17.6273  -39.9257 H         1 UNK         0.0600 
    169 H169       -0.8819  -14.5549  -41.4371 H         1 UNK         0.3000 
    170 H170       -1.6525  -13.2687  -44.5787 H         1 UNK         0.0600 
    171 H171       -3.9873  -13.5013  -43.7180 H         1 UNK         0.0600 
    172 H172       -3.4540  -12.9973  -42.1186 H         1 UNK         0.0600 
    173 H173       -3.3688  -11.8760  -43.4784 H         1 UNK         0.0600 
    174 H174       -1.2325  -11.8009  -42.2762 H         1 UNK         0.3000 
    175 H175        0.8624  -10.7195  -42.1222 H         1 UNK         0.0600 
    176 H176        1.7493  -11.3740  -39.8617 H         1 UNK         0.0600 
    177 H177        0.2243  -12.1858  -40.1338 H         1 UNK         0.0600 
    178 H178        1.7306  -13.0744  -40.3226 H         1 UNK         0.0600 
    179 H179        2.8449  -12.3969  -43.2009 H         1 UNK         0.3000 
    180 H180        5.7584  -10.5210  -42.1381 H         1 UNK         0.0600 
    181 H181        4.8854  -13.3410  -42.9656 H         1 UNK         0.0600 
    182 H182        5.4085  -12.8842  -41.3484 H         1 UNK         0.0600 
    183 H183        6.5317  -12.7769  -42.6937 H         1 UNK         0.0600 
    184 H184        5.2277  -11.6884  -44.6921 H         1 UNK         0.3000 
    185 H185        4.7952   -8.6932  -46.5181 H         1 UNK         0.0600 
    186 H186        6.9600   -9.2914  -47.5662 H         1 UNK         0.0600 
    187 H187        7.2903   -8.7185  -45.9475 H         1 UNK         0.0600 
    188 H188        7.3164  -10.4453  -46.2813 H         1 UNK         0.0600 
    189 H189        4.0842  -11.3174  -46.1499 H         1 UNK         0.3000 
    190 H190       -2.0792  -21.1115  -48.0123 H         1 UNK         0.3000 
    191 H191       -3.6205  -22.4937  -49.9264 H         1 UNK         0.0600 
    192 H192       -4.1550  -20.2359  -48.9272 H         1 UNK         0.0600 
    193 H193       -5.5278  -21.3375  -48.9097 H         1 UNK         0.0600 
    194 H194       -4.6286  -21.0280  -47.4300 H         1 UNK         0.0600 
    195 H195       -3.3591  -23.0186  -46.3754 H         1 UNK         0.3000 
    196 H196       -5.1659  -25.1920  -46.1910 H         1 UNK         0.0600 
    197 H197       -4.0498  -25.5758  -43.9819 H         1 UNK         0.0600 
    198 H198       -4.4421  -23.8810  -44.2279 H         1 UNK         0.0600 
    199 H199       -2.7813  -24.4370  -44.4205 H         1 UNK         0.0600 
    200 H200       -1.5922  -25.1651  -46.6789 H         1 UNK         0.3000 
    201 H201       -1.2118  -27.9712  -46.7120 H         1 UNK         0.0600 
    202 H202        0.6437  -26.3538  -46.4517 H         1 UNK         0.0600 
    203 H203        0.3883  -25.7479  -48.0869 H         1 UNK         0.0600 
    204 H204        0.9499  -27.3959  -47.8325 H         1 UNK         0.0600 
    205 H205       -2.1182  -25.7167  -49.3048 H         1 UNK         0.3000 
    206 H206       -2.2050  -27.7555  -51.3973 H         1 UNK         0.0600 
    207 H207       -1.5590  -25.4203  -51.9029 H         1 UNK         0.0600 
    208 H208       -3.0507  -25.8132  -52.7441 H         1 UNK         0.0600 
    209 H209       -3.0971  -24.8350  -51.2795 H         1 UNK         0.0600 
    210 H210       -4.1921  -27.3156  -48.7941 H         1 UNK         0.3000 
    211 H211       -6.2486  -27.8109  -48.1858 H         1 UNK         0.0600 
    212 H212       -6.3441  -29.5865  -50.6822 H         1 UNK         0.0600 
    213 H213       -7.3362  -29.7587  -49.2401 H         1 UNK         0.0600 
    214 H214       -5.6056  -30.0353  -49.1451 H         1 UNK         0.0600 
    215 H215       -5.9627  -25.4343  -49.7268 H         1 UNK         0.3000 
    216 H216       -6.9956  -23.7723  -50.6804 H         1 UNK         0.0600 
    217 H217       -8.6839  -24.1344  -48.8677 H         1 UNK         0.0600 
    218 H218       -9.6447  -25.1308  -49.9608 H         1 UNK         0.0600 
    219 H219       -9.4023  -23.4243  -50.3027 H         1 UNK         0.0600 
    220 H220       -6.6678  -26.4758  -52.3048 H         1 UNK         0.3000 
    221 H221       -8.4495  -26.0290  -54.5856 H         1 UNK         0.0600 
    222 H222       -6.0310  -27.8830  -54.2554 H         1 UNK         0.0600 
    223 H223       -7.7020  -28.3225  -53.9026 H         1 UNK         0.0600 
    224 H224       -7.2199  -27.9409  -55.5492 H         1 UNK         0.0600 
    225 H225       -5.4408  -24.7757  -53.4789 H         1 UNK         0.3000 
    226 H226       -5.0990  -23.0325  -55.7171 H         1 UNK         0.0600 
    227 H227       -3.8368  -25.0551  -56.5762 H         1 UNK         0.0600 
    228 H228       -2.7383  -23.7376  -56.2157 H         1 UNK         0.0600 
    229 H229       -2.8823  -25.0870  -55.0964 H         1 UNK         0.0600 
    230 H230       -3.0069  -21.7008  -55.1534 H         1 UNK         0.3000 
    231 H231       -1.9123  -20.2891  -53.8605 H         1 UNK         0.0600 
    232 H232       -0.7429  -21.2055  -51.8981 H         1 UNK         0.0600 
    233 H233       -0.7646  -22.4037  -53.1796 H         1 UNK         0.0600 
    234 H234       -1.8589  -22.5591  -51.8066 H         1 UNK         0.0600 
    235 H235       -4.9322  -20.3996  -53.4552 H         1 UNK         0.3000 
    236 H236       -5.4092  -19.4150  -50.7618 H         1 UNK         0.0600 
    237 H237       -7.7497  -19.2637  -51.5600 H         1 UNK         0.0600 
    238 H238       -7.2357  -19.5998  -53.2101 H         1 UNK         0.0600 
    239 H239       -7.0601  -20.8286  -51.9574 H         1 UNK         0.0600 
    240 H240       -3.4882  -17.8187  -51.5319 H         1 UNK         0.3000 
    241 H241       -4.4463  -15.3805  -52.8150 H         1 UNK         0.0600 
    242 H242       -4.8272  -16.3903  -49.5838 H         1 UNK         0.3800 
    243 H243       -4.9422  -14.7929  -48.8916 H         1 UNK         0.3800 
    244 H244       -2.2399  -16.1047  -53.3923 H         1 UNK         0.0800 
    245 H245       -2.1120  -14.5816  -52.5670 H         1 UNK         0.0800 
    246 H246       -0.3892  -17.9743  -52.8492 H         1 UNK         0.0800 
    247 H247        0.2749  -16.3849  -53.1703 H         1 UNK         0.0800 
@<TRIPOS>BOND
     1    1    2 1    
     2    1  127 1    
     3    1  128 1    
     4    1  129 1    
     5    2    3 2    
     6    2    4 am   BACKBONE|DICT|INTERRES
     7    4    5 1    
     8    4  130 1    
     9    5    6 1    
    10    5   65 1    
    11    5  131 1    
    12    6    7 1    
    13    6  132 1    
    14    6  133 1    
    15    7    8 1    
    16    8    9 1    
    17    8  134 1    
    18    8  135 1    
    19    9   10 ar   
    20    9   14 ar   
    21   10   11 ar   
    22   10  136 1    
    23   11   12 ar   
    24   11  126 1    
    25   12   13 ar   
    26   12  137 1    
    27   13   14 ar   
    28   13   15 1    
    29   14  138 1    
    30   15   16 1    
    31   15  139 1    
    32   15  140 1    
    33   16   17 1    
    34   17   18 1    
    35   17  141 1    
    36   17  142 1    
    37   18   19 1    
    38   18   67 1    
    39   18  143 1    
    40   19   20 am   BACKBONE|DICT|INTERRES
    41   19  144 1    
    42   20   21 2    
    43   20   22 1    
    44   22   23 1    
    45   22   24 1    
    46   22  145 1    
    47   23  146 1    
    48   23  147 1    
    49   23  148 1    
    50   24   25 am   BACKBONE|DICT|INTERRES
    51   24  149 1    
    52   25   26 2    
    53   25   27 1    
    54   27   28 1    
    55   27   29 1    
    56   27  150 1    
    57   28  151 1    
    58   28  152 1    
    59   28  153 1    
    60   29   30 am   BACKBONE|DICT|INTERRES
    61   29  154 1    
    62   30   31 2    
    63   30   32 1    
    64   32   33 1    
    65   32   34 1    
    66   32  155 1    
    67   33  156 1    
    68   33  157 1    
    69   33  158 1    
    70   34   35 am   BACKBONE|DICT|INTERRES
    71   34  159 1    
    72   35   36 2    
    73   35   37 1    
    74   37   38 1    
    75   37   39 1    
    76   37  160 1    
    77   38  161 1    
    78   38  162 1    
    79   38  163 1    
    80   39   40 am   BACKBONE|DICT|INTERRES
    81   39  164 1    
    82   40   41 2    
    83   40   42 1    
    84   42   43 1    
    85   42   44 1    
    86   42  165 1    
    87   43  166 1    
    88   43  167 1    
    89   43  168 1    
    90   44   45 am   BACKBONE|DICT|INTERRES
    91   44  169 1    
    92   45   46 2    
    93   45   47 1    
    94   47   48 1    
    95   47   49 1    
    96   47  170 1    
    97   48  171 1    
    98   48  172 1    
    99   48  173 1    
   100   49   50 am   BACKBONE|DICT|INTERRES
   101   49  174 1    
   102   50   51 2    
   103   50   52 1    
   104   52   53 1    
   105   52   54 1    
   106   52  175 1    
   107   53  176 1    
   108   53  177 1    
   109   53  178 1    
   110   54   55 am   BACKBONE|DICT|INTERRES
   111   54  179 1    
   112   55   56 2    
   113   55   57 1    
   114   57   58 1    
   115   57   59 1    
   116   57  180 1    
   117   58  181 1    
   118   58  182 1    
   119   58  183 1    
   120   59   60 am   BACKBONE|DICT|INTERRES
   121   59  184 1    
   122   60   61 2    
   123   60   62 1    
   124   62   63 1    
   125   62   64 1    
   126   62  185 1    
   127   63  186 1    
   128   63  187 1    
   129   63  188 1    
   130   64   65 am   BACKBONE|DICT|INTERRES
   131   64  189 1    
   132   65   66 2    
   133   67   68 2    
   134   67   69 am   BACKBONE|DICT|INTERRES
   135   69   70 1    
   136   69  190 1    
   137   70   71 1    
   138   70   72 1    
   139   70  191 1    
   140   71  192 1    
   141   71  193 1    
   142   71  194 1    
   143   72   73 2    
   144   72   74 am   BACKBONE|DICT|INTERRES
   145   74   75 1    
   146   74  195 1    
   147   75   76 1    
   148   75   77 1    
   149   75  196 1    
   150   76  197 1    
   151   76  198 1    
   152   76  199 1    
   153   77   78 2    
   154   77   79 am   BACKBONE|DICT|INTERRES
   155   79   80 1    
   156   79  200 1    
   157   80   81 1    
   158   80   82 1    
   159   80  201 1    
   160   81  202 1    
   161   81  203 1    
   162   81  204 1    
   163   82   83 2    
   164   82   84 am   BACKBONE|DICT|INTERRES
   165   84   85 1    
   166   84  205 1    
   167   85   86 1    
   168   85   87 1    
   169   85  206 1    
   170   86  207 1    
   171   86  208 1    
   172   86  209 1    
   173   87   88 2    
   174   87   89 am   BACKBONE|DICT|INTERRES
   175   89   90 1    
   176   89  210 1    
   177   90   91 1    
   178   90   92 1    
   179   90  211 1    
   180   91  212 1    
   181   91  213 1    
   182   91  214 1    
   183   92   93 2    
   184   92   94 am   BACKBONE|DICT|INTERRES
   185   94   95 1    
   186   94  215 1    
   187   95   96 1    
   188   95   97 1    
   189   95  216 1    
   190   96  217 1    
   191   96  218 1    
   192   96  219 1    
   193   97   98 2    
   194   97   99 am   BACKBONE|DICT|INTERRES
   195   99  100 1    
   196   99  220 1    
   197  100  101 1    
   198  100  102 1    
   199  100  221 1    
   200  101  222 1    
   201  101  223 1    
   202  101  224 1    
   203  102  103 2    
   204  102  104 am   BACKBONE|DICT|INTERRES
   205  104  105 1    
   206  104  225 1    
   207  105  106 1    
   208  105  107 1    
   209  105  226 1    
   210  106  227 1    
   211  106  228 1    
   212  106  229 1    
   213  107  108 2    
   214  107  109 am   BACKBONE|DICT|INTERRES
   215  109  110 1    
   216  109  230 1    
   217  110  111 1    
   218  110  112 1    
   219  110  231 1    
   220  111  232 1    
   221  111  233 1    
   222  111  234 1    
   223  112  113 2    
   224  112  114 am   BACKBONE|DICT|INTERRES
   225  114  115 1    
   226  114  235 1    
   227  115  116 1    
   228  115  117 1    
   229  115  236 1    
   230  116  237 1    
   231  116  238 1    
   232  116  239 1    
   233  117  118 2    
   234  117  119 am   BACKBONE|DICT|INTERRES
   235  119  120 1    
   236  119  240 1    
   237  120  121 1    
   238  120  124 1    
   239  120  241 1    
   240  121  122 am   BACKBONE|DICT|INTERRES
   241  121  123 2    
   242  122  242 1    
   243  122  243 1    
   244  124  125 1    
   245  124  244 1    
   246  124  245 1    
   247  125  126 1    
   248  126  246 1    
   249  126  247 1    
@<TRIPOS>SUBSTRUCTURE
     1 UNK         1 GROUP             0       ****    0 ROOT    
