@<TRIPOS>MOLECULE
3R540
247   249    1
SMALL
USER_CHARGES


@<TRIPOS>ATOM
      1 CA          3.0476  -12.8838  -47.1961 C.3       0 UNK        -0.1800 
      2 C           1.9647  -13.7535  -47.8190 C.2       0 UNK         0.5000 
      3 O           2.1185  -14.2069  -48.9525 O.2       0 UNK        -0.5000 
      4 N           0.8827  -13.9975  -47.0750 N.am      1 UNK        -0.5000 
      5 CA         -0.2464  -14.8535  -47.4309 C.3       1 UNK         0.1400 
      6 C6         -1.0794  -14.3101  -48.6287 C.3       23 UNK        -0.0398 
      7 S7         -1.9645  -15.6408  -49.5080 S.3       23 UNK        -0.2404 
      8 C8         -0.7044  -16.1898  -50.7076 C.3       23 UNK        -0.0205 
      9 C9         -0.5539  -17.7053  -50.7245 C.ar      23 UNK        -0.0193 
     10 C10        -1.6444  -18.5115  -51.0614 C.ar      23 UNK        -0.1150 
     11 C11        -1.5141  -19.9004  -51.0937 C.ar      23 UNK        -0.0193 
     12 C12        -0.2781  -20.4840  -50.8146 C.ar      23 UNK        -0.1150 
     13 C13         0.8270  -19.6956  -50.4813 C.ar      23 UNK        -0.0193 
     14 C14         0.6775  -18.3042  -50.4308 C.ar      23 UNK        -0.1150 
     15 C15         2.1963  -20.3260  -50.2311 C.3       23 UNK        -0.0205 
     16 S16         2.1498  -21.9251  -49.3440 S.3       23 UNK        -0.2404 
     17 C17         1.7837  -21.3810  -47.6453 C.3       23 UNK        -0.0398 
     18 CA          0.6255  -22.1419  -46.9516 C.3       11 UNK         0.1400 
     19 N           0.6540  -21.9045  -45.5037 N.am      11 UNK        -0.5000 
     20 C          -0.1876  -22.4172  -44.5941 C.2       10 UNK         0.5000 
     21 O          -1.0673  -23.2358  -44.8533 O.2       10 UNK        -0.5000 
     22 CA         -0.0700  -21.8618  -43.1627 C.3       10 UNK         0.1400 
     23 CB          1.0728  -22.5390  -42.3914 C.3       10 UNK        -0.1800 
     24 N           0.1158  -20.4094  -43.1598 N.am      10 UNK        -0.5000 
     25 C          -0.8153  -19.5330  -43.5648 C.2       9 UNK         0.5000 
     26 O          -1.9551  -19.8516  -43.8997 O.2       9 UNK        -0.5000 
     27 CA         -0.3854  -18.0629  -43.6746 C.3       9 UNK         0.1400 
     28 CB         -0.5586  -17.3256  -42.3379 C.3       9 UNK        -0.1800 
     29 N           0.9938  -17.9416  -44.1454 N.am      9 UNK        -0.5000 
     30 C           1.3578  -18.1287  -45.4228 C.2       8 UNK         0.5000 
     31 O           0.5568  -18.3750  -46.3239 O.2       8 UNK        -0.5000 
     32 CA          2.8641  -18.0770  -45.7508 C.3       8 UNK         0.1400 
     33 CB          3.2668  -16.6682  -46.2002 C.3       8 UNK        -0.1800 
     34 N           3.7177  -18.4902  -44.6372 N.am      8 UNK        -0.5000 
     35 C           3.7410  -19.7240  -44.1147 C.2       7 UNK         0.5000 
     36 O           3.0844  -20.6614  -44.5666 O.2       7 UNK        -0.5000 
     37 CA          4.5863  -19.9330  -42.8410 C.3       7 UNK         0.1400 
     38 CB          5.9731  -20.4827  -43.2047 C.3       7 UNK        -0.1800 
     39 N           4.7450  -18.7298  -42.0124 N.am      7 UNK        -0.5000 
     40 C           3.7388  -18.0104  -41.4973 C.2       6 UNK         0.5000 
     41 O           2.5486  -18.2741  -41.6928 O.2       6 UNK        -0.5000 
     42 CA          4.1204  -16.7707  -40.6735 C.3       6 UNK         0.1400 
     43 CB          4.8952  -15.7445  -41.5225 C.3       6 UNK        -0.1800 
     44 N           2.8947  -16.1544  -40.1823 N.am      6 UNK        -0.5000 
     45 C           2.7572  -15.4169  -39.0772 C.2       5 UNK         0.5000 
     46 O           3.6779  -15.1732  -38.2947 O.2       5 UNK        -0.5000 
     47 CA          1.3414  -14.8475  -38.8406 C.3       5 UNK         0.1400 
     48 CB          1.2687  -13.8567  -37.6596 C.3       5 UNK        -0.1800 
     49 N           0.7753  -14.2564  -40.0619 N.am      5 UNK        -0.5000 
     50 C           1.2663  -13.2207  -40.7638 C.2       4 UNK         0.5000 
     51 O           2.2618  -12.5754  -40.4333 O.2       4 UNK        -0.5000 
     52 CA          0.5397  -12.8447  -42.0721 C.3       4 UNK         0.1400 
     53 CB          1.3872  -13.2657  -43.2831 C.3       4 UNK        -0.1800 
     54 N          -0.8066  -13.4186  -42.1957 N.am      4 UNK        -0.5000 
     55 C          -1.8751  -12.9911  -41.5040 C.2       3 UNK         0.5000 
     56 O          -1.8238  -12.0498  -40.7107 O.2       3 UNK        -0.5000 
     57 CA         -3.2082  -13.7558  -41.6782 C.3       3 UNK         0.1400 
     58 CB         -4.4360  -12.8210  -41.6350 C.3       3 UNK        -0.1800 
     59 N          -3.2631  -14.6494  -42.8426 N.am      3 UNK        -0.5000 
     60 C          -3.2615  -14.3024  -44.1371 C.2       2 UNK         0.5000 
     61 O          -3.2210  -13.1410  -44.5489 O.2       2 UNK        -0.5000 
     62 CA         -3.3133  -15.4700  -45.1435 C.3       2 UNK         0.1400 
     63 CB         -4.7337  -15.6284  -45.7063 C.3       2 UNK        -0.1800 
     64 N          -2.3740  -15.3064  -46.2550 N.am      2 UNK        -0.5000 
     65 C          -1.0570  -15.0893  -46.1381 C.2       1 UNK         0.5000 
     66 O          -0.4750  -15.0588  -45.0506 O.2       1 UNK        -0.5000 
     67 C          -0.7489  -21.7863  -47.5605 C.2       11 UNK         0.5000 
     68 O          -1.3283  -22.5994  -48.2863 O.2       11 UNK        -0.5000 
     69 N          -1.2591  -20.5975  -47.2052 N.am      12 UNK        -0.5000 
     70 CA         -2.5708  -20.0994  -47.6062 C.3       12 UNK         0.1400 
     71 CB         -2.7068  -18.6224  -47.2172 C.3       12 UNK        -0.1800 
     72 C          -3.7302  -20.9399  -47.0489 C.2       12 UNK         0.5000 
     73 O          -4.6171  -21.3188  -47.8137 O.2       12 UNK        -0.5000 
     74 N          -3.6862  -21.2486  -45.7449 N.am      13 UNK        -0.5000 
     75 CA         -4.6842  -22.0611  -45.0434 C.3       13 UNK         0.1400 
     76 CB         -4.3877  -22.0476  -43.5365 C.3       13 UNK        -0.1800 
     77 C          -4.7719  -23.5079  -45.5644 C.2       13 UNK         0.5000 
     78 O          -5.8715  -24.0536  -45.6621 O.2       13 UNK        -0.5000 
     79 N          -3.6185  -24.0909  -45.9150 N.am      14 UNK        -0.5000 
     80 CA         -3.5020  -25.4184  -46.5193 C.3       14 UNK         0.1400 
     81 CB         -2.0557  -25.9098  -46.3493 C.3       14 UNK        -0.1800 
     82 C          -3.9030  -25.4570  -48.0077 C.2       14 UNK         0.5000 
     83 O          -4.0699  -26.5513  -48.5476 O.2       14 UNK        -0.5000 
     84 N          -4.0183  -24.2811  -48.6470 N.am      15 UNK        -0.5000 
     85 CA         -4.2511  -24.0640  -50.0802 C.3       15 UNK         0.1400 
     86 CB         -5.6491  -24.5693  -50.4943 C.3       15 UNK        -0.1800 
     87 C          -3.1136  -24.6449  -50.9543 C.2       15 UNK         0.5000 
     88 O          -3.3635  -25.1283  -52.0596 O.2       15 UNK        -0.5000 
     89 N          -1.8852  -24.6223  -50.4171 N.am      16 UNK        -0.5000 
     90 CA         -0.7740  -25.4710  -50.8492 C.3       16 UNK         0.1400 
     91 CB          0.3185  -25.4418  -49.7705 C.3       16 UNK        -0.1800 
     92 C          -0.1819  -25.1398  -52.2301 C.2       16 UNK         0.5000 
     93 O           0.3078  -26.0494  -52.9013 O.2       16 UNK        -0.5000 
     94 N          -0.2163  -23.8622  -52.6306 N.am      17 UNK        -0.5000 
     95 CA          0.3630  -23.4014  -53.8968 C.3       17 UNK         0.1400 
     96 CB          0.7134  -21.9094  -53.7914 C.3       17 UNK        -0.1800 
     97 C          -0.5429  -23.6624  -55.1149 C.2       17 UNK         0.5000 
     98 O          -0.0406  -23.6688  -56.2393 O.2       17 UNK        -0.5000 
     99 N          -1.8508  -23.8533  -54.8755 N.am      18 UNK        -0.5000 
    100 CA        -2.9163  -24.0547  -55.8684 C.3       18 UNK         0.1400 
    101 CB        -2.7546  -25.4207  -56.5666 C.3       18 UNK        -0.1800 
    102 C         -3.0698  -22.8833  -56.8691 C.2       18 UNK         0.5000 
    103 O         -3.5132  -23.0867  -58.0012 O.2       18 UNK        -0.5000 
    104 N         -2.6997  -21.6753  -56.4280 N.am      19 UNK        -0.5000 
    105 CA        -2.8265  -20.4188  -57.1613 C.3       19 UNK         0.1400 
    106 CB        -1.8040  -19.4271  -56.5781 C.3       19 UNK        -0.1800 
    107 C         -4.2548  -19.8523  -57.0546 C.2       19 UNK         0.5000 
    108 O         -5.0758  -20.3726  -56.2962 O.2       19 UNK        -0.5000 
    109 N         -4.5173  -18.7487  -57.7686 N.am      20 UNK        -0.5000 
    110 CA        -5.7828  -18.0038  -57.7165 C.3       20 UNK         0.1400 
    111 CB        -5.7448  -16.8702  -58.7524 C.3       20 UNK        -0.1800 
    112 C         -6.1138  -17.4461  -56.3151 C.2       20 UNK         0.5000 
    113 O         -7.2883  -17.3476  -55.9583 O.2       20 UNK        -0.5000 
    114 N         -5.0698  -17.1425  -55.5302 N.am      21 UNK        -0.5000 
    115 CA        -5.1534  -16.7475  -54.1222 C.3       21 UNK         0.1400 
    116 CB        -3.7809  -16.2115  -53.6810 C.3       21 UNK        -0.1800 
    117 C         -5.5988  -17.8891  -53.1838 C.2       21 UNK         0.5000 
    118 O         -6.0352  -17.6109  -52.0665 O.2       21 UNK        -0.5000 
    119 N         -5.4688  -19.1415  -53.6386 N.am      22 UNK        -0.5000 
    120 CA        -5.7723  -20.3604  -52.8749 C.3       22 UNK         0.1400 
    121 C         -7.2390  -20.8545  -53.0346 C.2       22 UNK         0.5000 
    122 N         -8.0822  -20.2025  -53.8271 N.am      22 UNK        -0.7600 
    123 O         -7.6248  -21.8426  -52.4167 O.2       22 UNK        -0.5000 
    124 C124       -4.7583  -21.5001  -53.1757 C.3       23 UNK        -0.0398 
    125 S125       -3.0113  -20.9648  -53.1525 S.3       23 UNK        -0.2404 
    126 C126       -2.7224  -20.7713  -51.3746 C.3       23 UNK        -0.0205 
    127 H127        3.9820  -13.4410  -47.1292 H         1 UNK         0.0600 
    128 H128        2.7767  -12.5542  -46.1926 H         1 UNK         0.0600 
    129 H129        3.2188  -11.9998  -47.8101 H         1 UNK         0.0600 
    130 H130        0.8330  -13.6586  -46.1227 H         1 UNK         0.3000 
    131 H131        0.1750  -15.8233  -47.7047 H         1 UNK         0.0600 
    132 H132       -0.4452  -13.8006  -49.3541 H         1 UNK         0.0800 
    133 H133       -1.7930  -13.5509  -48.3036 H         1 UNK         0.0800 
    134 H134       -0.9903  -15.8476  -51.7031 H         1 UNK         0.0800 
    135 H135        0.2561  -15.7218  -50.4870 H         1 UNK         0.0800 
    136 H136       -2.6004  -18.0575  -51.2825 H         1 UNK         0.1150 
    137 H137       -0.1803  -21.5583  -50.8469 H         1 UNK         0.1150 
    138 H138        1.5268  -17.6838  -50.1810 H         1 UNK         0.1150 
    139 H139        2.6755  -20.4846  -51.1975 H         1 UNK         0.0800 
    140 H140        2.8405  -19.6376  -49.6818 H         1 UNK         0.0800 
    141 H141        1.5902  -20.3097  -47.6461 H         1 UNK         0.0800 
    142 H142        2.7050  -21.5169  -47.0777 H         1 UNK         0.0800 
    143 H143        0.7813  -23.2129  -47.0963 H         1 UNK         0.0600 
    144 H144        1.3906  -21.2899  -45.1686 H         1 UNK         0.3000 
    145 H145       -1.0037  -22.0826  -42.6414 H         1 UNK         0.0600 
    146 H146        1.1322  -22.1675  -41.3683 H         1 UNK         0.0600 
    147 H147        0.9166  -23.6171  -42.3372 H         1 UNK         0.0600 
    148 H148        2.0405  -22.3743  -42.8643 H         1 UNK         0.0600 
    149 H149        1.0307  -20.0613  -42.9101 H         1 UNK         0.3000 
    150 H150       -1.0396  -17.5878  -44.4058 H         1 UNK         0.0600 
    151 H151       -0.0035  -17.8054  -41.5322 H         1 UNK         0.0600 
    152 H152       -1.6074  -17.3068  -42.0408 H         1 UNK         0.0600 
    153 H153       -0.2200  -16.2930  -42.4142 H         1 UNK         0.0600 
    154 H154        1.7049  -17.8150  -43.4343 H         1 UNK         0.3000 
    155 H155        3.0499  -18.7603  -46.5811 H         1 UNK         0.0600 
    156 H156        3.0375  -15.9176  -45.4423 H         1 UNK         0.0600 
    157 H157        2.7300  -16.4003  -47.1096 H         1 UNK         0.0600 
    158 H158        4.3315  -16.6093  -46.4264 H         1 UNK         0.0600 
    159 H159        4.2872  -17.7766  -44.2078 H         1 UNK         0.3000 
    160 H160        4.0713  -20.6808  -42.2346 H         1 UNK         0.0600 
    161 H161        6.5522  -19.7623  -43.7838 H         1 UNK         0.0600 
    162 H162        5.8892  -21.3923  -43.8013 H         1 UNK         0.0600 
    163 H163        6.5452  -20.7344  -42.3115 H         1 UNK         0.0600 
    164 H164        5.6947  -18.4478  -41.8159 H         1 UNK         0.3000 
    165 H165        4.7331  -17.0985  -39.8314 H         1 UNK         0.0600 
    166 H166        5.1331  -14.8532  -40.9415 H         1 UNK         0.0600 
    167 H167        5.8402  -16.1532  -41.8813 H         1 UNK         0.0600 
    168 H168        4.3188  -15.4273  -42.3928 H         1 UNK         0.0600 
    169 H169        2.0767  -16.3796  -40.7327 H         1 UNK         0.3000 
    170 H170        0.7091  -15.7002  -38.5891 H         1 UNK         0.0600 
    171 H171        1.5704  -14.3381  -36.7287 H         1 UNK         0.0600 
    172 H172        1.9218  -12.9962  -37.8072 H         1 UNK         0.0600 
    173 H173        0.2534  -13.4862  -37.5188 H         1 UNK         0.0600 
    174 H174       -0.0486  -14.7100  -40.4270 H         1 UNK         0.3000 
    175 H175        0.4506  -11.7564  -42.0888 H         1 UNK         0.0600 
    176 H176        1.4927  -14.3496  -43.3451 H         1 UNK         0.0600 
    177 H177        0.9410  -12.9114  -44.2115 H         1 UNK         0.0600 
    178 H178        2.3912  -12.8427  -43.2284 H         1 UNK         0.0600 
    179 H179       -0.9228  -14.1585  -42.8759 H         1 UNK         0.3000 
    180 H180       -3.2774  -14.4105  -40.8084 H         1 UNK         0.0600 
    181 H181       -4.4018  -12.0674  -42.4220 H         1 UNK         0.0600 
    182 H182       -4.4929  -12.2922  -40.6829 H         1 UNK         0.0600 
    183 H183       -5.3638  -13.3820  -41.7467 H         1 UNK         0.0600 
    184 H184       -3.3081  -15.6330  -42.6169 H         1 UNK         0.3000 
    185 H185       -3.0485  -16.3926  -44.6250 H         1 UNK         0.0600 
    186 H186       -5.4591  -15.7680  -44.9036 H         1 UNK         0.0600 
    187 H187       -5.0396  -14.7497  -46.2755 H         1 UNK         0.0600 
    188 H188       -4.8084  -16.4951  -46.3621 H         1 UNK         0.0600 
    189 H189       -2.7734  -15.3181  -47.1831 H         1 UNK         0.3000 
    190 H190       -0.6920  -19.9667  -46.6495 H         1 UNK         0.3000 
    191 H191       -2.6250  -20.1591  -48.6896 H         1 UNK         0.0600 
    192 H192       -1.8956  -18.0320  -47.6429 H         1 UNK         0.0600 
    193 H193       -3.6420  -18.2081  -47.5942 H         1 UNK         0.0600 
    194 H194       -2.6909  -18.4818  -46.1369 H         1 UNK         0.0600 
    195 H195       -2.9358  -20.8659  -45.1750 H         1 UNK         0.3000 
    196 H196       -5.6588  -21.5949  -45.2018 H         1 UNK         0.0600 
    197 H197       -5.1273  -22.6304  -42.9862 H         1 UNK         0.0600 
    198 H198       -4.4121  -21.0329  -43.1389 H         1 UNK         0.0600 
    199 H199       -3.4064  -22.4695  -43.3173 H         1 UNK         0.0600 
    200 H200       -2.7463  -23.5993  -45.7366 H         1 UNK         0.3000 
    201 H201       -4.1613  -26.1049  -45.9843 H         1 UNK         0.0600 
    202 H202       -1.9202  -26.9017  -46.7823 H         1 UNK         0.0600 
    203 H203       -1.7839  -25.9758  -45.2957 H         1 UNK         0.0600 
    204 H204       -1.3471  -25.2376  -46.8349 H         1 UNK         0.0600 
    205 H205       -3.8638  -23.4397  -48.1053 H         1 UNK         0.3000 
    206 H206       -4.2501  -22.9850  -50.2188 H         1 UNK         0.0600 
    207 H207       -6.4253  -24.1390  -49.8614 H         1 UNK         0.0600 
    208 H208       -5.8812  -24.2900  -51.5223 H         1 UNK         0.0600 
    209 H209       -5.7263  -25.6547  -50.4300 H         1 UNK         0.0600 
    210 H210       -1.7559  -24.1241  -49.5413 H         1 UNK         0.3000 
    211 H211       -1.1521  -26.4940  -50.9074 H         1 UNK         0.0600 
    212 H212        0.6752  -24.4283  -49.5926 H         1 UNK         0.0600 
    213 H213        1.1776  -26.0482  -50.0605 H         1 UNK         0.0600 
    214 H214       -0.0513  -25.8371  -48.8248 H         1 UNK         0.0600 
    215 H215       -0.6456  -23.1733  -52.0327 H         1 UNK         0.3000 
    216 H216        1.2964  -23.9415  -54.0705 H         1 UNK         0.0600 
    217 H217        1.1861  -21.5539  -54.7078 H         1 UNK         0.0600 
    218 H218        1.4140  -21.7275  -52.9770 H         1 UNK         0.0600 
    219 H219       -0.1680  -21.2928  -53.6229 H         1 UNK         0.0600 
    220 H220       -2.1516  -23.8582  -53.9101 H         1 UNK         0.3000 
    221 H221       -3.8485  -24.0858  -55.3027 H         1 UNK         0.0600 
    222 H222       -1.8719  -25.4467  -57.2060 H         1 UNK         0.0600 
    223 H223       -2.6651  -26.2263  -55.8377 H         1 UNK         0.0600 
    224 H224       -3.6187  -25.6463  -57.1925 H         1 UNK         0.0600 
    225 H225       -2.4052  -21.5969  -55.4649 H         1 UNK         0.3000 
    226 H226       -2.5977  -20.5906  -58.2149 H         1 UNK         0.0600 
    227 H227       -0.7950  -19.8392  -56.6103 H         1 UNK         0.0600 
    228 H228       -1.7862  -18.4941  -57.1422 H         1 UNK         0.0600 
    229 H229       -2.0281  -19.1793  -55.5395 H         1 UNK         0.0600 
    230 H230       -3.7997  -18.3718  -58.3712 H         1 UNK         0.3000 
    231 H231       -6.5848  -18.6921  -57.9913 H         1 UNK         0.0600 
    232 H232       -4.9413  -16.1621  -58.5455 H         1 UNK         0.0600 
    233 H233       -6.6819  -16.3118  -58.7548 H         1 UNK         0.0600 
    234 H234       -5.5987  -17.2605  -59.7598 H         1 UNK         0.0600 
    235 H235       -4.1421  -17.2518  -55.9116 H         1 UNK         0.3000 
    236 H236       -5.8854  -15.9420  -54.0341 H         1 UNK         0.0600 
    237 H237       -3.4751  -15.3589  -54.2874 H         1 UNK         0.0600 
    238 H238       -3.8049  -15.8778  -52.6425 H         1 UNK         0.0600 
    239 H239       -3.0067  -16.9764  -53.7594 H         1 UNK         0.0600 
    240 H240       -5.1512  -19.3011  -54.5875 H         1 UNK         0.3000 
    241 H241       -5.6773  -20.1235  -51.8145 H         1 UNK         0.0600 
    242 H242       -9.0312  -20.5289  -53.9192 H         1 UNK         0.3800 
    243 H243       -7.7772  -19.3896  -54.3413 H         1 UNK         0.3800 
    244 H244       -4.8824  -22.3188  -52.4682 H         1 UNK         0.0800 
    245 H245       -4.9554  -21.9271  -54.1598 H         1 UNK         0.0800 
    246 H246       -3.5980  -20.3365  -50.8927 H         1 UNK         0.0800 
    247 H247       -2.5695  -21.7492  -50.9244 H         1 UNK         0.0800 
@<TRIPOS>BOND
     1    1    2 1    
     2    1  127 1    
     3    1  128 1    
     4    1  129 1    
     5    2    3 2    
     6    2    4 am   BACKBONE|DICT|INTERRES
     7    4    5 1    
     8    4  130 1    
     9    5    6 1    
    10    5   65 1    
    11    5  131 1    
    12    6    7 1    
    13    6  132 1    
    14    6  133 1    
    15    7    8 1    
    16    8    9 1    
    17    8  134 1    
    18    8  135 1    
    19    9   10 ar   
    20    9   14 ar   
    21   10   11 ar   
    22   10  136 1    
    23   11   12 ar   
    24   11  126 1    
    25   12   13 ar   
    26   12  137 1    
    27   13   14 ar   
    28   13   15 1    
    29   14  138 1    
    30   15   16 1    
    31   15  139 1    
    32   15  140 1    
    33   16   17 1    
    34   17   18 1    
    35   17  141 1    
    36   17  142 1    
    37   18   19 1    
    38   18   67 1    
    39   18  143 1    
    40   19   20 am   BACKBONE|DICT|INTERRES
    41   19  144 1    
    42   20   21 2    
    43   20   22 1    
    44   22   23 1    
    45   22   24 1    
    46   22  145 1    
    47   23  146 1    
    48   23  147 1    
    49   23  148 1    
    50   24   25 am   BACKBONE|DICT|INTERRES
    51   24  149 1    
    52   25   26 2    
    53   25   27 1    
    54   27   28 1    
    55   27   29 1    
    56   27  150 1    
    57   28  151 1    
    58   28  152 1    
    59   28  153 1    
    60   29   30 am   BACKBONE|DICT|INTERRES
    61   29  154 1    
    62   30   31 2    
    63   30   32 1    
    64   32   33 1    
    65   32   34 1    
    66   32  155 1    
    67   33  156 1    
    68   33  157 1    
    69   33  158 1    
    70   34   35 am   BACKBONE|DICT|INTERRES
    71   34  159 1    
    72   35   36 2    
    73   35   37 1    
    74   37   38 1    
    75   37   39 1    
    76   37  160 1    
    77   38  161 1    
    78   38  162 1    
    79   38  163 1    
    80   39   40 am   BACKBONE|DICT|INTERRES
    81   39  164 1    
    82   40   41 2    
    83   40   42 1    
    84   42   43 1    
    85   42   44 1    
    86   42  165 1    
    87   43  166 1    
    88   43  167 1    
    89   43  168 1    
    90   44   45 am   BACKBONE|DICT|INTERRES
    91   44  169 1    
    92   45   46 2    
    93   45   47 1    
    94   47   48 1    
    95   47   49 1    
    96   47  170 1    
    97   48  171 1    
    98   48  172 1    
    99   48  173 1    
   100   49   50 am   BACKBONE|DICT|INTERRES
   101   49  174 1    
   102   50   51 2    
   103   50   52 1    
   104   52   53 1    
   105   52   54 1    
   106   52  175 1    
   107   53  176 1    
   108   53  177 1    
   109   53  178 1    
   110   54   55 am   BACKBONE|DICT|INTERRES
   111   54  179 1    
   112   55   56 2    
   113   55   57 1    
   114   57   58 1    
   115   57   59 1    
   116   57  180 1    
   117   58  181 1    
   118   58  182 1    
   119   58  183 1    
   120   59   60 am   BACKBONE|DICT|INTERRES
   121   59  184 1    
   122   60   61 2    
   123   60   62 1    
   124   62   63 1    
   125   62   64 1    
   126   62  185 1    
   127   63  186 1    
   128   63  187 1    
   129   63  188 1    
   130   64   65 am   BACKBONE|DICT|INTERRES
   131   64  189 1    
   132   65   66 2    
   133   67   68 2    
   134   67   69 am   BACKBONE|DICT|INTERRES
   135   69   70 1    
   136   69  190 1    
   137   70   71 1    
   138   70   72 1    
   139   70  191 1    
   140   71  192 1    
   141   71  193 1    
   142   71  194 1    
   143   72   73 2    
   144   72   74 am   BACKBONE|DICT|INTERRES
   145   74   75 1    
   146   74  195 1    
   147   75   76 1    
   148   75   77 1    
   149   75  196 1    
   150   76  197 1    
   151   76  198 1    
   152   76  199 1    
   153   77   78 2    
   154   77   79 am   BACKBONE|DICT|INTERRES
   155   79   80 1    
   156   79  200 1    
   157   80   81 1    
   158   80   82 1    
   159   80  201 1    
   160   81  202 1    
   161   81  203 1    
   162   81  204 1    
   163   82   83 2    
   164   82   84 am   BACKBONE|DICT|INTERRES
   165   84   85 1    
   166   84  205 1    
   167   85   86 1    
   168   85   87 1    
   169   85  206 1    
   170   86  207 1    
   171   86  208 1    
   172   86  209 1    
   173   87   88 2    
   174   87   89 am   BACKBONE|DICT|INTERRES
   175   89   90 1    
   176   89  210 1    
   177   90   91 1    
   178   90   92 1    
   179   90  211 1    
   180   91  212 1    
   181   91  213 1    
   182   91  214 1    
   183   92   93 2    
   184   92   94 am   BACKBONE|DICT|INTERRES
   185   94   95 1    
   186   94  215 1    
   187   95   96 1    
   188   95   97 1    
   189   95  216 1    
   190   96  217 1    
   191   96  218 1    
   192   96  219 1    
   193   97   98 2    
   194   97   99 am   BACKBONE|DICT|INTERRES
   195   99  100 1    
   196   99  220 1    
   197  100  101 1    
   198  100  102 1    
   199  100  221 1    
   200  101  222 1    
   201  101  223 1    
   202  101  224 1    
   203  102  103 2    
   204  102  104 am   BACKBONE|DICT|INTERRES
   205  104  105 1    
   206  104  225 1    
   207  105  106 1    
   208  105  107 1    
   209  105  226 1    
   210  106  227 1    
   211  106  228 1    
   212  106  229 1    
   213  107  108 2    
   214  107  109 am   BACKBONE|DICT|INTERRES
   215  109  110 1    
   216  109  230 1    
   217  110  111 1    
   218  110  112 1    
   219  110  231 1    
   220  111  232 1    
   221  111  233 1    
   222  111  234 1    
   223  112  113 2    
   224  112  114 am   BACKBONE|DICT|INTERRES
   225  114  115 1    
   226  114  235 1    
   227  115  116 1    
   228  115  117 1    
   229  115  236 1    
   230  116  237 1    
   231  116  238 1    
   232  116  239 1    
   233  117  118 2    
   234  117  119 am   BACKBONE|DICT|INTERRES
   235  119  120 1    
   236  119  240 1    
   237  120  121 1    
   238  120  124 1    
   239  120  241 1    
   240  121  122 am   BACKBONE|DICT|INTERRES
   241  121  123 2    
   242  122  242 1    
   243  122  243 1    
   244  124  125 1    
   245  124  244 1    
   246  124  245 1    
   247  125  126 1    
   248  126  246 1    
   249  126  247 1    
@<TRIPOS>SUBSTRUCTURE
     1 UNK         1 GROUP             0       ****    0 ROOT    
