@<TRIPOS>MOLECULE
3R540
247   249    1
SMALL
USER_CHARGES


@<TRIPOS>ATOM
      1 CA         -4.5363  -16.0525  -45.3697 C.3       0 UNK        -0.1800 
      2 C          -4.3870  -15.2227  -46.6372 C.2       0 UNK         0.5000 
      3 O          -4.9075  -14.1103  -46.7118 O.2       0 UNK        -0.5000 
      4 N          -3.6707  -15.7603  -47.6317 N.am      1 UNK        -0.5000 
      5 CA         -3.3790  -15.1193  -48.9222 C.3       1 UNK         0.1400 
      6 C6         -3.2040  -16.1595  -50.0583 C.3       23 UNK        -0.0398 
      7 S7         -2.1225  -17.5703  -49.6388 S.3       23 UNK        -0.2404 
      8 C8         -0.5759  -17.0790  -50.4559 C.3       23 UNK        -0.0205 
      9 C9          0.3822  -18.2537  -50.5269 C.ar      23 UNK        -0.0193 
     10 C10         0.2537  -19.1905  -51.5544 C.ar      23 UNK        -0.1150 
     11 C11         1.0993  -20.3000  -51.6161 C.ar      23 UNK        -0.0193 
     12 C12         2.1005  -20.4546  -50.6524 C.ar      23 UNK        -0.1150 
     13 C13         2.2488  -19.5145  -49.6263 C.ar      23 UNK        -0.0193 
     14 C14         1.3835  -18.4176  -49.5664 C.ar      23 UNK        -0.1150 
     15 C15         3.3555  -19.6653  -48.5930 C.3       23 UNK        -0.0205 
     16 S16         2.7229  -20.1801  -46.9659 S.3       23 UNK        -0.2404 
     17 C17         2.3327  -21.9377  -47.2501 C.3       23 UNK        -0.0398 
     18 CA          1.0593  -22.4345  -46.5252 C.3       11 UNK         0.1400 
     19 N           1.1047  -22.2235  -45.0769 N.am      11 UNK        -0.5000 
     20 C           0.3619  -22.8788  -44.1740 C.2       10 UNK         0.5000 
     21 O          -0.4690  -23.7341  -44.4864 O.2       10 UNK        -0.5000 
     22 CA          0.5304  -22.4809  -42.6921 C.3       10 UNK         0.1400 
     23 CB          0.5019  -23.7013  -41.7502 C.3       10 UNK        -0.1800 
     24 N           1.6979  -21.6311  -42.4264 N.am      10 UNK        -0.5000 
     25 C           2.9991  -21.9413  -42.5352 C.2       9 UNK         0.5000 
     26 O           3.4159  -23.0494  -42.8724 O.2       9 UNK        -0.5000 
     27 CA          4.0098  -20.8127  -42.2488 C.3       9 UNK         0.1400 
     28 CB          4.7258  -20.3914  -43.5413 C.3       9 UNK        -0.1800 
     29 N           3.3812  -19.6329  -41.6479 N.am      9 UNK        -0.5000 
     30 C           3.1405  -19.4962  -40.3368 C.2       8 UNK         0.5000 
     31 O           3.4769  -20.3243  -39.4896 O.2       8 UNK        -0.5000 
     32 CA          2.3686  -18.2384  -39.9008 C.3       8 UNK         0.1400 
     33 CB          3.2937  -17.0124  -39.8749 C.3       8 UNK        -0.1800 
     34 N           1.2048  -17.9527  -40.7417 N.am      8 UNK        -0.5000 
     35 C           0.1160  -18.7285  -40.8464 C.2       7 UNK         0.5000 
     36 O          -0.0116  -19.8121  -40.2777 O.2       7 UNK        -0.5000 
     37 CA         -1.0135  -18.2175  -41.7561 C.3       7 UNK         0.1400 
     38 CB         -1.8762  -17.1754  -41.0280 C.3       7 UNK        -0.1800 
     39 N          -0.4817  -17.6330  -42.9835 N.am      7 UNK        -0.5000 
     40 C          -0.1343  -18.3422  -44.0645 C.2       6 UNK         0.5000 
     41 O          -0.2811  -19.5609  -44.1620 O.2       6 UNK        -0.5000 
     42 CA          0.5062  -17.5602  -45.2249 C.3       6 UNK         0.1400 
     43 CB         -0.5623  -17.0532  -46.2044 C.3       6 UNK        -0.1800 
     44 N           1.3346  -16.4390  -44.7790 N.am      6 UNK        -0.5000 
     45 C           2.4711  -16.5686  -44.0808 C.2       5 UNK         0.5000 
     46 O           2.9233  -17.6461  -43.6954 O.2       5 UNK        -0.5000 
     47 CA          3.2036  -15.2669  -43.7096 C.3       5 UNK         0.1400 
     48 CB          4.0706  -14.7914  -44.8852 C.3       5 UNK        -0.1800 
     49 N           2.3356  -14.1662  -43.2732 N.am      5 UNK        -0.5000 
     50 C           1.4132  -14.2335  -42.2994 C.2       4 UNK         0.5000 
     51 O           1.0737  -15.2774  -41.7430 O.2       4 UNK        -0.5000 
     52 CA          0.7506  -12.9156  -41.8836 C.3       4 UNK         0.1400 
     53 CB          1.6418  -12.1481  -40.8900 C.3       4 UNK        -0.1800 
     54 N           0.4413  -12.0914  -43.0511 N.am      4 UNK        -0.5000 
     55 C          -0.4894  -11.1303  -43.0762 C.2       3 UNK         0.5000 
     56 O          -1.1391  -10.7819  -42.0893 O.2       3 UNK        -0.5000 
     57 CA         -0.7536  -10.4393  -44.4301 C.3       3 UNK         0.1400 
     58 CB         -0.0014   -9.1009  -44.4996 C.3       3 UNK        -0.1800 
     59 N          -0.4183  -11.2320  -45.6199 N.am      3 UNK        -0.5000 
     60 C          -0.9731  -12.4044  -45.9533 C.2       2 UNK         0.5000 
     61 O          -1.7440  -13.0350  -45.2241 O.2       2 UNK        -0.5000 
     62 CA         -0.5938  -12.9704  -47.3302 C.3       2 UNK         0.1400 
     63 CB          0.8094  -13.5979  -47.3126 C.3       2 UNK        -0.1800 
     64 N          -1.5783  -13.9873  -47.6767 N.am      2 UNK        -0.5000 
     65 C          -2.1990  -14.1204  -48.8532 C.2       1 UNK         0.5000 
     66 O          -1.8907  -13.4774  -49.8580 O.2       1 UNK        -0.5000 
     67 C          -0.2524  -21.9490  -47.1803 C.2       11 UNK         0.5000 
     68 O          -0.5029  -22.3121  -48.3265 O.2       11 UNK        -0.5000 
     69 N          -1.1188  -21.2450  -46.4326 N.am      12 UNK        -0.5000 
     70 CA         -2.5180  -20.9884  -46.7897 C.3       12 UNK         0.1400 
     71 CB         -3.1914  -20.1610  -45.6843 C.3       12 UNK        -0.1800 
     72 C          -3.3340  -22.2757  -47.0455 C.2       12 UNK         0.5000 
     73 O          -4.2498  -22.2540  -47.8693 O.2       12 UNK        -0.5000 
     74 N          -2.9775  -23.3772  -46.3651 N.am      13 UNK        -0.5000 
     75 CA         -3.5544  -24.7033  -46.5902 C.3       13 UNK         0.1400 
     76 CB         -3.1943  -25.6297  -45.4195 C.3       13 UNK        -0.1800 
     77 C          -3.0955  -25.3071  -47.9302 C.2       13 UNK         0.5000 
     78 O          -3.9260  -25.8155  -48.6839 O.2       13 UNK        -0.5000 
     79 N          -1.7915  -25.1910  -48.2268 N.am      14 UNK        -0.5000 
     80 CA         -1.1765  -25.5975  -49.4971 C.3       14 UNK         0.1400 
     81 CB          0.3536  -25.5272  -49.3731 C.3       14 UNK        -0.1800 
     82 C          -1.6695  -24.7539  -50.6894 C.2       14 UNK         0.5000 
     83 O          -1.7824  -25.2673  -51.8019 O.2       14 UNK        -0.5000 
     84 N          -2.0200  -23.4930  -50.4097 N.am      15 UNK        -0.5000 
     85 CA         -2.6895  -22.5444  -51.2959 C.3       15 UNK         0.1400 
     86 CB         -2.5231  -21.1355  -50.7029 C.3       15 UNK        -0.1800 
     87 C          -4.1834  -22.8516  -51.5338 C.2       15 UNK         0.5000 
     88 O          -4.8636  -22.0079  -52.1150 O.2       15 UNK        -0.5000 
     89 N          -4.6770  -24.0126  -51.0761 N.am      16 UNK        -0.5000 
     90 CA         -6.0440  -24.5199  -51.2206 C.3       16 UNK         0.1400 
     91 CB         -6.3741  -24.7967  -52.7024 C.3       16 UNK        -0.1800 
     92 C          -7.0732  -23.6124  -50.5222 C.2       16 UNK         0.5000 
     93 O          -8.0440  -23.1769  -51.1429 O.2       16 UNK        -0.5000 
     94 N          -6.8098  -23.3352  -49.2371 N.am      17 UNK        -0.5000 
     95 CA         -7.5600  -22.4374  -48.3537 C.3       17 UNK         0.1400 
     96 CB         -8.9992  -22.9444  -48.1207 C.3       17 UNK        -0.1800 
     97 C          -7.4888  -20.9779  -48.8429 C.2       17 UNK         0.5000 
     98 O          -8.5168  -20.3158  -48.9964 O.2       17 UNK        -0.5000 
     99 N          -6.2505  -20.5208  -49.0778 N.am      18 UNK        -0.5000 
    100 CA        -5.8668  -19.1687  -49.4951 C.3       18 UNK         0.1400 
    101 CB        -6.1893  -18.1503  -48.3804 C.3       18 UNK        -0.1800 
    102 C         -6.4117  -18.7428  -50.8779 C.2       18 UNK         0.5000 
    103 O         -6.6111  -17.5498  -51.1136 O.2       18 UNK        -0.5000 
    104 N         -6.6133  -19.7088  -51.7847 N.am      19 UNK        -0.5000 
    105 CA        -6.9369  -19.4584  -53.1922 C.3       19 UNK         0.1400 
    106 CB        -7.5749  -20.7145  -53.8044 C.3       19 UNK        -0.1800 
    107 C         -5.6895  -19.0287  -53.9902 C.2       19 UNK         0.5000 
    108 O         -5.7991  -18.1877  -54.8835 O.2       19 UNK        -0.5000 
    109 N         -4.5304  -19.5895  -53.6156 N.am      20 UNK        -0.5000 
    110 CA        -3.1892  -19.3107  -54.1313 C.3       20 UNK         0.1400 
    111 CB        -2.7641  -17.8640  -53.7911 C.3       20 UNK        -0.1800 
    112 C         -3.0215  -19.7038  -55.6130 C.2       20 UNK         0.5000 
    113 O         -3.5550  -20.7354  -56.0256 O.2       20 UNK        -0.5000 
    114 N         -2.2319  -18.9174  -56.3602 N.am      21 UNK        -0.5000 
    115 CA        -1.7956  -19.1511  -57.7439 C.3       21 UNK         0.1400 
    116 CB        -2.9929  -19.1397  -58.7181 C.3       21 UNK        -0.1800 
    117 C         -0.8976  -20.4004  -57.8977 C.2       21 UNK         0.5000 
    118 O         -0.8933  -21.0327  -58.9556 O.2       21 UNK        -0.5000 
    119 N         -0.1472  -20.7290  -56.8379 N.am      22 UNK        -0.5000 
    120 CA         0.8645  -21.7942  -56.8103 C.3       22 UNK         0.1400 
    121 C          2.1377  -21.4584  -57.6408 C.2       22 UNK         0.5000 
    122 N          2.8997  -22.4654  -58.0460 N.am      22 UNK        -0.7600 
    123 O          2.4560  -20.3009  -57.9062 O.2       22 UNK        -0.5000 
    124 C124        1.2083  -22.2222  -55.3572 C.3       23 UNK        -0.0398 
    125 S125        1.7200  -20.8524  -54.2567 S.3       23 UNK        -0.2404 
    126 C126        0.9021  -21.3400  -52.7073 C.3       23 UNK        -0.0205 
    127 H127       -4.0417  -17.0202  -45.4569 H         1 UNK         0.0600 
    128 H128       -4.0996  -15.5231  -44.5225 H         1 UNK         0.0600 
    129 H129       -5.5911  -16.2285  -45.1584 H         1 UNK         0.0600 
    130 H130       -3.2677  -16.6802  -47.5224 H         1 UNK         0.3000 
    131 H131       -4.2461  -14.5133  -49.1935 H         1 UNK         0.0600 
    132 H132       -2.8692  -15.6876  -50.9836 H         1 UNK         0.0800 
    133 H133       -4.1805  -16.5759  -50.3023 H         1 UNK         0.0800 
    134 H134       -0.7832  -16.7193  -51.4646 H         1 UNK         0.0800 
    135 H135       -0.1252  -16.2464  -49.9137 H         1 UNK         0.0800 
    136 H136       -0.5249  -19.0702  -52.2925 H         1 UNK         0.1150 
    137 H137        2.7617  -21.3081  -50.7009 H         1 UNK         0.1150 
    138 H138        1.4882  -17.6960  -48.7685 H         1 UNK         0.1150 
    139 H139        4.1119  -20.3754  -48.9311 H         1 UNK         0.0800 
    140 H140        3.8675  -18.7087  -48.4801 H         1 UNK         0.0800 
    141 H141        2.2576  -22.1363  -48.3201 H         1 UNK         0.0800 
    142 H142        3.1895  -22.5193  -46.9077 H         1 UNK         0.0800 
    143 H143        1.0479  -23.5172  -46.6686 H         1 UNK         0.0600 
    144 H144        1.7185  -21.4910  -44.7521 H         1 UNK         0.3000 
    145 H145       -0.3386  -21.8663  -42.4532 H         1 UNK         0.0600 
    146 H146        0.6063  -23.3967  -40.7088 H         1 UNK         0.0600 
    147 H147       -0.4429  -24.2393  -41.8361 H         1 UNK         0.0600 
    148 H148        1.2996  -24.4090  -41.9763 H         1 UNK         0.0600 
    149 H149        1.4779  -20.6887  -42.1366 H         1 UNK         0.3000 
    150 H150        4.7611  -21.2110  -41.5637 H         1 UNK         0.0600 
    151 H151        5.2543  -21.2329  -43.9909 H         1 UNK         0.0600 
    152 H152        5.4612  -19.6102  -43.3487 H         1 UNK         0.0600 
    153 H153        4.0235  -20.0126  -44.2832 H         1 UNK         0.0600 
    154 H154        3.1033  -18.8932  -42.2900 H         1 UNK         0.3000 
    155 H155        2.0064  -18.4084  -38.8848 H         1 UNK         0.0600 
    156 H156        3.6773  -16.7784  -40.8677 H         1 UNK         0.0600 
    157 H157        4.1513  -17.1832  -39.2230 H         1 UNK         0.0600 
    158 H158        2.7712  -16.1313  -39.5020 H         1 UNK         0.0600 
    159 H159        1.2054  -17.0546  -41.2190 H         1 UNK         0.3000 
    160 H160       -1.6539  -19.0655  -42.0094 H         1 UNK         0.0600 
    161 H161       -2.7054  -16.8454  -41.6542 H         1 UNK         0.0600 
    162 H162       -1.2982  -16.2944  -40.7465 H         1 UNK         0.0600 
    163 H163       -2.3035  -17.5928  -40.1154 H         1 UNK         0.0600 
    164 H164       -0.2598  -16.6470  -42.9556 H         1 UNK         0.3000 
    165 H165        1.1508  -18.2503  -45.7649 H         1 UNK         0.0600 
    166 H166       -0.1099  -16.5400  -47.0526 H         1 UNK         0.0600 
    167 H167       -1.1369  -17.8836  -46.6142 H         1 UNK         0.0600 
    168 H168       -1.2593  -16.3672  -45.7223 H         1 UNK         0.0600 
    169 H169        1.0219  -15.5118  -45.0194 H         1 UNK         0.3000 
    170 H170        3.8692  -15.4982  -42.8763 H         1 UNK         0.0600 
    171 H171        4.7395  -15.5841  -45.2236 H         1 UNK         0.0600 
    172 H172        3.4633  -14.4884  -45.7389 H         1 UNK         0.0600 
    173 H173        4.6944  -13.9444  -44.5992 H         1 UNK         0.0600 
    174 H174        2.5822  -13.2559  -43.6308 H         1 UNK         0.3000 
    175 H175       -0.1844  -13.1767  -41.3827 H         1 UNK         0.0600 
    176 H176        2.5700  -11.8152  -41.3556 H         1 UNK         0.0600 
    177 H177        1.1322  -11.2690  -40.4959 H         1 UNK         0.0600 
    178 H178        1.9068  -12.7754  -40.0376 H         1 UNK         0.0600 
    179 H179        0.8823  -12.3456  -43.9215 H         1 UNK         0.3000 
    180 H180       -1.8241  -10.2278  -44.4738 H         1 UNK         0.0600 
    181 H181        1.0795   -9.2473  -44.4979 H         1 UNK         0.0600 
    182 H182       -0.2478   -8.4678  -43.6462 H         1 UNK         0.0600 
    183 H183       -0.2651   -8.5448  -45.3995 H         1 UNK         0.0600 
    184 H184        0.2173  -10.7956  -46.2725 H         1 UNK         0.3000 
    185 H185       -0.6207  -12.1537  -48.0548 H         1 UNK         0.0600 
    186 H186        1.5741  -12.8456  -47.1174 H         1 UNK         0.0600 
    187 H187        0.8991  -14.3630  -46.5441 H         1 UNK         0.0600 
    188 H188        1.0458  -14.0591  -48.2718 H         1 UNK         0.0600 
    189 H189       -1.9676  -14.4722  -46.8789 H         1 UNK         0.3000 
    190 H190       -0.8178  -20.9240  -45.5176 H         1 UNK         0.3000 
    191 H191       -2.5199  -20.3971  -47.7062 H         1 UNK         0.0600 
    192 H192       -3.1614  -20.6761  -44.7233 H         1 UNK         0.0600 
    193 H193       -4.2383  -19.9675  -45.9222 H         1 UNK         0.0600 
    194 H194       -2.7085  -19.1944  -45.5571 H         1 UNK         0.0600 
    195 H195       -2.2112  -23.3219  -45.7038 H         1 UNK         0.3000 
    196 H196       -4.6418  -24.6045  -46.6202 H         1 UNK         0.0600 
    197 H197       -3.6503  -26.6125  -45.5459 H         1 UNK         0.0600 
    198 H198       -3.5514  -25.2246  -44.4725 H         1 UNK         0.0600 
    199 H199       -2.1170  -25.7765  -45.3347 H         1 UNK         0.0600 
    200 H200       -1.1899  -24.7264  -47.5639 H         1 UNK         0.3000 
    201 H201       -1.4568  -26.6355  -49.6877 H         1 UNK         0.0600 
    202 H202        0.7129  -26.1477  -48.5521 H         1 UNK         0.0600 
    203 H203        0.7022  -24.5086  -49.2031 H         1 UNK         0.0600 
    204 H204        0.8328  -25.8863  -50.2848 H         1 UNK         0.0600 
    205 H205       -1.7769  -23.1374  -49.4896 H         1 UNK         0.3000 
    206 H206       -2.1930  -22.5770  -52.2667 H         1 UNK         0.0600 
    207 H207       -2.8131  -20.3588  -51.4064 H         1 UNK         0.0600 
    208 H208       -1.4923  -20.9428  -50.4112 H         1 UNK         0.0600 
    209 H209       -3.1428  -21.0007  -49.8209 H         1 UNK         0.0600 
    210 H210       -4.0529  -24.6146  -50.5545 H         1 UNK         0.3000 
    211 H211       -6.0732  -25.4763  -50.6964 H         1 UNK         0.0600 
    212 H212       -6.3912  -23.8826  -53.2957 H         1 UNK         0.0600 
    213 H213       -7.3527  -25.2676  -52.8017 H         1 UNK         0.0600 
    214 H214       -5.6428  -25.4707  -53.1484 H         1 UNK         0.0600 
    215 H215       -5.9442  -23.6888  -48.8514 H         1 UNK         0.3000 
    216 H216       -7.0495  -22.4612  -47.3898 H         1 UNK         0.0600 
    217 H217       -9.5039  -22.3416  -47.3651 H         1 UNK         0.0600 
    218 H218       -9.0011  -23.9756  -47.7677 H         1 UNK         0.0600 
    219 H219       -9.6030  -22.8987  -49.0272 H         1 UNK         0.0600 
    220 H220       -5.4831  -21.1589  -48.8850 H         1 UNK         0.3000 
    221 H221       -4.7826  -19.1885  -49.6074 H         1 UNK         0.0600 
    222 H222       -7.2604  -18.0795  -48.1918 H         1 UNK         0.0600 
    223 H223       -5.7005  -18.4221  -47.4451 H         1 UNK         0.0600 
    224 H224       -5.8474  -17.1507  -48.6447 H         1 UNK         0.0600 
    225 H225       -6.3828  -20.6655  -51.5428 H         1 UNK         0.3000 
    226 H226       -7.6685  -18.6494  -53.2466 H         1 UNK         0.0600 
    227 H227       -8.4609  -21.0191  -53.2469 H         1 UNK         0.0600 
    228 H228       -7.8826  -20.5314  -54.8345 H         1 UNK         0.0600 
    229 H229       -6.8822  -21.5558  -53.8151 H         1 UNK         0.0600 
    230 H230       -4.5945  -20.3564  -52.9511 H         1 UNK         0.3000 
    231 H231       -2.5169  -19.9790  -53.5946 H         1 UNK         0.0600 
    232 H232       -2.9197  -17.6559  -52.7328 H         1 UNK         0.0600 
    233 H233       -3.3334  -17.1270  -54.3584 H         1 UNK         0.0600 
    234 H234       -1.7058  -17.6970  -53.9930 H         1 UNK         0.0600 
    235 H235       -1.8504  -18.0898  -55.9238 H         1 UNK         0.3000 
    236 H236       -1.1622  -18.3023  -58.0040 H         1 UNK         0.0600 
    237 H237       -2.6535  -19.1472  -59.7543 H         1 UNK         0.0600 
    238 H238       -3.6376  -20.0078  -58.5817 H         1 UNK         0.0600 
    239 H239       -3.6012  -18.2455  -58.5842 H         1 UNK         0.0600 
    240 H240       -0.1750  -20.1353  -56.0233 H         1 UNK         0.3000 
    241 H241        0.4117  -22.6616  -57.2945 H         1 UNK         0.0600 
    242 H242        3.7320  -22.2644  -58.5784 H         1 UNK         0.3800 
    243 H243        2.6637  -23.4251  -57.8463 H         1 UNK         0.3800 
    244 H244        0.3327  -22.7095  -54.9265 H         1 UNK         0.0800 
    245 H245        1.9914  -22.9821  -55.3500 H         1 UNK         0.0800 
    246 H246        1.2846  -22.3086  -52.3811 H         1 UNK         0.0800 
    247 H247       -0.1644  -21.4743  -52.8891 H         1 UNK         0.0800 
@<TRIPOS>BOND
     1    1    2 1    
     2    1  127 1    
     3    1  128 1    
     4    1  129 1    
     5    2    3 2    
     6    2    4 am   BACKBONE|DICT|INTERRES
     7    4    5 1    
     8    4  130 1    
     9    5    6 1    
    10    5   65 1    
    11    5  131 1    
    12    6    7 1    
    13    6  132 1    
    14    6  133 1    
    15    7    8 1    
    16    8    9 1    
    17    8  134 1    
    18    8  135 1    
    19    9   10 ar   
    20    9   14 ar   
    21   10   11 ar   
    22   10  136 1    
    23   11   12 ar   
    24   11  126 1    
    25   12   13 ar   
    26   12  137 1    
    27   13   14 ar   
    28   13   15 1    
    29   14  138 1    
    30   15   16 1    
    31   15  139 1    
    32   15  140 1    
    33   16   17 1    
    34   17   18 1    
    35   17  141 1    
    36   17  142 1    
    37   18   19 1    
    38   18   67 1    
    39   18  143 1    
    40   19   20 am   BACKBONE|DICT|INTERRES
    41   19  144 1    
    42   20   21 2    
    43   20   22 1    
    44   22   23 1    
    45   22   24 1    
    46   22  145 1    
    47   23  146 1    
    48   23  147 1    
    49   23  148 1    
    50   24   25 am   BACKBONE|DICT|INTERRES
    51   24  149 1    
    52   25   26 2    
    53   25   27 1    
    54   27   28 1    
    55   27   29 1    
    56   27  150 1    
    57   28  151 1    
    58   28  152 1    
    59   28  153 1    
    60   29   30 am   BACKBONE|DICT|INTERRES
    61   29  154 1    
    62   30   31 2    
    63   30   32 1    
    64   32   33 1    
    65   32   34 1    
    66   32  155 1    
    67   33  156 1    
    68   33  157 1    
    69   33  158 1    
    70   34   35 am   BACKBONE|DICT|INTERRES
    71   34  159 1    
    72   35   36 2    
    73   35   37 1    
    74   37   38 1    
    75   37   39 1    
    76   37  160 1    
    77   38  161 1    
    78   38  162 1    
    79   38  163 1    
    80   39   40 am   BACKBONE|DICT|INTERRES
    81   39  164 1    
    82   40   41 2    
    83   40   42 1    
    84   42   43 1    
    85   42   44 1    
    86   42  165 1    
    87   43  166 1    
    88   43  167 1    
    89   43  168 1    
    90   44   45 am   BACKBONE|DICT|INTERRES
    91   44  169 1    
    92   45   46 2    
    93   45   47 1    
    94   47   48 1    
    95   47   49 1    
    96   47  170 1    
    97   48  171 1    
    98   48  172 1    
    99   48  173 1    
   100   49   50 am   BACKBONE|DICT|INTERRES
   101   49  174 1    
   102   50   51 2    
   103   50   52 1    
   104   52   53 1    
   105   52   54 1    
   106   52  175 1    
   107   53  176 1    
   108   53  177 1    
   109   53  178 1    
   110   54   55 am   BACKBONE|DICT|INTERRES
   111   54  179 1    
   112   55   56 2    
   113   55   57 1    
   114   57   58 1    
   115   57   59 1    
   116   57  180 1    
   117   58  181 1    
   118   58  182 1    
   119   58  183 1    
   120   59   60 am   BACKBONE|DICT|INTERRES
   121   59  184 1    
   122   60   61 2    
   123   60   62 1    
   124   62   63 1    
   125   62   64 1    
   126   62  185 1    
   127   63  186 1    
   128   63  187 1    
   129   63  188 1    
   130   64   65 am   BACKBONE|DICT|INTERRES
   131   64  189 1    
   132   65   66 2    
   133   67   68 2    
   134   67   69 am   BACKBONE|DICT|INTERRES
   135   69   70 1    
   136   69  190 1    
   137   70   71 1    
   138   70   72 1    
   139   70  191 1    
   140   71  192 1    
   141   71  193 1    
   142   71  194 1    
   143   72   73 2    
   144   72   74 am   BACKBONE|DICT|INTERRES
   145   74   75 1    
   146   74  195 1    
   147   75   76 1    
   148   75   77 1    
   149   75  196 1    
   150   76  197 1    
   151   76  198 1    
   152   76  199 1    
   153   77   78 2    
   154   77   79 am   BACKBONE|DICT|INTERRES
   155   79   80 1    
   156   79  200 1    
   157   80   81 1    
   158   80   82 1    
   159   80  201 1    
   160   81  202 1    
   161   81  203 1    
   162   81  204 1    
   163   82   83 2    
   164   82   84 am   BACKBONE|DICT|INTERRES
   165   84   85 1    
   166   84  205 1    
   167   85   86 1    
   168   85   87 1    
   169   85  206 1    
   170   86  207 1    
   171   86  208 1    
   172   86  209 1    
   173   87   88 2    
   174   87   89 am   BACKBONE|DICT|INTERRES
   175   89   90 1    
   176   89  210 1    
   177   90   91 1    
   178   90   92 1    
   179   90  211 1    
   180   91  212 1    
   181   91  213 1    
   182   91  214 1    
   183   92   93 2    
   184   92   94 am   BACKBONE|DICT|INTERRES
   185   94   95 1    
   186   94  215 1    
   187   95   96 1    
   188   95   97 1    
   189   95  216 1    
   190   96  217 1    
   191   96  218 1    
   192   96  219 1    
   193   97   98 2    
   194   97   99 am   BACKBONE|DICT|INTERRES
   195   99  100 1    
   196   99  220 1    
   197  100  101 1    
   198  100  102 1    
   199  100  221 1    
   200  101  222 1    
   201  101  223 1    
   202  101  224 1    
   203  102  103 2    
   204  102  104 am   BACKBONE|DICT|INTERRES
   205  104  105 1    
   206  104  225 1    
   207  105  106 1    
   208  105  107 1    
   209  105  226 1    
   210  106  227 1    
   211  106  228 1    
   212  106  229 1    
   213  107  108 2    
   214  107  109 am   BACKBONE|DICT|INTERRES
   215  109  110 1    
   216  109  230 1    
   217  110  111 1    
   218  110  112 1    
   219  110  231 1    
   220  111  232 1    
   221  111  233 1    
   222  111  234 1    
   223  112  113 2    
   224  112  114 am   BACKBONE|DICT|INTERRES
   225  114  115 1    
   226  114  235 1    
   227  115  116 1    
   228  115  117 1    
   229  115  236 1    
   230  116  237 1    
   231  116  238 1    
   232  116  239 1    
   233  117  118 2    
   234  117  119 am   BACKBONE|DICT|INTERRES
   235  119  120 1    
   236  119  240 1    
   237  120  121 1    
   238  120  124 1    
   239  120  241 1    
   240  121  122 am   BACKBONE|DICT|INTERRES
   241  121  123 2    
   242  122  242 1    
   243  122  243 1    
   244  124  125 1    
   245  124  244 1    
   246  124  245 1    
   247  125  126 1    
   248  126  246 1    
   249  126  247 1    
@<TRIPOS>SUBSTRUCTURE
     1 UNK         1 GROUP             0       ****    0 ROOT    
