@<TRIPOS>MOLECULE
3R540
247   249    1
SMALL
USER_CHARGES


@<TRIPOS>ATOM
      1 CA          4.1169  -10.3192  -48.9428 C.3       0 UNK        -0.1800 
      2 C           2.9985  -11.3338  -49.1365 C.2       0 UNK         0.5000 
      3 O           2.0939  -11.0991  -49.9383 O.2       0 UNK        -0.5000 
      4 N           3.0677  -12.4578  -48.4103 N.am      1 UNK        -0.5000 
      5 CA          2.0701  -13.5347  -48.3696 C.3       1 UNK         0.1400 
      6 C6          1.8460  -14.1983  -49.7602 C.3       23 UNK        -0.0398 
      7 S7          1.3627  -15.9589  -49.6589 S.3       23 UNK        -0.2404 
      8 C8          2.7349  -16.7597  -50.5441 C.3       23 UNK        -0.0205 
      9 C9          2.4193  -18.2170  -50.8383 C.ar      23 UNK        -0.0193 
     10 C10         1.5644  -18.5403  -51.8945 C.ar      23 UNK        -0.1150 
     11 C11         1.2637  -19.8727  -52.1836 C.ar      23 UNK        -0.0193 
     12 C12         1.8254  -20.8864  -51.4023 C.ar      23 UNK        -0.1150 
     13 C13         2.6917  -20.5836  -50.3457 C.ar      23 UNK        -0.0193 
     14 C14         2.9888  -19.2404  -50.0749 C.ar      23 UNK        -0.1150 
     15 C15         3.3143  -21.7422  -49.5642 C.3       23 UNK        -0.0205 
     16 S16         3.9112  -21.3661  -47.8780 S.3       23 UNK        -0.2404 
     17 C17         2.4052  -20.7830  -47.0321 C.3       23 UNK        -0.0398 
     18 CA          1.4721  -21.9278  -46.5487 C.3       11 UNK         0.1400 
     19 N           0.7966  -21.5873  -45.2989 N.am      11 UNK        -0.5000 
     20 C           1.1232  -22.0883  -44.1011 C.2       10 UNK         0.5000 
     21 O           1.9903  -22.9467  -43.9328 O.2       10 UNK        -0.5000 
     22 CA          0.3886  -21.5328  -42.8679 C.3       10 UNK         0.1400 
     23 CB          1.2935  -20.5571  -42.0982 C.3       10 UNK        -0.1800 
     24 N          -0.8751  -20.8630  -43.1729 N.am      10 UNK        -0.5000 
     25 C          -2.0201  -21.4995  -43.4509 C.2       9 UNK         0.5000 
     26 O          -2.1064  -22.7180  -43.6011 O.2       9 UNK        -0.5000 
     27 CA         -3.2816  -20.6286  -43.5573 C.3       9 UNK         0.1400 
     28 CB         -3.8265  -20.3034  -42.1580 C.3       9 UNK        -0.1800 
     29 N          -3.0175  -19.3793  -44.2646 N.am      9 UNK        -0.5000 
     30 C          -3.1476  -19.2205  -45.5861 C.2       8 UNK         0.5000 
     31 O          -3.4773  -20.1185  -46.3578 O.2       8 UNK        -0.5000 
     32 CA         -2.8028  -17.8269  -46.1436 C.3       8 UNK         0.1400 
     33 CB         -3.9003  -16.8216  -45.7593 C.3       8 UNK        -0.1800 
     34 N          -1.5026  -17.3453  -45.6770 N.am      8 UNK        -0.5000 
     35 C          -0.3484  -18.0145  -45.8033 C.2       7 UNK         0.5000 
     36 O          -0.2342  -19.0486  -46.4601 O.2       7 UNK        -0.5000 
     37 CA          0.8761  -17.4904  -45.0313 C.3       7 UNK         0.1400 
     38 CB          1.8088  -16.7223  -45.9745 C.3       7 UNK        -0.1800 
     39 N           0.5752  -16.6590  -43.8608 N.am      7 UNK        -0.5000 
     40 C          -0.1943  -17.0039  -42.8146 C.2       6 UNK         0.5000 
     41 O          -0.8126  -18.0686  -42.7488 O.2       6 UNK        -0.5000 
     42 CA         -0.2975  -15.9891  -41.6539 C.3       6 UNK         0.1400 
     43 CB         -0.7378  -16.6441  -40.3286 C.3       6 UNK        -0.1800 
     44 N           0.9240  -15.2006  -41.4634 N.am      6 UNK        -0.5000 
     45 C           2.1644  -15.6611  -41.2278 C.2       5 UNK         0.5000 
     46 O           2.4220  -16.8447  -41.0039 O.2       5 UNK        -0.5000 
     47 CA          3.3150  -14.6270  -41.2706 C.3       5 UNK         0.1400 
     48 CB          4.6128  -15.2252  -41.8530 C.3       5 UNK        -0.1800 
     49 N           2.9727  -13.3771  -41.9655 N.am      5 UNK        -0.5000 
     50 C           2.5769  -13.2407  -43.2396 C.2       4 UNK         0.5000 
     51 O           2.4672  -14.1727  -44.0387 O.2       4 UNK        -0.5000 
     52 CA          2.1529  -11.8265  -43.6660 C.3       4 UNK         0.1400 
     53 CB          3.0277  -11.3101  -44.8177 C.3       4 UNK        -0.1800 
     54 N           0.7434  -11.8108  -44.0608 N.am      4 UNK        -0.5000 
     55 C          -0.2799  -12.0458  -43.2236 C.2       3 UNK         0.5000 
     56 O          -0.1328  -12.3029  -42.0272 O.2       3 UNK        -0.5000 
     57 CA         -1.7060  -11.9932  -43.8039 C.3       3 UNK         0.1400 
     58 CB         -2.3105  -10.5938  -43.6162 C.3       3 UNK        -0.1800 
     59 N          -1.7675  -12.3530  -45.2188 N.am      3 UNK        -0.5000 
     60 C          -1.5958  -13.5929  -45.6915 C.2       2 UNK         0.5000 
     61 O          -1.4135  -14.5753  -44.9722 O.2       2 UNK        -0.5000 
     62 CA         -1.6252  -13.7752  -47.2226 C.3       2 UNK         0.1400 
     63 CB         -2.3977  -12.6682  -47.9722 C.3       2 UNK        -0.1800 
     64 N          -0.2817  -13.9332  -47.7805 N.am      2 UNK        -0.5000 
     65 C           0.7540  -13.0882  -47.6796 C.2       1 UNK         0.5000 
     66 O           0.7023  -12.0222  -47.0585 O.2       1 UNK        -0.5000 
     67 C           0.4289  -22.3275  -47.6032 C.2       11 UNK         0.5000 
     68 O           0.3765  -23.4942  -47.9896 O.2       11 UNK        -0.5000 
     69 N          -0.3775  -21.3618  -48.0602 N.am      12 UNK        -0.5000 
     70 CA         -1.2498  -21.4838  -49.2295 C.3       12 UNK         0.1400 
     71 CB         -1.8457  -20.1103  -49.5494 C.3       12 UNK        -0.1800 
     72 C          -2.3441  -22.5547  -49.0862 C.2       12 UNK         0.5000 
     73 O          -2.5210  -23.3699  -49.9924 O.2       12 UNK        -0.5000 
     74 N          -3.0170  -22.5809  -47.9285 N.am      13 UNK        -0.5000 
     75 CA         -4.0325  -23.5815  -47.5900 C.3       13 UNK         0.1400 
     76 CB         -4.7440  -23.1661  -46.2957 C.3       13 UNK        -0.1800 
     77 C          -3.4806  -25.0141  -47.4452 C.2       13 UNK         0.5000 
     78 O          -4.2558  -25.9634  -47.5551 O.2       13 UNK        -0.5000 
     79 N          -2.1717  -25.1516  -47.1984 N.am      14 UNK        -0.5000 
     80 CA         -1.4886  -26.4360  -47.0756 C.3       14 UNK         0.1400 
     81 CB         -0.3834  -26.3245  -46.0119 C.3       14 UNK        -0.1800 
     82 C          -0.9118  -26.8902  -48.4263 C.2       14 UNK         0.5000 
     83 O          -1.1443  -28.0280  -48.8351 O.2       14 UNK        -0.5000 
     84 N          -0.1576  -26.0010  -49.0848 N.am      15 UNK        -0.5000 
     85 CA          0.6052  -26.2987  -50.2951 C.3       15 UNK         0.1400 
     86 CB          1.7305  -25.2634  -50.4467 C.3       15 UNK        -0.1800 
     87 C          -0.2580  -26.3301  -51.5651 C.2       15 UNK         0.5000 
     88 O          -0.0827  -27.2276  -52.3904 O.2       15 UNK        -0.5000 
     89 N          -1.1495  -25.3422  -51.7116 N.am      16 UNK        -0.5000 
     90 CA         -1.9592  -25.1338  -52.9142 C.3       16 UNK         0.1400 
     91 CB         -1.8147  -23.6679  -53.3472 C.3       16 UNK        -0.1800 
     92 C          -3.4383  -25.5045  -52.7063 C.2       16 UNK         0.5000 
     93 O          -4.1898  -25.5306  -53.6812 O.2       16 UNK        -0.5000 
     94 N          -3.8278  -25.7867  -51.4538 N.am      17 UNK        -0.5000 
     95 CA         -5.1703  -26.1729  -51.0036 C.3       17 UNK         0.1400 
     96 CB         -5.5900  -27.5257  -51.6167 C.3       17 UNK        -0.1800 
     97 C          -6.2357  -25.0704  -51.1931 C.2       17 UNK         0.5000 
     98 O          -7.4250  -25.3794  -51.2870 O.2       17 UNK        -0.5000 
     99 N          -5.8024  -23.8047  -51.2274 N.am      18 UNK        -0.5000 
    100 CA        -6.6540  -22.6328  -51.3896 C.3       18 UNK         0.1400 
    101 CB        -6.9155  -22.3719  -52.8826 C.3       18 UNK        -0.1800 
    102 C         -5.9504  -21.4524  -50.7172 C.2       18 UNK         0.5000 
    103 O         -4.9301  -20.9890  -51.2296 O.2       18 UNK        -0.5000 
    104 N         -6.4823  -21.0222  -49.5662 N.am      19 UNK        -0.5000 
    105 CA        -5.9187  -19.9816  -48.7072 C.3       19 UNK         0.1400 
    106 CB        -6.7993  -19.8233  -47.4571 C.3       19 UNK        -0.1800 
    107 C         -5.7572  -18.6340  -49.4326 C.2       19 UNK         0.5000 
    108 O         -6.7526  -18.0627  -49.8813 O.2       19 UNK        -0.5000 
    109 N         -4.5025  -18.1820  -49.5586 N.am      20 UNK        -0.5000 
    110 CA        -4.0013  -16.9652  -50.2162 C.3       20 UNK         0.1400 
    111 CB        -4.5596  -15.6982  -49.5418 C.3       20 UNK        -0.1800 
    112 C         -4.2039  -16.9075  -51.7453 C.2       20 UNK         0.5000 
    113 O         -3.3465  -16.3647  -52.4421 O.2       20 UNK        -0.5000 
    114 N         -5.3228  -17.4474  -52.2407 N.am      21 UNK        -0.5000 
    115 CA        -5.6901  -17.4953  -53.6534 C.3       21 UNK         0.1400 
    116 CB        -7.1704  -17.8899  -53.7716 C.3       21 UNK        -0.1800 
    117 C         -4.8090  -18.4549  -54.4714 C.2       21 UNK         0.5000 
    118 O         -4.4719  -18.1351  -55.6119 O.2       21 UNK        -0.5000 
    119 N         -4.4628  -19.6069  -53.8787 N.am      22 UNK        -0.5000 
    120 CA        -3.6154  -20.6638  -54.4606 C.3       22 UNK         0.1400 
    121 C         -4.1897  -21.3553  -55.7389 C.2       22 UNK         0.5000 
    122 N         -5.4752  -21.2268  -56.0448 N.am      22 UNK        -0.7600 
    123 O         -3.4695  -22.0461  -56.4544 O.2       22 UNK        -0.5000 
    124 C124       -2.1364  -20.2176  -54.6381 C.3       23 UNK        -0.0398 
    125 S125       -1.3623  -19.7287  -53.0597 S.3       23 UNK        -0.2404 
    126 C126        0.3642  -20.2111  -53.3630 C.3       23 UNK        -0.0205 
    127 H127        4.8466  -10.6548  -48.2053 H         1 UNK         0.0600 
    128 H128        3.7050   -9.3688  -48.6035 H         1 UNK         0.0600 
    129 H129        4.6382  -10.1499  -49.8850 H         1 UNK         0.0600 
    130 H130        3.8369  -12.5679  -47.7654 H         1 UNK         0.3000 
    131 H131        2.5136  -14.2803  -47.7090 H         1 UNK         0.0600 
    132 H132        1.0965  -13.6567  -50.3404 H         1 UNK         0.0800 
    133 H133        2.7631  -14.1323  -50.3468 H         1 UNK         0.0800 
    134 H134        3.6481  -16.6717  -49.9535 H         1 UNK         0.0800 
    135 H135        2.9199  -16.2390  -51.4850 H         1 UNK         0.0800 
    136 H136        1.1291  -17.7521  -52.4929 H         1 UNK         0.1150 
    137 H137        1.6013  -21.9191  -51.6301 H         1 UNK         0.1150 
    138 H138        3.6662  -18.9832  -49.2738 H         1 UNK         0.1150 
    139 H139        2.6042  -22.5651  -49.4964 H         1 UNK         0.0800 
    140 H140        4.1578  -22.1213  -50.1424 H         1 UNK         0.0800 
    141 H141        1.8905  -20.0479  -47.6507 H         1 UNK         0.0800 
    142 H142        2.7598  -20.2169  -46.1695 H         1 UNK         0.0800 
    143 H143        2.0859  -22.8171  -46.3902 H         1 UNK         0.0600 
    144 H144        0.0686  -20.8868  -45.3620 H         1 UNK         0.3000 
    145 H145        0.1759  -22.3788  -42.2107 H         1 UNK         0.0600 
    146 H146        0.8032  -20.1901  -41.1962 H         1 UNK         0.0600 
    147 H147        1.5645  -19.6923  -42.7034 H         1 UNK         0.0600 
    148 H148        2.2200  -21.0425  -41.7890 H         1 UNK         0.0600 
    149 H149       -0.8916  -19.8523  -43.0483 H         1 UNK         0.3000 
    150 H150       -4.0466  -21.1975  -44.0888 H         1 UNK         0.0600 
    151 H151       -4.0396  -21.2160  -41.5997 H         1 UNK         0.0600 
    152 H152       -4.7554  -19.7363  -42.2205 H         1 UNK         0.0600 
    153 H153       -3.1156  -19.7176  -41.5733 H         1 UNK         0.0600 
    154 H154       -2.6308  -18.6199  -43.7173 H         1 UNK         0.3000 
    155 H155       -2.7595  -17.8914  -47.2310 H         1 UNK         0.0600 
    156 H156       -3.9728  -16.6960  -44.6782 H         1 UNK         0.0600 
    157 H157       -4.8756  -17.1521  -46.1186 H         1 UNK         0.0600 
    158 H158       -3.7172  -15.8397  -46.1892 H         1 UNK         0.0600 
    159 H159       -1.4899  -16.4651  -45.1680 H         1 UNK         0.3000 
    160 H160        1.4150  -18.3675  -44.6709 H         1 UNK         0.0600 
    161 H161        1.3549  -15.7844  -46.2906 H         1 UNK         0.0600 
    162 H162        2.0360  -17.3027  -46.8701 H         1 UNK         0.0600 
    163 H163        2.7571  -16.4906  -45.4897 H         1 UNK         0.0600 
    164 H164        1.0383  -15.7571  -43.8360 H         1 UNK         0.3000 
    165 H165       -1.0727  -15.2795  -41.9467 H         1 UNK         0.0600 
    166 H166       -0.8100  -15.9069  -39.5290 H         1 UNK         0.0600 
    167 H167       -1.7192  -17.1093  -40.4287 H         1 UNK         0.0600 
    168 H168       -0.0409  -17.4197  -40.0095 H         1 UNK         0.0600 
    169 H169        0.8173  -14.2047  -41.6207 H         1 UNK         0.3000 
    170 H170        3.5124  -14.3549  -40.2329 H         1 UNK         0.0600 
    171 H171        4.4681  -15.5928  -42.8695 H         1 UNK         0.0600 
    172 H172        5.4136  -14.4861  -41.8741 H         1 UNK         0.0600 
    173 H173        4.9643  -16.0635  -41.2504 H         1 UNK         0.0600 
    174 H174        2.9846  -12.5504  -41.3838 H         1 UNK         0.3000 
    175 H175        2.2706  -11.1426  -42.8228 H         1 UNK         0.0600 
    176 H176        3.0106  -11.9899  -45.6681 H         1 UNK         0.0600 
    177 H177        2.6955  -10.3310  -45.1631 H         1 UNK         0.0600 
    178 H178        4.0667  -11.2113  -44.5015 H         1 UNK         0.0600 
    179 H179        0.5549  -11.6968  -45.0517 H         1 UNK         0.3000 
    180 H180       -2.3157  -12.7048  -43.2427 H         1 UNK         0.0600 
    181 H181       -3.3465  -10.5627  -43.9544 H         1 UNK         0.0600 
    182 H182       -1.7529   -9.8368  -44.1694 H         1 UNK         0.0600 
    183 H183       -2.3042  -10.3034  -42.5647 H         1 UNK         0.0600 
    184 H184       -1.8763  -11.5964  -45.8785 H         1 UNK         0.3000 
    185 H185       -2.1398  -14.7166  -47.4134 H         1 UNK         0.0600 
    186 H186       -1.9059  -11.6974  -47.9051 H         1 UNK         0.0600 
    187 H187       -2.4921  -12.9125  -49.0303 H         1 UNK         0.0600 
    188 H188       -3.4087  -12.5589  -47.5775 H         1 UNK         0.0600 
    189 H189       -0.1246  -14.7937  -48.2897 H         1 UNK         0.3000 
    190 H190       -0.3184  -20.4387  -47.6344 H         1 UNK         0.3000 
    191 H191       -0.6271  -21.7798  -50.0759 H         1 UNK         0.0600 
    192 H192       -2.3687  -19.7005  -48.6895 H         1 UNK         0.0600 
    193 H193       -2.5499  -20.1731  -50.3788 H         1 UNK         0.0600 
    194 H194       -1.0664  -19.4030  -49.8357 H         1 UNK         0.0600 
    195 H195       -2.8607  -21.8424  -47.2501 H         1 UNK         0.3000 
    196 H196       -4.7701  -23.5929  -48.3947 H         1 UNK         0.0600 
    197 H197       -5.1680  -22.1674  -46.3769 H         1 UNK         0.0600 
    198 H198       -4.0596  -23.1738  -45.4480 H         1 UNK         0.0600 
    199 H199       -5.5626  -23.8479  -46.0622 H         1 UNK         0.0600 
    200 H200       -1.5931  -24.3233  -47.1657 H         1 UNK         0.3000 
    201 H201       -2.1921  -27.2000  -46.7375 H         1 UNK         0.0600 
    202 H202       -0.8003  -26.0566  -45.0408 H         1 UNK         0.0600 
    203 H203        0.3627  -25.5728  -46.2707 H         1 UNK         0.0600 
    204 H204        0.1377  -27.2750  -45.8910 H         1 UNK         0.0600 
    205 H205       -0.0066  -25.0809  -48.6734 H         1 UNK         0.3000 
    206 H206        1.0677  -27.2814  -50.1788 H         1 UNK         0.0600 
    207 H207        2.3561  -25.4881  -51.3115 H         1 UNK         0.0600 
    208 H208        1.3308  -24.2582  -50.5830 H         1 UNK         0.0600 
    209 H209        2.3779  -25.2510  -49.5696 H         1 UNK         0.0600 
    210 H210       -1.2701  -24.6585  -50.9718 H         1 UNK         0.3000 
    211 H211       -1.5928  -25.7550  -53.7339 H         1 UNK         0.0600 
    212 H212       -2.1907  -22.9805  -52.5893 H         1 UNK         0.0600 
    213 H213       -2.3642  -23.4825  -54.2700 H         1 UNK         0.0600 
    214 H214       -0.7716  -23.4174  -53.5378 H         1 UNK         0.0600 
    215 H215       -3.1312  -25.6965  -50.7278 H         1 UNK         0.3000 
    216 H216       -5.0946  -26.3247  -49.9288 H         1 UNK         0.0600 
    217 H217       -6.5055  -27.8973  -51.1550 H         1 UNK         0.0600 
    218 H218       -4.8217  -28.2834  -51.4626 H         1 UNK         0.0600 
    219 H219       -5.7752  -27.4471  -52.6881 H         1 UNK         0.0600 
    220 H220       -4.8122  -23.6171  -51.1246 H         1 UNK         0.3000 
    221 H221       -7.6120  -22.7981  -50.8917 H         1 UNK         0.0600 
    222 H222       -5.9837  -22.3038  -53.4422 H         1 UNK         0.0600 
    223 H223       -7.5071  -23.1739  -53.3242 H         1 UNK         0.0600 
    224 H224       -7.4642  -21.4413  -53.0306 H         1 UNK         0.0600 
    225 H225       -7.3350  -21.4499  -49.2364 H         1 UNK         0.3000 
    226 H226       -4.9367  -20.3359  -48.3954 H         1 UNK         0.0600 
    227 H227       -6.9221  -20.7684  -46.9299 H         1 UNK         0.0600 
    228 H228       -6.3539  -19.1171  -46.7557 H         1 UNK         0.0600 
    229 H229       -7.7941  -19.4537  -47.7092 H         1 UNK         0.0600 
    230 H230       -3.7726  -18.7909  -49.2198 H         1 UNK         0.3000 
    231 H231       -2.9221  -16.9718  -50.0529 H         1 UNK         0.0600 
    232 H232       -4.1046  -14.8010  -49.9632 H         1 UNK         0.0600 
    233 H233       -4.3529  -15.6946  -48.4733 H         1 UNK         0.0600 
    234 H234       -5.6380  -15.6079  -49.6746 H         1 UNK         0.0600 
    235 H235       -5.9911  -17.8207  -51.5726 H         1 UNK         0.3000 
    236 H236       -5.5689  -16.4932  -54.0701 H         1 UNK         0.0600 
    237 H237       -7.3627  -18.8695  -53.3323 H         1 UNK         0.0600 
    238 H238       -7.8114  -17.1666  -53.2671 H         1 UNK         0.0600 
    239 H239       -7.4836  -17.9284  -54.8157 H         1 UNK         0.0600 
    240 H240       -4.7611  -19.7806  -52.9254 H         1 UNK         0.3000 
    241 H241       -3.6225  -21.4547  -53.7120 H         1 UNK         0.0600 
    242 H242       -5.8352  -21.6849  -56.8670 H         1 UNK         0.3800 
    243 H243       -6.0841  -20.6608  -55.4779 H         1 UNK         0.3800 
    244 H244       -1.5449  -21.0288  -55.0651 H         1 UNK         0.0800 
    245 H245       -2.0627  -19.3863  -55.3400 H         1 UNK         0.0800 
    246 H246        0.7307  -19.6962  -54.2523 H         1 UNK         0.0800 
    247 H247        0.4082  -21.2784  -53.5823 H         1 UNK         0.0800 
@<TRIPOS>BOND
     1    1    2 1    
     2    1  127 1    
     3    1  128 1    
     4    1  129 1    
     5    2    3 2    
     6    2    4 am   BACKBONE|DICT|INTERRES
     7    4    5 1    
     8    4  130 1    
     9    5    6 1    
    10    5   65 1    
    11    5  131 1    
    12    6    7 1    
    13    6  132 1    
    14    6  133 1    
    15    7    8 1    
    16    8    9 1    
    17    8  134 1    
    18    8  135 1    
    19    9   10 ar   
    20    9   14 ar   
    21   10   11 ar   
    22   10  136 1    
    23   11   12 ar   
    24   11  126 1    
    25   12   13 ar   
    26   12  137 1    
    27   13   14 ar   
    28   13   15 1    
    29   14  138 1    
    30   15   16 1    
    31   15  139 1    
    32   15  140 1    
    33   16   17 1    
    34   17   18 1    
    35   17  141 1    
    36   17  142 1    
    37   18   19 1    
    38   18   67 1    
    39   18  143 1    
    40   19   20 am   BACKBONE|DICT|INTERRES
    41   19  144 1    
    42   20   21 2    
    43   20   22 1    
    44   22   23 1    
    45   22   24 1    
    46   22  145 1    
    47   23  146 1    
    48   23  147 1    
    49   23  148 1    
    50   24   25 am   BACKBONE|DICT|INTERRES
    51   24  149 1    
    52   25   26 2    
    53   25   27 1    
    54   27   28 1    
    55   27   29 1    
    56   27  150 1    
    57   28  151 1    
    58   28  152 1    
    59   28  153 1    
    60   29   30 am   BACKBONE|DICT|INTERRES
    61   29  154 1    
    62   30   31 2    
    63   30   32 1    
    64   32   33 1    
    65   32   34 1    
    66   32  155 1    
    67   33  156 1    
    68   33  157 1    
    69   33  158 1    
    70   34   35 am   BACKBONE|DICT|INTERRES
    71   34  159 1    
    72   35   36 2    
    73   35   37 1    
    74   37   38 1    
    75   37   39 1    
    76   37  160 1    
    77   38  161 1    
    78   38  162 1    
    79   38  163 1    
    80   39   40 am   BACKBONE|DICT|INTERRES
    81   39  164 1    
    82   40   41 2    
    83   40   42 1    
    84   42   43 1    
    85   42   44 1    
    86   42  165 1    
    87   43  166 1    
    88   43  167 1    
    89   43  168 1    
    90   44   45 am   BACKBONE|DICT|INTERRES
    91   44  169 1    
    92   45   46 2    
    93   45   47 1    
    94   47   48 1    
    95   47   49 1    
    96   47  170 1    
    97   48  171 1    
    98   48  172 1    
    99   48  173 1    
   100   49   50 am   BACKBONE|DICT|INTERRES
   101   49  174 1    
   102   50   51 2    
   103   50   52 1    
   104   52   53 1    
   105   52   54 1    
   106   52  175 1    
   107   53  176 1    
   108   53  177 1    
   109   53  178 1    
   110   54   55 am   BACKBONE|DICT|INTERRES
   111   54  179 1    
   112   55   56 2    
   113   55   57 1    
   114   57   58 1    
   115   57   59 1    
   116   57  180 1    
   117   58  181 1    
   118   58  182 1    
   119   58  183 1    
   120   59   60 am   BACKBONE|DICT|INTERRES
   121   59  184 1    
   122   60   61 2    
   123   60   62 1    
   124   62   63 1    
   125   62   64 1    
   126   62  185 1    
   127   63  186 1    
   128   63  187 1    
   129   63  188 1    
   130   64   65 am   BACKBONE|DICT|INTERRES
   131   64  189 1    
   132   65   66 2    
   133   67   68 2    
   134   67   69 am   BACKBONE|DICT|INTERRES
   135   69   70 1    
   136   69  190 1    
   137   70   71 1    
   138   70   72 1    
   139   70  191 1    
   140   71  192 1    
   141   71  193 1    
   142   71  194 1    
   143   72   73 2    
   144   72   74 am   BACKBONE|DICT|INTERRES
   145   74   75 1    
   146   74  195 1    
   147   75   76 1    
   148   75   77 1    
   149   75  196 1    
   150   76  197 1    
   151   76  198 1    
   152   76  199 1    
   153   77   78 2    
   154   77   79 am   BACKBONE|DICT|INTERRES
   155   79   80 1    
   156   79  200 1    
   157   80   81 1    
   158   80   82 1    
   159   80  201 1    
   160   81  202 1    
   161   81  203 1    
   162   81  204 1    
   163   82   83 2    
   164   82   84 am   BACKBONE|DICT|INTERRES
   165   84   85 1    
   166   84  205 1    
   167   85   86 1    
   168   85   87 1    
   169   85  206 1    
   170   86  207 1    
   171   86  208 1    
   172   86  209 1    
   173   87   88 2    
   174   87   89 am   BACKBONE|DICT|INTERRES
   175   89   90 1    
   176   89  210 1    
   177   90   91 1    
   178   90   92 1    
   179   90  211 1    
   180   91  212 1    
   181   91  213 1    
   182   91  214 1    
   183   92   93 2    
   184   92   94 am   BACKBONE|DICT|INTERRES
   185   94   95 1    
   186   94  215 1    
   187   95   96 1    
   188   95   97 1    
   189   95  216 1    
   190   96  217 1    
   191   96  218 1    
   192   96  219 1    
   193   97   98 2    
   194   97   99 am   BACKBONE|DICT|INTERRES
   195   99  100 1    
   196   99  220 1    
   197  100  101 1    
   198  100  102 1    
   199  100  221 1    
   200  101  222 1    
   201  101  223 1    
   202  101  224 1    
   203  102  103 2    
   204  102  104 am   BACKBONE|DICT|INTERRES
   205  104  105 1    
   206  104  225 1    
   207  105  106 1    
   208  105  107 1    
   209  105  226 1    
   210  106  227 1    
   211  106  228 1    
   212  106  229 1    
   213  107  108 2    
   214  107  109 am   BACKBONE|DICT|INTERRES
   215  109  110 1    
   216  109  230 1    
   217  110  111 1    
   218  110  112 1    
   219  110  231 1    
   220  111  232 1    
   221  111  233 1    
   222  111  234 1    
   223  112  113 2    
   224  112  114 am   BACKBONE|DICT|INTERRES
   225  114  115 1    
   226  114  235 1    
   227  115  116 1    
   228  115  117 1    
   229  115  236 1    
   230  116  237 1    
   231  116  238 1    
   232  116  239 1    
   233  117  118 2    
   234  117  119 am   BACKBONE|DICT|INTERRES
   235  119  120 1    
   236  119  240 1    
   237  120  121 1    
   238  120  124 1    
   239  120  241 1    
   240  121  122 am   BACKBONE|DICT|INTERRES
   241  121  123 2    
   242  122  242 1    
   243  122  243 1    
   244  124  125 1    
   245  124  244 1    
   246  124  245 1    
   247  125  126 1    
   248  126  246 1    
   249  126  247 1    
@<TRIPOS>SUBSTRUCTURE
     1 UNK         1 GROUP             0       ****    0 ROOT    
