@<TRIPOS>MOLECULE
3R540
247   249    1
SMALL
USER_CHARGES


@<TRIPOS>ATOM
      1 CA          6.3069  -15.1554  -47.4692 C.3       0 UNK        -0.1800 
      2 C           4.9716  -15.8329  -47.7427 C.2       0 UNK         0.5000 
      3 O           4.8998  -17.0606  -47.7440 O.2       0 UNK        -0.5000 
      4 N           3.9237  -15.0368  -47.9773 N.am      1 UNK        -0.5000 
      5 CA          2.5505  -15.4955  -48.1822 C.3       1 UNK         0.1400 
      6 C6          1.8442  -14.6898  -49.2994 C.3       23 UNK        -0.0398 
      7 S7          2.3930  -15.2487  -50.9432 S.3       23 UNK        -0.2404 
      8 C8          0.9362  -16.1880  -51.5106 C.3       23 UNK        -0.0205 
      9 C9          0.5135  -17.2878  -50.5429 C.ar      23 UNK        -0.0193 
     10 C10        -0.7423  -17.2374  -49.9291 C.ar      23 UNK        -0.1150 
     11 C11        -1.1703  -18.2769  -49.0997 C.ar      23 UNK        -0.0193 
     12 C12        -0.3189  -19.3584  -48.8647 C.ar      23 UNK        -0.1150 
     13 C13         0.9504  -19.4112  -49.4469 C.ar      23 UNK        -0.0193 
     14 C14         1.3575  -18.3738  -50.2911 C.ar      23 UNK        -0.1150 
     15 C15         1.8519  -20.6189  -49.2284 C.3       23 UNK        -0.0205 
     16 S16         2.8692  -20.5162  -47.7165 S.3       23 UNK        -0.2404 
     17 C17         1.6984  -20.8217  -46.3471 C.3       23 UNK        -0.0398 
     18 CA          1.2812  -22.3115  -46.1756 C.3       11 UNK         0.1400 
     19 N           1.1693  -22.7072  -44.7665 N.am      11 UNK        -0.5000 
     20 C           0.9954  -23.9720  -44.3435 C.2       10 UNK         0.5000 
     21 O           1.0079  -24.9470  -45.0927 O.2       10 UNK        -0.5000 
     22 CA          0.7160  -24.1955  -42.8421 C.3       10 UNK         0.1400 
     23 CB          2.0269  -24.4650  -42.0887 C.3       10 UNK        -0.1800 
     24 N           0.0231  -23.0781  -42.2028 N.am      10 UNK        -0.5000 
     25 C          -1.1556  -22.5644  -42.5816 C.2       9 UNK         0.5000 
     26 O          -1.8760  -23.0785  -43.4371 O.2       9 UNK        -0.5000 
     27 CA         -1.5681  -21.2163  -41.9509 C.3       9 UNK         0.1400 
     28 CB         -2.6995  -21.4257  -40.9339 C.3       9 UNK        -0.1800 
     29 N          -0.4727  -20.4788  -41.3037 N.am      9 UNK        -0.5000 
     30 C           0.6585  -20.0703  -41.8967 C.2       8 UNK         0.5000 
     31 O           0.9213  -20.2845  -43.0837 O.2       8 UNK        -0.5000 
     32 CA          1.6972  -19.3993  -40.9789 C.3       8 UNK         0.1400 
     33 CB          2.3499  -20.4450  -40.0591 C.3       8 UNK        -0.1800 
     34 N           2.7527  -18.7437  -41.7479 N.am      8 UNK        -0.5000 
     35 C           2.6260  -17.5613  -42.3568 C.2       7 UNK         0.5000 
     36 O           1.6271  -16.8414  -42.2669 O.2       7 UNK        -0.5000 
     37 CA          3.8218  -17.1156  -43.2094 C.3       7 UNK         0.1400 
     38 CB          3.8965  -17.9067  -44.5257 C.3       7 UNK        -0.1800 
     39 N           3.6870  -15.6934  -43.4945 N.am      7 UNK        -0.5000 
     40 C           4.6852  -14.8117  -43.6107 C.2       6 UNK         0.5000 
     41 O           5.8757  -15.1256  -43.5810 O.2       6 UNK        -0.5000 
     42 CA          4.2969  -13.3278  -43.7707 C.3       6 UNK         0.1400 
     43 CB          4.8248  -12.7469  -45.0917 C.3       6 UNK        -0.1800 
     44 N           2.8485  -13.1223  -43.7202 N.am      6 UNK        -0.5000 
     45 C           2.1523  -12.7926  -42.6237 C.2       5 UNK         0.5000 
     46 O           2.6692  -12.6310  -41.5170 O.2       5 UNK        -0.5000 
     47 CA          0.6239  -12.6351  -42.7905 C.3       5 UNK         0.1400 
     48 CB          0.0056  -11.6539  -41.7731 C.3       5 UNK        -0.1800 
     49 N           0.2180  -12.2991  -44.1604 N.am      5 UNK        -0.5000 
     50 C           0.5286  -11.1978  -44.8651 C.2       4 UNK         0.5000 
     51 O           1.1552  -10.2443  -44.4020 O.2       4 UNK        -0.5000 
     52 CA          0.1021  -11.1639  -46.3480 C.3       4 UNK         0.1400 
     53 CB          1.3266  -10.9716  -47.2601 C.3       4 UNK        -0.1800 
     54 N          -0.5817  -12.3931  -46.7526 N.am      4 UNK        -0.5000 
     55 C          -1.9102  -12.5656  -46.7876 C.2       3 UNK         0.5000 
     56 O          -2.7234  -11.6742  -46.5437 O.2       3 UNK        -0.5000 
     57 CA         -2.4169  -13.9824  -47.1325 C.3       3 UNK         0.1400 
     58 CB         -2.7435  -14.0772  -48.6313 C.3       3 UNK        -0.1800 
     59 N          -1.4672  -15.0433  -46.7772 N.am      3 UNK        -0.5000 
     60 C          -1.0860  -15.3459  -45.5264 C.2       2 UNK         0.5000 
     61 O          -1.5523  -14.8065  -44.5242 O.2       2 UNK        -0.5000 
     62 CA          0.0740  -16.3475  -45.3724 C.3       2 UNK         0.1400 
     63 CB         -0.4366  -17.7654  -45.0894 C.3       2 UNK        -0.1800 
     64 N           0.9702  -16.3672  -46.5315 N.am      2 UNK        -0.5000 
     65 C           1.7756  -15.3511  -46.8662 C.2       1 UNK         0.5000 
     66 O           1.8569  -14.3046  -46.2168 O.2       1 UNK        -0.5000 
     67 C          -0.0359  -22.6117  -46.9196 C.2       11 UNK         0.5000 
     68 O          -0.0218  -23.2982  -47.9397 O.2       11 UNK        -0.5000 
     69 N          -1.1536  -22.1141  -46.3672 N.am      12 UNK        -0.5000 
     70 CA         -2.5067  -22.2831  -46.9022 C.3       12 UNK         0.1400 
     71 CB         -3.4927  -21.4622  -46.0555 C.3       12 UNK        -0.1800 
     72 C          -2.9290  -23.7611  -46.9660 C.2       12 UNK         0.5000 
     73 O          -3.4663  -24.2003  -47.9845 O.2       12 UNK        -0.5000 
     74 N          -2.6278  -24.4985  -45.8873 N.am      13 UNK        -0.5000 
     75 CA         -2.8809  -25.9311  -45.7394 C.3       13 UNK         0.1400 
     76 CB         -2.5584  -26.3527  -44.2988 C.3       13 UNK        -0.1800 
     77 C          -2.1049  -26.8073  -46.7409 C.2       13 UNK         0.5000 
     78 O          -2.6102  -27.8599  -47.1326 O.2       13 UNK        -0.5000 
     79 N          -0.9207  -26.3557  -47.1785 N.am      14 UNK        -0.5000 
     80 CA         -0.0769  -27.0060  -48.1861 C.3       14 UNK         0.1400 
     81 CB          1.3844  -26.5678  -47.9816 C.3       14 UNK        -0.1800 
     82 C          -0.5803  -26.7584  -49.6265 C.2       14 UNK         0.5000 
     83 O           0.2009  -26.3925  -50.5055 O.2       14 UNK        -0.5000 
     84 N          -1.8890  -26.9581  -49.8326 N.am      15 UNK        -0.5000 
     85 CA         -2.6605  -26.8739  -51.0777 C.3       15 UNK         0.1400 
     86 CB         -2.1507  -27.9033  -52.1062 C.3       15 UNK        -0.1800 
     87 C          -2.7858  -25.4689  -51.7033 C.2       15 UNK         0.5000 
     88 O          -3.5028  -25.3307  -52.6947 O.2       15 UNK        -0.5000 
     89 N          -2.1396  -24.4423  -51.1322 N.am      16 UNK        -0.5000 
     90 CA         -2.1576  -23.0709  -51.6501 C.3       16 UNK         0.1400 
     91 CB         -1.1244  -22.2187  -50.9044 C.3       16 UNK        -0.1800 
     92 C          -3.5495  -22.4168  -51.5940 C.2       16 UNK         0.5000 
     93 O          -3.8677  -21.6072  -52.4659 O.2       16 UNK        -0.5000 
     94 N          -4.3715  -22.8193  -50.6143 N.am      17 UNK        -0.5000 
     95 CA         -5.7597  -22.3834  -50.4429 C.3       17 UNK         0.1400 
     96 CB         -6.2577  -22.8491  -49.0664 C.3       17 UNK        -0.1800 
     97 C          -6.7259  -22.8506  -51.5537 C.2       17 UNK         0.5000 
     98 O          -7.8689  -22.3924  -51.5770 O.2       17 UNK        -0.5000 
     99 N          -6.2781  -23.7446  -52.4503 N.am      18 UNK        -0.5000 
    100 CA        -7.0327  -24.1732  -53.6305 C.3       18 UNK         0.1400 
    101 CB        -6.3623  -25.4097  -54.2471 C.3       18 UNK        -0.1800 
    102 C         -7.1808  -23.0576  -54.6849 C.2       18 UNK         0.5000 
    103 O         -8.1539  -23.0699  -55.4404 O.2       18 UNK        -0.5000 
    104 N         -6.2330  -22.1097  -54.7130 N.am      19 UNK        -0.5000 
    105 CA        -6.3208  -20.8884  -55.5088 C.3       19 UNK         0.1400 
    106 CB        -4.9066  -20.3377  -55.7444 C.3       19 UNK        -0.1800 
    107 C         -7.1827  -19.8538  -54.7683 C.2       19 UNK         0.5000 
    108 O         -7.0287  -19.6964  -53.5559 O.2       19 UNK        -0.5000 
    109 N         -8.0402  -19.1356  -55.5051 N.am      20 UNK        -0.5000 
    110 CA        -8.9711  -18.1376  -54.9621 C.3       20 UNK         0.1400 
    111 CB        -9.9100  -17.6627  -56.0815 C.3       20 UNK        -0.1800 
    112 C         -8.2791  -16.9340  -54.2907 C.2       20 UNK         0.5000 
    113 O         -8.8147  -16.3812  -53.3295 O.2       20 UNK        -0.5000 
    114 N         -7.0935  -16.5697  -54.7953 N.am      21 UNK        -0.5000 
    115 CA        -6.2326  -15.5235  -54.2392 C.3       21 UNK         0.1400 
    116 CB        -5.4148  -14.9102  -55.3879 C.3       21 UNK        -0.1800 
    117 C         -5.2940  -16.0397  -53.1273 C.2       21 UNK         0.5000 
    118 O         -4.6412  -15.2232  -52.4767 O.2       21 UNK        -0.5000 
    119 N         -5.2387  -17.3665  -52.9389 N.am      22 UNK        -0.5000 
    120 CA        -4.2868  -18.1212  -52.1122 C.3       22 UNK         0.1400 
    121 C         -2.8616  -18.1371  -52.7345 C.2       22 UNK         0.5000 
    122 N         -2.3387  -19.3109  -53.0552 N.am      22 UNK        -0.7600 
    123 O         -2.2240  -17.1053  -52.9255 O.2       22 UNK        -0.5000 
    124 C124       -4.2904  -17.6877  -50.6231 C.3       23 UNK        -0.0398 
    125 S125       -3.8116  -19.0442  -49.4973 S.3       23 UNK        -0.2404 
    126 C126       -2.5499  -18.2469  -48.4586 C.3       23 UNK        -0.0205 
    127 H127        6.6181  -15.3453  -46.4419 H         1 UNK         0.0600 
    128 H128        6.2528  -14.0764  -47.6157 H         1 UNK         0.0600 
    129 H129        7.0725  -15.5495  -48.1375 H         1 UNK         0.0600 
    130 H130        4.0422  -14.0352  -47.9386 H         1 UNK         0.3000 
    131 H131        2.5473  -16.5526  -48.4555 H         1 UNK         0.0600 
    132 H132        2.0507  -13.6224  -49.2028 H         1 UNK         0.0800 
    133 H133        0.7586  -14.7848  -49.2447 H         1 UNK         0.0800 
    134 H134        0.1135  -15.4931  -51.6876 H         1 UNK         0.0800 
    135 H135        1.1615  -16.6388  -52.4779 H         1 UNK         0.0800 
    136 H136       -1.4009  -16.4056  -50.1314 H         1 UNK         0.1150 
    137 H137       -0.6596  -20.1712  -48.2444 H         1 UNK         0.1150 
    138 H138        2.3272  -18.4161  -50.7671 H         1 UNK         0.1150 
    139 H139        1.2637  -21.5331  -49.2296 H         1 UNK         0.0800 
    140 H140        2.5293  -20.7182  -50.0777 H         1 UNK         0.0800 
    141 H141        0.8451  -20.1500  -46.4302 H         1 UNK         0.0800 
    142 H142        2.2228  -20.4889  -45.4506 H         1 UNK         0.0800 
    143 H143        2.0579  -22.9424  -46.6137 H         1 UNK         0.0600 
    144 H144        1.1338  -21.9523  -44.0873 H         1 UNK         0.3000 
    145 H145        0.0790  -25.0763  -42.7485 H         1 UNK         0.0600 
    146 H146        1.8392  -24.7033  -41.0415 H         1 UNK         0.0600 
    147 H147        2.5596  -25.3120  -42.5230 H         1 UNK         0.0600 
    148 H148        2.6952  -23.6036  -42.1235 H         1 UNK         0.0600 
    149 H149        0.5365  -22.5851  -41.4886 H         1 UNK         0.3000 
    150 H150       -1.9481  -20.5913  -42.7616 H         1 UNK         0.0600 
    151 H151       -2.3692  -22.0221  -40.0825 H         1 UNK         0.0600 
    152 H152       -3.5448  -21.9437  -41.3894 H         1 UNK         0.0600 
    153 H153       -3.0715  -20.4737  -40.5547 H         1 UNK         0.0600 
    154 H154       -0.5987  -20.2815  -40.3212 H         1 UNK         0.3000 
    155 H155        1.1873  -18.6548  -40.3636 H         1 UNK         0.0600 
    156 H156        2.8532  -21.2269  -40.6298 H         1 UNK         0.0600 
    157 H157        1.6113  -20.9292  -39.4191 H         1 UNK         0.0600 
    158 H158        3.0879  -19.9842  -39.4021 H         1 UNK         0.0600 
    159 H159        3.5895  -19.2859  -41.9042 H         1 UNK         0.3000 
    160 H160        4.7302  -17.2888  -42.6284 H         1 UNK         0.0600 
    161 H161        3.9847  -18.9776  -44.3407 H         1 UNK         0.0600 
    162 H162        4.7674  -17.6098  -45.1089 H         1 UNK         0.0600 
    163 H163        3.0109  -17.7532  -45.1420 H         1 UNK         0.0600 
    164 H164        2.7370  -15.3496  -43.4580 H         1 UNK         0.3000 
    165 H165        4.7770  -12.7842  -42.9546 H         1 UNK         0.0600 
    166 H166        4.6256  -11.6770  -45.1551 H         1 UNK         0.0600 
    167 H167        5.9033  -12.8823  -45.1818 H         1 UNK         0.0600 
    168 H168        4.3572  -13.2213  -45.9519 H         1 UNK         0.0600 
    169 H169        2.3498  -13.2873  -44.5896 H         1 UNK         0.3000 
    170 H170        0.2027  -13.6210  -42.5886 H         1 UNK         0.0600 
    171 H171        0.1689  -11.9962  -40.7506 H         1 UNK         0.0600 
    172 H172        0.4382  -10.6566  -41.8551 H         1 UNK         0.0600 
    173 H173       -1.0715  -11.5661  -41.9153 H         1 UNK         0.0600 
    174 H174       -0.3322  -13.0114  -44.6228 H         1 UNK         0.3000 
    175 H175       -0.5591  -10.3051  -46.4796 H         1 UNK         0.0600 
    176 H176        1.8296  -10.0276  -47.0472 H         1 UNK         0.0600 
    177 H177        2.0594  -11.7682  -47.1277 H         1 UNK         0.0600 
    178 H178        1.0370  -10.9529  -48.3108 H         1 UNK         0.0600 
    179 H179        0.0182  -13.1872  -46.9264 H         1 UNK         0.3000 
    180 H180       -3.3372  -14.1479  -46.5684 H         1 UNK         0.0600 
    181 H181       -1.8475  -13.9953  -49.2477 H         1 UNK         0.0600 
    182 H182       -3.4220  -13.2787  -48.9349 H         1 UNK         0.0600 
    183 H183       -3.2363  -15.0176  -48.8715 H         1 UNK         0.0600 
    184 H184       -1.0318  -15.5372  -47.5402 H         1 UNK         0.3000 
    185 H185        0.6546  -16.0210  -44.5091 H         1 UNK         0.0600 
    186 H186       -1.1164  -17.7766  -44.2364 H         1 UNK         0.0600 
    187 H187       -0.9646  -18.1871  -45.9420 H         1 UNK         0.0600 
    188 H188        0.3931  -18.4265  -44.8456 H         1 UNK         0.0600 
    189 H189        0.9500  -17.1956  -47.1095 H         1 UNK         0.3000 
    190 H190       -1.0806  -21.6295  -45.4852 H         1 UNK         0.3000 
    191 H191       -2.5237  -21.8819  -47.9160 H         1 UNK         0.0600 
    192 H192       -3.1850  -20.4199  -45.9831 H         1 UNK         0.0600 
    193 H193       -4.4895  -21.4734  -46.4952 H         1 UNK         0.0600 
    194 H194       -3.5823  -21.8508  -45.0412 H         1 UNK         0.0600 
    195 H195       -2.2195  -24.0265  -45.0847 H         1 UNK         0.3000 
    196 H196       -3.9460  -26.0957  -45.9143 H         1 UNK         0.0600 
    197 H197       -2.8073  -27.4017  -44.1338 H         1 UNK         0.0600 
    198 H198       -3.1258  -25.7651  -43.5766 H         1 UNK         0.0600 
    199 H199       -1.4990  -26.2282  -44.0758 H         1 UNK         0.0600 
    200 H200       -0.5804  -25.4710  -46.8234 H         1 UNK         0.3000 
    201 H201       -0.1154  -28.0851  -48.0241 H         1 UNK         0.0600 
    202 H202        2.0492  -27.0723  -48.6836 H         1 UNK         0.0600 
    203 H203        1.7315  -26.8138  -46.9781 H         1 UNK         0.0600 
    204 H204        1.5075  -25.4941  -48.1244 H         1 UNK         0.0600 
    205 H205       -2.4229  -27.2475  -49.0192 H         1 UNK         0.3000 
    206 H206       -3.6769  -27.1627  -50.8064 H         1 UNK         0.0600 
    207 H207       -2.1166  -28.9053  -51.6786 H         1 UNK         0.0600 
    208 H208       -2.8072  -27.9462  -52.9762 H         1 UNK         0.0600 
    209 H209       -1.1516  -27.6568  -52.4664 H         1 UNK         0.0600 
    210 H210       -1.5699  -24.6212  -50.3172 H         1 UNK         0.3000 
    211 H211       -1.8605  -23.1121  -52.7001 H         1 UNK         0.0600 
    212 H212       -1.3810  -22.1119  -49.8530 H         1 UNK         0.0600 
    213 H213       -1.0622  -21.2145  -51.3249 H         1 UNK         0.0600 
    214 H214       -0.1297  -22.6600  -50.9653 H         1 UNK         0.0600 
    215 H215       -4.0218  -23.4824  -49.9313 H         1 UNK         0.3000 
    216 H216       -5.7697  -21.2917  -50.4573 H         1 UNK         0.0600 
    217 H217       -7.2854  -22.5302  -48.8878 H         1 UNK         0.0600 
    218 H218       -5.6489  -22.4286  -48.2681 H         1 UNK         0.0600 
    219 H219       -6.2280  -23.9356  -48.9753 H         1 UNK         0.0600 
    220 H220       -5.3305  -24.0925  -52.3691 H         1 UNK         0.3000 
    221 H221       -8.0357  -24.4585  -53.3063 H         1 UNK         0.0600 
    222 H222       -5.3697  -25.1770  -54.6342 H         1 UNK         0.0600 
    223 H223       -6.2588  -26.2115  -53.5158 H         1 UNK         0.0600 
    224 H224       -6.9531  -25.7995  -55.0768 H         1 UNK         0.0600 
    225 H225       -5.5032  -22.1337  -54.0118 H         1 UNK         0.3000 
    226 H226       -6.7717  -21.1142  -56.4775 H         1 UNK         0.0600 
    227 H227       -4.9338  -19.4335  -56.3535 H         1 UNK         0.0600 
    228 H228       -4.4125  -20.0864  -54.8061 H         1 UNK         0.0600 
    229 H229       -4.2825  -21.0635  -56.2658 H         1 UNK         0.0600 
    230 H230       -8.1024  -19.3123  -56.4977 H         1 UNK         0.3000 
    231 H231       -9.5757  -18.6315  -54.1983 H         1 UNK         0.0600 
    232 H232       -9.3597  -17.1866  -56.8940 H         1 UNK         0.0600 
    233 H233      -10.6318  -16.9367  -55.7045 H         1 UNK         0.0600 
    234 H234      -10.4773  -18.4940  -56.5007 H         1 UNK         0.0600 
    235 H235       -6.7367  -17.0742  -55.5936 H         1 UNK         0.3000 
    236 H236       -6.8521  -14.7353  -53.8058 H         1 UNK         0.0600 
    237 H237       -6.0653  -14.5007  -56.1609 H         1 UNK         0.0600 
    238 H238       -4.7861  -14.0942  -55.0293 H         1 UNK         0.0600 
    239 H239       -4.7601  -15.6477  -55.8539 H         1 UNK         0.0600 
    240 H240       -5.8743  -17.9475  -53.4708 H         1 UNK         0.3000 
    241 H241       -4.6768  -19.1387  -52.1495 H         1 UNK         0.0600 
    242 H242       -1.4155  -19.3457  -53.4545 H         1 UNK         0.3800 
    243 H243       -2.8628  -20.1691  -52.8985 H         1 UNK         0.3800 
    244 H244       -3.6625  -16.8103  -50.4709 H         1 UNK         0.0800 
    245 H245       -5.2959  -17.3841  -50.3294 H         1 UNK         0.0800 
    246 H246       -2.8486  -17.2270  -48.2193 H         1 UNK         0.0800 
    247 H247       -2.5216  -18.7772  -47.5082 H         1 UNK         0.0800 
@<TRIPOS>BOND
     1    1    2 1    
     2    1  127 1    
     3    1  128 1    
     4    1  129 1    
     5    2    3 2    
     6    2    4 am   BACKBONE|DICT|INTERRES
     7    4    5 1    
     8    4  130 1    
     9    5    6 1    
    10    5   65 1    
    11    5  131 1    
    12    6    7 1    
    13    6  132 1    
    14    6  133 1    
    15    7    8 1    
    16    8    9 1    
    17    8  134 1    
    18    8  135 1    
    19    9   10 ar   
    20    9   14 ar   
    21   10   11 ar   
    22   10  136 1    
    23   11   12 ar   
    24   11  126 1    
    25   12   13 ar   
    26   12  137 1    
    27   13   14 ar   
    28   13   15 1    
    29   14  138 1    
    30   15   16 1    
    31   15  139 1    
    32   15  140 1    
    33   16   17 1    
    34   17   18 1    
    35   17  141 1    
    36   17  142 1    
    37   18   19 1    
    38   18   67 1    
    39   18  143 1    
    40   19   20 am   BACKBONE|DICT|INTERRES
    41   19  144 1    
    42   20   21 2    
    43   20   22 1    
    44   22   23 1    
    45   22   24 1    
    46   22  145 1    
    47   23  146 1    
    48   23  147 1    
    49   23  148 1    
    50   24   25 am   BACKBONE|DICT|INTERRES
    51   24  149 1    
    52   25   26 2    
    53   25   27 1    
    54   27   28 1    
    55   27   29 1    
    56   27  150 1    
    57   28  151 1    
    58   28  152 1    
    59   28  153 1    
    60   29   30 am   BACKBONE|DICT|INTERRES
    61   29  154 1    
    62   30   31 2    
    63   30   32 1    
    64   32   33 1    
    65   32   34 1    
    66   32  155 1    
    67   33  156 1    
    68   33  157 1    
    69   33  158 1    
    70   34   35 am   BACKBONE|DICT|INTERRES
    71   34  159 1    
    72   35   36 2    
    73   35   37 1    
    74   37   38 1    
    75   37   39 1    
    76   37  160 1    
    77   38  161 1    
    78   38  162 1    
    79   38  163 1    
    80   39   40 am   BACKBONE|DICT|INTERRES
    81   39  164 1    
    82   40   41 2    
    83   40   42 1    
    84   42   43 1    
    85   42   44 1    
    86   42  165 1    
    87   43  166 1    
    88   43  167 1    
    89   43  168 1    
    90   44   45 am   BACKBONE|DICT|INTERRES
    91   44  169 1    
    92   45   46 2    
    93   45   47 1    
    94   47   48 1    
    95   47   49 1    
    96   47  170 1    
    97   48  171 1    
    98   48  172 1    
    99   48  173 1    
   100   49   50 am   BACKBONE|DICT|INTERRES
   101   49  174 1    
   102   50   51 2    
   103   50   52 1    
   104   52   53 1    
   105   52   54 1    
   106   52  175 1    
   107   53  176 1    
   108   53  177 1    
   109   53  178 1    
   110   54   55 am   BACKBONE|DICT|INTERRES
   111   54  179 1    
   112   55   56 2    
   113   55   57 1    
   114   57   58 1    
   115   57   59 1    
   116   57  180 1    
   117   58  181 1    
   118   58  182 1    
   119   58  183 1    
   120   59   60 am   BACKBONE|DICT|INTERRES
   121   59  184 1    
   122   60   61 2    
   123   60   62 1    
   124   62   63 1    
   125   62   64 1    
   126   62  185 1    
   127   63  186 1    
   128   63  187 1    
   129   63  188 1    
   130   64   65 am   BACKBONE|DICT|INTERRES
   131   64  189 1    
   132   65   66 2    
   133   67   68 2    
   134   67   69 am   BACKBONE|DICT|INTERRES
   135   69   70 1    
   136   69  190 1    
   137   70   71 1    
   138   70   72 1    
   139   70  191 1    
   140   71  192 1    
   141   71  193 1    
   142   71  194 1    
   143   72   73 2    
   144   72   74 am   BACKBONE|DICT|INTERRES
   145   74   75 1    
   146   74  195 1    
   147   75   76 1    
   148   75   77 1    
   149   75  196 1    
   150   76  197 1    
   151   76  198 1    
   152   76  199 1    
   153   77   78 2    
   154   77   79 am   BACKBONE|DICT|INTERRES
   155   79   80 1    
   156   79  200 1    
   157   80   81 1    
   158   80   82 1    
   159   80  201 1    
   160   81  202 1    
   161   81  203 1    
   162   81  204 1    
   163   82   83 2    
   164   82   84 am   BACKBONE|DICT|INTERRES
   165   84   85 1    
   166   84  205 1    
   167   85   86 1    
   168   85   87 1    
   169   85  206 1    
   170   86  207 1    
   171   86  208 1    
   172   86  209 1    
   173   87   88 2    
   174   87   89 am   BACKBONE|DICT|INTERRES
   175   89   90 1    
   176   89  210 1    
   177   90   91 1    
   178   90   92 1    
   179   90  211 1    
   180   91  212 1    
   181   91  213 1    
   182   91  214 1    
   183   92   93 2    
   184   92   94 am   BACKBONE|DICT|INTERRES
   185   94   95 1    
   186   94  215 1    
   187   95   96 1    
   188   95   97 1    
   189   95  216 1    
   190   96  217 1    
   191   96  218 1    
   192   96  219 1    
   193   97   98 2    
   194   97   99 am   BACKBONE|DICT|INTERRES
   195   99  100 1    
   196   99  220 1    
   197  100  101 1    
   198  100  102 1    
   199  100  221 1    
   200  101  222 1    
   201  101  223 1    
   202  101  224 1    
   203  102  103 2    
   204  102  104 am   BACKBONE|DICT|INTERRES
   205  104  105 1    
   206  104  225 1    
   207  105  106 1    
   208  105  107 1    
   209  105  226 1    
   210  106  227 1    
   211  106  228 1    
   212  106  229 1    
   213  107  108 2    
   214  107  109 am   BACKBONE|DICT|INTERRES
   215  109  110 1    
   216  109  230 1    
   217  110  111 1    
   218  110  112 1    
   219  110  231 1    
   220  111  232 1    
   221  111  233 1    
   222  111  234 1    
   223  112  113 2    
   224  112  114 am   BACKBONE|DICT|INTERRES
   225  114  115 1    
   226  114  235 1    
   227  115  116 1    
   228  115  117 1    
   229  115  236 1    
   230  116  237 1    
   231  116  238 1    
   232  116  239 1    
   233  117  118 2    
   234  117  119 am   BACKBONE|DICT|INTERRES
   235  119  120 1    
   236  119  240 1    
   237  120  121 1    
   238  120  124 1    
   239  120  241 1    
   240  121  122 am   BACKBONE|DICT|INTERRES
   241  121  123 2    
   242  122  242 1    
   243  122  243 1    
   244  124  125 1    
   245  124  244 1    
   246  124  245 1    
   247  125  126 1    
   248  126  246 1    
   249  126  247 1    
@<TRIPOS>SUBSTRUCTURE
     1 UNK         1 GROUP             0       ****    0 ROOT    
