@<TRIPOS>MOLECULE
3R540
247   249    1
SMALL
USER_CHARGES


@<TRIPOS>ATOM
      1 CA         -5.0312  -11.4805  -43.0228 C.3       0 UNK        -0.1800 
      2 C          -4.0686  -11.7943  -44.1585 C.2       0 UNK         0.5000 
      3 O          -3.2227  -10.9654  -44.4959 O.2       0 UNK        -0.5000 
      4 N          -4.1735  -12.9971  -44.7399 N.am      1 UNK        -0.5000 
      5 CA         -3.3537  -13.4647  -45.8671 C.3       1 UNK         0.1400 
      6 C6         -3.9786  -14.6647  -46.6147 C.3       23 UNK        -0.0398 
      7 S7         -4.4724  -16.0714  -45.5580 S.3       23 UNK        -0.2404 
      8 C8         -6.0287  -16.5813  -46.3654 C.3       23 UNK        -0.0205 
      9 C9         -5.7768  -17.3567  -47.6531 C.ar      23 UNK        -0.0193 
     10 C10        -5.4481  -16.6850  -48.8340 C.ar      23 UNK        -0.1150 
     11 C11        -5.1704  -17.3952  -50.0022 C.ar      23 UNK        -0.0193 
     12 C12        -5.2579  -18.7886  -49.9937 C.ar      23 UNK        -0.1150 
     13 C13        -5.6096  -19.4818  -48.8328 C.ar      23 UNK        -0.0193 
     14 C14        -5.8720  -18.7517  -47.6639 C.ar      23 UNK        -0.1150 
     15 C15        -5.6816  -21.0091  -48.9152 C.3       23 UNK        -0.0205 
     16 S16        -6.0502  -21.9030  -47.3648 S.3       23 UNK        -0.2404 
     17 C17        -4.5564  -21.5728  -46.3682 C.3       23 UNK        -0.0398 
     18 CA         -3.5327  -22.7322  -46.3006 C.3       11 UNK         0.1400 
     19 N          -2.2877  -22.2371  -45.6965 N.am      11 UNK        -0.5000 
     20 C          -1.2606  -22.9084  -45.1586 C.2       10 UNK         0.5000 
     21 O          -1.2292  -24.1316  -45.0425 O.2       10 UNK        -0.5000 
     22 CA         -0.0460  -22.0903  -44.6691 C.3       10 UNK         0.1400 
     23 CB          1.2185  -22.5219  -45.4298 C.3       10 UNK        -0.1800 
     24 N          -0.1811  -20.6340  -44.7810 N.am      10 UNK        -0.5000 
     25 C          -1.0309  -19.8503  -44.1018 C.2       9 UNK         0.5000 
     26 O          -1.8419  -20.2807  -43.2821 O.2       9 UNK        -0.5000 
     27 CA         -0.9873  -18.3362  -44.4008 C.3       9 UNK         0.1400 
     28 CB         -0.2731  -17.5868  -43.2677 C.3       9 UNK        -0.1800 
     29 N          -0.3465  -18.0021  -45.6770 N.am      9 UNK        -0.5000 
     30 C          -0.8644  -18.2798  -46.8827 C.2       8 UNK         0.5000 
     31 O          -1.9427  -18.8516  -47.0405 O.2       8 UNK        -0.5000 
     32 CA         -0.0159  -17.8956  -48.1077 C.3       8 UNK         0.1400 
     33 CB         -0.2752  -16.4409  -48.5153 C.3       8 UNK        -0.1800 
     34 N           1.4143  -18.0799  -47.8542 N.am      8 UNK        -0.5000 
     35 C           2.0598  -19.2475  -47.9959 C.2       7 UNK         0.5000 
     36 O           1.5339  -20.2750  -48.4173 O.2       7 UNK        -0.5000 
     37 CA          3.5430  -19.2958  -47.5809 C.3       7 UNK         0.1400 
     38 CB          4.4474  -18.9586  -48.7758 C.3       7 UNK        -0.1800 
     39 N           3.8699  -18.4037  -46.4704 N.am      7 UNK        -0.5000 
     40 C           3.3594  -18.4846  -45.2337 C.2       6 UNK         0.5000 
     41 O           2.5838  -19.3663  -44.8695 O.2       6 UNK        -0.5000 
     42 CA          3.7438  -17.3617  -44.2510 C.3       6 UNK         0.1400 
     43 CB          4.9092  -17.8073  -43.3558 C.3       6 UNK        -0.1800 
     44 N           4.0958  -16.0987  -44.9065 N.am      6 UNK        -0.5000 
     45 C           3.2812  -15.3815  -45.6931 C.2       5 UNK         0.5000 
     46 O           2.1223  -15.7175  -45.9523 O.2       5 UNK        -0.5000 
     47 CA          3.8958  -14.0950  -46.2752 C.3       5 UNK         0.1400 
     48 CB          5.1321  -14.3885  -47.1530 C.3       5 UNK        -0.1800 
     49 N           2.9240  -13.2545  -46.9774 N.am      5 UNK        -0.5000 
     50 C           2.3447  -13.4393  -48.1738 C.2       4 UNK         0.5000 
     51 O           2.5938  -14.3866  -48.9204 O.2       4 UNK        -0.5000 
     52 CA          1.3300  -12.3580  -48.6128 C.3       4 UNK         0.1400 
     53 CB          0.2252  -12.9136  -49.5310 C.3       4 UNK        -0.1800 
     54 N           0.7109  -11.7070  -47.4546 N.am      4 UNK        -0.5000 
     55 C           1.0955  -10.5408  -46.9132 C.2       3 UNK         0.5000 
     56 O           1.9616   -9.8174  -47.4050 O.2       3 UNK        -0.5000 
     57 CA          0.4434  -10.1262  -45.5744 C.3       3 UNK         0.1400 
     58 CB         -0.6890   -9.1184  -45.8204 C.3       3 UNK        -0.1800 
     59 N          -0.0844  -11.2558  -44.8049 N.am      3 UNK        -0.5000 
     60 C           0.6511  -12.2610  -44.3027 C.2       2 UNK         0.5000 
     61 O           1.8822  -12.2552  -44.2951 O.2       2 UNK        -0.5000 
     62 CA         -0.1013  -13.5053  -43.7773 C.3       2 UNK         0.1400 
     63 CB         -0.0890  -13.5414  -42.2422 C.3       2 UNK        -0.1800 
     64 N          -1.4879  -13.6037  -44.2463 N.am      2 UNK        -0.5000 
     65 C          -1.8629  -13.6833  -45.5318 C.2       1 UNK         0.5000 
     66 O          -1.0615  -13.8175  -46.4538 O.2       1 UNK        -0.5000 
     67 C          -4.1348  -24.0048  -45.6632 C.2       11 UNK         0.5000 
     68 O          -4.4594  -24.9446  -46.3932 O.2       11 UNK        -0.5000 
     69 N          -4.2432  -24.0253  -44.3278 N.am      12 UNK        -0.5000 
     70 CA         -4.8089  -25.1382  -43.5619 C.3       12 UNK         0.1400 
     71 CB         -5.0567  -24.6767  -42.1178 C.3       12 UNK        -0.1800 
     72 C          -3.9419  -26.4130  -43.5780 C.2       12 UNK         0.5000 
     73 O          -4.4905  -27.5151  -43.5544 O.2       12 UNK        -0.5000 
     74 N          -2.6143  -26.2456  -43.6213 N.am      13 UNK        -0.5000 
     75 CA         -1.6404  -27.3368  -43.6861 C.3       13 UNK         0.1400 
     76 CB         -0.3470  -26.8991  -42.9810 C.3       13 UNK        -0.1800 
     77 C          -1.3498  -27.7428  -45.1407 C.2       13 UNK         0.5000 
     78 O          -1.1646  -28.9270  -45.4218 O.2       13 UNK        -0.5000 
     79 N          -1.3307  -26.7493  -46.0383 N.am      14 UNK        -0.5000 
     80 CA         -1.0897  -26.8933  -47.4731 C.3       14 UNK         0.1400 
     81 CB         -0.7647  -25.5048  -48.0476 C.3       14 UNK        -0.1800 
     82 C          -2.2696  -27.5190  -48.2414 C.2       14 UNK         0.5000 
     83 O          -2.0893  -27.9008  -49.3969 O.2       14 UNK        -0.5000 
     84 N          -3.4536  -27.5766  -47.6129 N.am      15 UNK        -0.5000 
     85 CA         -4.7338  -28.0200  -48.1753 C.3       15 UNK         0.1400 
     86 CB         -4.7027  -29.5247  -48.5157 C.3       15 UNK        -0.1800 
     87 C          -5.1626  -27.1292  -49.3588 C.2       15 UNK         0.5000 
     88 O          -5.4738  -27.6254  -50.4422 O.2       15 UNK        -0.5000 
     89 N          -5.1194  -25.8122  -49.1160 N.am      16 UNK        -0.5000 
     90 CA         -5.4425  -24.7047  -50.0221 C.3       16 UNK         0.1400 
     91 CB         -6.8839  -24.8039  -50.5591 C.3       16 UNK        -0.1800 
     92 C          -4.4215  -24.4424  -51.1484 C.2       16 UNK         0.5000 
     93 O          -4.5674  -23.4431  -51.8537 O.2       16 UNK        -0.5000 
     94 N          -3.3670  -25.2659  -51.2693 N.am      17 UNK        -0.5000 
     95 CA         -2.2837  -25.0991  -52.2522 C.3       17 UNK         0.1400 
     96 CB         -1.3861  -26.3444  -52.2434 C.3       17 UNK        -0.1800 
     97 C          -1.4420  -23.8210  -52.0438 C.2       17 UNK         0.5000 
     98 O          -0.7688  -23.3707  -52.9717 O.2       17 UNK        -0.5000 
     99 N          -1.5464  -23.2301  -50.8450 N.am      18 UNK        -0.5000 
    100 CA        -0.9966  -21.9326  -50.4493 C.3       18 UNK         0.1400 
    101 CB        -1.3719  -21.6871  -48.9851 C.3       18 UNK        -0.1800 
    102 C         -1.4749  -20.7482  -51.3141 C.2       18 UNK         0.5000 
    103 O         -0.7978  -19.7222  -51.3494 O.2       18 UNK        -0.5000 
    104 N         -2.5953  -20.9165  -52.0359 N.am      19 UNK        -0.5000 
    105 CA        -3.1402  -19.9571  -53.0008 C.3       19 UNK         0.1400 
    106 CB        -4.4366  -20.5268  -53.5951 C.3       19 UNK        -0.1800 
    107 C         -2.1648  -19.5513  -54.1245 C.2       19 UNK         0.5000 
    108 O         -2.3147  -18.4663  -54.6851 O.2       19 UNK        -0.5000 
    109 N         -1.1586  -20.3929  -54.4032 N.am      20 UNK        -0.5000 
    110 CA        -0.0502  -20.0972  -55.3114 C.3       20 UNK         0.1400 
    111 CB         0.7989  -21.3648  -55.4878 C.3       20 UNK        -0.1800 
    112 C          0.8319  -18.9171  -54.8489 C.2       20 UNK         0.5000 
    113 O          1.3966  -18.2239  -55.6958 O.2       20 UNK        -0.5000 
    114 N          0.9240  -18.6897  -53.5294 N.am      21 UNK        -0.5000 
    115 CA         1.6725  -17.5784  -52.9361 C.3       21 UNK         0.1400 
    116 CB         2.0570  -17.9403  -51.4938 C.3       21 UNK        -0.1800 
    117 C          0.8965  -16.2473  -52.9710 C.2       21 UNK         0.5000 
    118 O          1.5138  -15.1899  -52.8413 O.2       21 UNK        -0.5000 
    119 N         -0.4290  -16.3132  -53.1527 N.am      22 UNK        -0.5000 
    120 CA        -1.3267  -15.1487  -53.2310 C.3       22 UNK         0.1400 
    121 C         -1.2553  -14.3709  -54.5791 C.2       22 UNK         0.5000 
    122 N         -0.5837  -14.8727  -55.6091 N.am      22 UNK        -0.7600 
    123 O         -1.8155  -13.2839  -54.6905 O.2       22 UNK        -0.5000 
    124 C124       -2.7941  -15.5224  -52.8957 C.3       23 UNK        -0.0398 
    125 S125       -2.9739  -16.3268  -51.2699 S.3       23 UNK        -0.2404 
    126 C126       -4.7623  -16.6552  -51.2652 C.3       23 UNK        -0.0205 
    127 H127       -4.4764  -11.2715  -42.1081 H         1 UNK         0.0600 
    128 H128       -5.7113  -12.3099  -42.8273 H         1 UNK         0.0600 
    129 H129       -5.6274  -10.6022  -43.2696 H         1 UNK         0.0600 
    130 H130       -4.8674  -13.6539  -44.4102 H         1 UNK         0.3000 
    131 H131       -3.3435  -12.6435  -46.5877 H         1 UNK         0.0600 
    132 H132       -4.8647  -14.2933  -47.1287 H         1 UNK         0.0800 
    133 H133       -3.3160  -15.0317  -47.4013 H         1 UNK         0.0800 
    134 H134       -6.6540  -15.7105  -46.5670 H         1 UNK         0.0800 
    135 H135       -6.5935  -17.1973  -45.6642 H         1 UNK         0.0800 
    136 H136       -5.3868  -15.6078  -48.8492 H         1 UNK         0.1150 
    137 H137       -5.0494  -19.3416  -50.8963 H         1 UNK         0.1150 
    138 H138       -6.1438  -19.2568  -46.7496 H         1 UNK         0.1150 
    139 H139       -4.7432  -21.3866  -49.3218 H         1 UNK         0.0800 
    140 H140       -6.4528  -21.2732  -49.6403 H         1 UNK         0.0800 
    141 H141       -4.8777  -21.2934  -45.3632 H         1 UNK         0.0800 
    142 H142       -4.0654  -20.6857  -46.7707 H         1 UNK         0.0800 
    143 H143       -3.2790  -23.0133  -47.3217 H         1 UNK         0.0600 
    144 H144       -2.1740  -21.2337  -45.7315 H         1 UNK         0.3000 
    145 H145        0.0913  -22.3308  -43.6133 H         1 UNK         0.0600 
    146 H146        2.1063  -22.0285  -45.0347 H         1 UNK         0.0600 
    147 H147        1.3860  -23.5965  -45.3445 H         1 UNK         0.0600 
    148 H148        1.1468  -22.2846  -46.4920 H         1 UNK         0.0600 
    149 H149        0.4932  -20.1735  -45.3785 H         1 UNK         0.3000 
    150 H150       -2.0194  -17.9817  -44.4440 H         1 UNK         0.0600 
    151 H151        0.7484  -17.9415  -43.1354 H         1 UNK         0.0600 
    152 H152       -0.7927  -17.7292  -42.3194 H         1 UNK         0.0600 
    153 H153       -0.2406  -16.5160  -43.4611 H         1 UNK         0.0600 
    154 H154        0.5397  -17.5172  -45.6336 H         1 UNK         0.3000 
    155 H155       -0.3242  -18.5288  -48.9410 H         1 UNK         0.0600 
    156 H156        0.0963  -15.7460  -47.7633 H         1 UNK         0.0600 
    157 H157       -1.3415  -16.2511  -48.6426 H         1 UNK         0.0600 
    158 H158        0.2141  -16.2017  -49.4597 H         1 UNK         0.0600 
    159 H159        1.9095  -17.2807  -47.4768 H         1 UNK         0.3000 
    160 H160        3.7614  -20.3170  -47.2616 H         1 UNK         0.0600 
    161 H161        4.2906  -17.9363  -49.1229 H         1 UNK         0.0600 
    162 H162        4.2485  -19.6255  -49.6157 H         1 UNK         0.0600 
    163 H163        5.5008  -19.0688  -48.5180 H         1 UNK         0.0600 
    164 H164        4.4978  -17.6408  -46.6740 H         1 UNK         0.3000 
    165 H165        2.8794  -17.1697  -43.6143 H         1 UNK         0.0600 
    166 H166        5.1347  -17.0570  -42.5978 H         1 UNK         0.0600 
    167 H167        5.8164  -17.9853  -43.9346 H         1 UNK         0.0600 
    168 H168        4.6671  -18.7331  -42.8320 H         1 UNK         0.0600 
    169 H169        5.0297  -15.7557  -44.7332 H         1 UNK         0.3000 
    170 H170        4.2272  -13.4987  -45.4240 H         1 UNK         0.0600 
    171 H171        5.9458  -14.8105  -46.5627 H         1 UNK         0.0600 
    172 H172        4.9093  -15.0995  -47.9491 H         1 UNK         0.0600 
    173 H173        5.5131  -13.4775  -47.6147 H         1 UNK         0.0600 
    174 H174        2.5836  -12.4794  -46.4244 H         1 UNK         0.3000 
    175 H175        1.8943  -11.6249  -49.1921 H         1 UNK         0.0600 
    176 H176       -0.3887  -13.6553  -49.0223 H         1 UNK         0.0600 
    177 H177       -0.4347  -12.1174  -49.8750 H         1 UNK         0.0600 
    178 H178        0.6468  -13.3887  -50.4179 H         1 UNK         0.0600 
    179 H179        0.0219  -12.2743  -46.9688 H         1 UNK         0.3000 
    180 H180        1.2119   -9.6395  -44.9706 H         1 UNK         0.0600 
    181 H181       -1.4963   -9.5579  -46.4078 H         1 UNK         0.0600 
    182 H182       -0.3253   -8.2442  -46.3621 H         1 UNK         0.0600 
    183 H183       -1.1139   -8.7650  -44.8806 H         1 UNK         0.0600 
    184 H184       -1.0942  -11.3142  -44.7370 H         1 UNK         0.3000 
    185 H185        0.4378  -14.3782  -44.1493 H         1 UNK         0.0600 
    186 H186       -0.5446  -14.4569  -41.8645 H         1 UNK         0.0600 
    187 H187        0.9317  -13.5063  -41.8589 H         1 UNK         0.0600 
    188 H188       -0.6297  -12.6952  -41.8167 H         1 UNK         0.0600 
    189 H189       -2.2101  -13.4745  -43.5532 H         1 UNK         0.3000 
    190 H190       -3.9223  -23.2259  -43.8011 H         1 UNK         0.3000 
    191 H191       -5.7737  -25.3940  -44.0055 H         1 UNK         0.0600 
    192 H192       -5.5022  -25.4753  -41.5231 H         1 UNK         0.0600 
    193 H193       -5.7419  -23.8293  -42.0864 H         1 UNK         0.0600 
    194 H194       -4.1299  -24.3787  -41.6258 H         1 UNK         0.0600 
    195 H195       -2.2449  -25.3079  -43.7287 H         1 UNK         0.3000 
    196 H196       -2.0319  -28.2112  -43.1619 H         1 UNK         0.0600 
    197 H197        0.0994  -26.0259  -43.4587 H         1 UNK         0.0600 
    198 H198       -0.5339  -26.6501  -41.9364 H         1 UNK         0.0600 
    199 H199        0.3955  -27.6980  -42.9973 H         1 UNK         0.0600 
    200 H200       -1.4340  -25.7964  -45.6957 H         1 UNK         0.3000 
    201 H201       -0.2216  -27.5402  -47.6141 H         1 UNK         0.0600 
    202 H202       -1.6149  -24.8289  -47.9551 H         1 UNK         0.0600 
    203 H203       -0.5025  -25.5651  -49.1038 H         1 UNK         0.0600 
    204 H204        0.0814  -25.0505  -47.5315 H         1 UNK         0.0600 
    205 H205       -3.5009  -27.1762  -46.6857 H         1 UNK         0.3000 
    206 H206       -5.4807  -27.8749  -47.3933 H         1 UNK         0.0600 
    207 H207       -4.4035  -30.1169  -47.6509 H         1 UNK         0.0600 
    208 H208       -5.6893  -29.8733  -48.8229 H         1 UNK         0.0600 
    209 H209       -4.0116  -29.7468  -49.3291 H         1 UNK         0.0600 
    210 H210       -4.8438  -25.5292  -48.1777 H         1 UNK         0.3000 
    211 H211       -5.3991  -23.8183  -49.3940 H         1 UNK         0.0600 
    212 H212       -7.1645  -23.8939  -51.0908 H         1 UNK         0.0600 
    213 H213       -7.5987  -24.9358  -49.7469 H         1 UNK         0.0600 
    214 H214       -7.0049  -25.6344  -51.2546 H         1 UNK         0.0600 
    215 H215       -3.3161  -26.0804  -50.6721 H         1 UNK         0.3000 
    216 H216       -2.7446  -25.0222  -53.2390 H         1 UNK         0.0600 
    217 H217       -0.8521  -26.4510  -51.2996 H         1 UNK         0.0600 
    218 H218       -0.6384  -26.2906  -53.0356 H         1 UNK         0.0600 
    219 H219       -1.9665  -27.2530  -52.4054 H         1 UNK         0.0600 
    220 H220       -2.1273  -23.6909  -50.1629 H         1 UNK         0.3000 
    221 H221        0.0909  -21.9862  -50.5301 H         1 UNK         0.0600 
    222 H222       -0.9941  -22.4766  -48.3368 H         1 UNK         0.0600 
    223 H223       -2.4503  -21.6108  -48.8607 H         1 UNK         0.0600 
    224 H224       -0.9503  -20.7524  -48.6265 H         1 UNK         0.0600 
    225 H225       -3.0937  -21.7947  -51.9554 H         1 UNK         0.3000 
    226 H226       -3.3788  -19.0470  -52.4517 H         1 UNK         0.0600 
    227 H227       -4.2508  -21.4492  -54.1470 H         1 UNK         0.0600 
    228 H228       -5.1689  -20.7477  -52.8186 H         1 UNK         0.0600 
    229 H229       -4.8972  -19.8172  -54.2836 H         1 UNK         0.0600 
    230 H230       -1.1068  -21.2689  -53.8979 H         1 UNK         0.3000 
    231 H231       -0.4747  -19.8305  -56.2814 H         1 UNK         0.0600 
    232 H232        1.2277  -21.6954  -54.5407 H         1 UNK         0.0600 
    233 H233        1.6234  -21.1912  -56.1806 H         1 UNK         0.0600 
    234 H234        0.2041  -22.1855  -55.8894 H         1 UNK         0.0600 
    235 H235        0.3892  -19.2622  -52.8830 H         1 UNK         0.3000 
    236 H236        2.5961  -17.4346  -53.5008 H         1 UNK         0.0600 
    237 H237        2.6324  -18.8651  -51.4566 H         1 UNK         0.0600 
    238 H238        2.6657  -17.1562  -51.0414 H         1 UNK         0.0600 
    239 H239        1.1766  -18.0684  -50.8658 H         1 UNK         0.0600 
    240 H240       -0.8629  -17.2174  -53.2733 H         1 UNK         0.3000 
    241 H241       -0.9984  -14.4400  -52.4679 H         1 UNK         0.0600 
    242 H242       -0.5419  -14.3570  -56.4741 H         1 UNK         0.3800 
    243 H243       -0.1197  -15.7645  -55.5327 H         1 UNK         0.3800 
    244 H244       -3.2031  -16.1832  -53.6611 H         1 UNK         0.0800 
    245 H245       -3.4219  -14.6295  -52.8946 H         1 UNK         0.0800 
    246 H246       -5.0333  -17.2357  -52.1483 H         1 UNK         0.0800 
    247 H247       -5.3056  -15.7117  -51.3363 H         1 UNK         0.0800 
@<TRIPOS>BOND
     1    1    2 1    
     2    1  127 1    
     3    1  128 1    
     4    1  129 1    
     5    2    3 2    
     6    2    4 am   BACKBONE|DICT|INTERRES
     7    4    5 1    
     8    4  130 1    
     9    5    6 1    
    10    5   65 1    
    11    5  131 1    
    12    6    7 1    
    13    6  132 1    
    14    6  133 1    
    15    7    8 1    
    16    8    9 1    
    17    8  134 1    
    18    8  135 1    
    19    9   10 ar   
    20    9   14 ar   
    21   10   11 ar   
    22   10  136 1    
    23   11   12 ar   
    24   11  126 1    
    25   12   13 ar   
    26   12  137 1    
    27   13   14 ar   
    28   13   15 1    
    29   14  138 1    
    30   15   16 1    
    31   15  139 1    
    32   15  140 1    
    33   16   17 1    
    34   17   18 1    
    35   17  141 1    
    36   17  142 1    
    37   18   19 1    
    38   18   67 1    
    39   18  143 1    
    40   19   20 am   BACKBONE|DICT|INTERRES
    41   19  144 1    
    42   20   21 2    
    43   20   22 1    
    44   22   23 1    
    45   22   24 1    
    46   22  145 1    
    47   23  146 1    
    48   23  147 1    
    49   23  148 1    
    50   24   25 am   BACKBONE|DICT|INTERRES
    51   24  149 1    
    52   25   26 2    
    53   25   27 1    
    54   27   28 1    
    55   27   29 1    
    56   27  150 1    
    57   28  151 1    
    58   28  152 1    
    59   28  153 1    
    60   29   30 am   BACKBONE|DICT|INTERRES
    61   29  154 1    
    62   30   31 2    
    63   30   32 1    
    64   32   33 1    
    65   32   34 1    
    66   32  155 1    
    67   33  156 1    
    68   33  157 1    
    69   33  158 1    
    70   34   35 am   BACKBONE|DICT|INTERRES
    71   34  159 1    
    72   35   36 2    
    73   35   37 1    
    74   37   38 1    
    75   37   39 1    
    76   37  160 1    
    77   38  161 1    
    78   38  162 1    
    79   38  163 1    
    80   39   40 am   BACKBONE|DICT|INTERRES
    81   39  164 1    
    82   40   41 2    
    83   40   42 1    
    84   42   43 1    
    85   42   44 1    
    86   42  165 1    
    87   43  166 1    
    88   43  167 1    
    89   43  168 1    
    90   44   45 am   BACKBONE|DICT|INTERRES
    91   44  169 1    
    92   45   46 2    
    93   45   47 1    
    94   47   48 1    
    95   47   49 1    
    96   47  170 1    
    97   48  171 1    
    98   48  172 1    
    99   48  173 1    
   100   49   50 am   BACKBONE|DICT|INTERRES
   101   49  174 1    
   102   50   51 2    
   103   50   52 1    
   104   52   53 1    
   105   52   54 1    
   106   52  175 1    
   107   53  176 1    
   108   53  177 1    
   109   53  178 1    
   110   54   55 am   BACKBONE|DICT|INTERRES
   111   54  179 1    
   112   55   56 2    
   113   55   57 1    
   114   57   58 1    
   115   57   59 1    
   116   57  180 1    
   117   58  181 1    
   118   58  182 1    
   119   58  183 1    
   120   59   60 am   BACKBONE|DICT|INTERRES
   121   59  184 1    
   122   60   61 2    
   123   60   62 1    
   124   62   63 1    
   125   62   64 1    
   126   62  185 1    
   127   63  186 1    
   128   63  187 1    
   129   63  188 1    
   130   64   65 am   BACKBONE|DICT|INTERRES
   131   64  189 1    
   132   65   66 2    
   133   67   68 2    
   134   67   69 am   BACKBONE|DICT|INTERRES
   135   69   70 1    
   136   69  190 1    
   137   70   71 1    
   138   70   72 1    
   139   70  191 1    
   140   71  192 1    
   141   71  193 1    
   142   71  194 1    
   143   72   73 2    
   144   72   74 am   BACKBONE|DICT|INTERRES
   145   74   75 1    
   146   74  195 1    
   147   75   76 1    
   148   75   77 1    
   149   75  196 1    
   150   76  197 1    
   151   76  198 1    
   152   76  199 1    
   153   77   78 2    
   154   77   79 am   BACKBONE|DICT|INTERRES
   155   79   80 1    
   156   79  200 1    
   157   80   81 1    
   158   80   82 1    
   159   80  201 1    
   160   81  202 1    
   161   81  203 1    
   162   81  204 1    
   163   82   83 2    
   164   82   84 am   BACKBONE|DICT|INTERRES
   165   84   85 1    
   166   84  205 1    
   167   85   86 1    
   168   85   87 1    
   169   85  206 1    
   170   86  207 1    
   171   86  208 1    
   172   86  209 1    
   173   87   88 2    
   174   87   89 am   BACKBONE|DICT|INTERRES
   175   89   90 1    
   176   89  210 1    
   177   90   91 1    
   178   90   92 1    
   179   90  211 1    
   180   91  212 1    
   181   91  213 1    
   182   91  214 1    
   183   92   93 2    
   184   92   94 am   BACKBONE|DICT|INTERRES
   185   94   95 1    
   186   94  215 1    
   187   95   96 1    
   188   95   97 1    
   189   95  216 1    
   190   96  217 1    
   191   96  218 1    
   192   96  219 1    
   193   97   98 2    
   194   97   99 am   BACKBONE|DICT|INTERRES
   195   99  100 1    
   196   99  220 1    
   197  100  101 1    
   198  100  102 1    
   199  100  221 1    
   200  101  222 1    
   201  101  223 1    
   202  101  224 1    
   203  102  103 2    
   204  102  104 am   BACKBONE|DICT|INTERRES
   205  104  105 1    
   206  104  225 1    
   207  105  106 1    
   208  105  107 1    
   209  105  226 1    
   210  106  227 1    
   211  106  228 1    
   212  106  229 1    
   213  107  108 2    
   214  107  109 am   BACKBONE|DICT|INTERRES
   215  109  110 1    
   216  109  230 1    
   217  110  111 1    
   218  110  112 1    
   219  110  231 1    
   220  111  232 1    
   221  111  233 1    
   222  111  234 1    
   223  112  113 2    
   224  112  114 am   BACKBONE|DICT|INTERRES
   225  114  115 1    
   226  114  235 1    
   227  115  116 1    
   228  115  117 1    
   229  115  236 1    
   230  116  237 1    
   231  116  238 1    
   232  116  239 1    
   233  117  118 2    
   234  117  119 am   BACKBONE|DICT|INTERRES
   235  119  120 1    
   236  119  240 1    
   237  120  121 1    
   238  120  124 1    
   239  120  241 1    
   240  121  122 am   BACKBONE|DICT|INTERRES
   241  121  123 2    
   242  122  242 1    
   243  122  243 1    
   244  124  125 1    
   245  124  244 1    
   246  124  245 1    
   247  125  126 1    
   248  126  246 1    
   249  126  247 1    
@<TRIPOS>SUBSTRUCTURE
     1 UNK         1 GROUP             0       ****    0 ROOT    
