@<TRIPOS>MOLECULE
3R540
247   249    1
SMALL
USER_CHARGES


@<TRIPOS>ATOM
      1 CA          6.5707  -13.4871  -50.4164 C.3       0 UNK        -0.1800 
      2 C           5.5777  -14.3655  -49.6697 C.2       0 UNK         0.5000 
      3 O           4.4064  -14.0023  -49.5592 O.2       0 UNK        -0.5000 
      4 N           6.0429  -15.5156  -49.1620 N.am      1 UNK        -0.5000 
      5 CA          5.3202  -16.5495  -48.4000 C.3       1 UNK         0.1400 
      6 C6          4.1214  -17.2048  -49.1427 C.3       23 UNK        -0.0398 
      7 S7          4.4658  -17.8080  -50.8363 S.3       23 UNK        -0.2404 
      8 C8          3.6539  -16.5707  -51.9129 C.3       23 UNK        -0.0205 
      9 C9          2.1312  -16.6600  -51.9161 C.ar      23 UNK        -0.0193 
     10 C10         1.4603  -17.3530  -52.9300 C.ar      23 UNK        -0.1150 
     11 C11         0.0605  -17.3743  -52.9754 C.ar      23 UNK        -0.0193 
     12 C12        -0.6659  -16.7438  -51.9590 C.ar      23 UNK        -0.1150 
     13 C13        -0.0073  -16.0808  -50.9217 C.ar      23 UNK        -0.0193 
     14 C14         1.3844  -15.9987  -50.9376 C.ar      23 UNK        -0.1150 
     15 C15        -0.7822  -15.4448  -49.7784 C.3       23 UNK        -0.0205 
     16 S16        -0.7118  -16.4782  -48.2760 S.3       23 UNK        -0.2404 
     17 C17        -2.0044  -17.7212  -48.6159 C.3       23 UNK        -0.0398 
     18 CA         -1.6077  -19.1548  -48.1803 C.3       11 UNK         0.1400 
     19 N          -1.5278  -19.3075  -46.7168 N.am      11 UNK        -0.5000 
     20 C          -1.2056  -20.4488  -46.0842 C.2       10 UNK         0.5000 
     21 O          -0.8559  -21.4652  -46.6823 O.2       10 UNK        -0.5000 
     22 CA         -1.3283  -20.5244  -44.5482 C.3       10 UNK         0.1400 
     23 CB          0.0066  -20.9419  -43.9124 C.3       10 UNK        -0.1800 
     24 N          -1.8200  -19.3053  -43.9078 N.am      10 UNK        -0.5000 
     25 C          -3.0861  -18.8676  -43.9387 C.2       9 UNK         0.5000 
     26 O          -3.9927  -19.4475  -44.5378 O.2       9 UNK        -0.5000 
     27 CA         -3.3707  -17.5355  -43.2155 C.3       9 UNK         0.1400 
     28 CB         -3.6969  -17.7717  -41.7334 C.3       9 UNK        -0.1800 
     29 N          -2.2516  -16.5967  -43.3272 N.am      9 UNK        -0.5000 
     30 C          -1.8774  -16.0167  -44.4764 C.2       8 UNK         0.5000 
     31 O          -2.5117  -16.1301  -45.5242 O.2       8 UNK        -0.5000 
     32 CA         -0.5602  -15.2175  -44.4633 C.3       8 UNK         0.1400 
     33 CB         -0.8024  -13.7792  -43.9803 C.3       8 UNK        -0.1800 
     34 N           0.4660  -15.8498  -43.6319 N.am      8 UNK        -0.5000 
     35 C           1.0493  -17.0279  -43.8974 C.2       7 UNK         0.5000 
     36 O           0.8517  -17.6696  -44.9269 O.2       7 UNK        -0.5000 
     37 CA          1.9753  -17.6102  -42.8119 C.3       7 UNK         0.1400 
     38 CB          3.4264  -17.1535  -43.0056 C.3       7 UNK        -0.1800 
     39 N           1.5304  -17.2661  -41.4625 N.am      7 UNK        -0.5000 
     40 C           0.4636  -17.8096  -40.8613 C.2       6 UNK         0.5000 
     41 O          -0.2372  -18.6798  -41.3754 O.2       6 UNK        -0.5000 
     42 CA          0.0957  -17.2538  -39.4732 C.3       6 UNK         0.1400 
     43 CB          0.9170  -17.9477  -38.3766 C.3       6 UNK        -0.1800 
     44 N           0.2918  -15.8056  -39.3841 N.am      6 UNK        -0.5000 
     45 C          -0.4313  -14.9044  -40.0636 C.2       5 UNK         0.5000 
     46 O          -1.3789  -15.2022  -40.7909 O.2       5 UNK        -0.5000 
     47 CA          0.0164  -13.4326  -39.9555 C.3       5 UNK         0.1400 
     48 CB         -0.6562  -12.7518  -38.7545 C.3       5 UNK        -0.1800 
     49 N           1.4722  -13.2659  -39.8576 N.am      5 UNK        -0.5000 
     50 C           2.3458  -13.6591  -40.7937 C.2       4 UNK         0.5000 
     51 O           2.0115  -14.2186  -41.8418 O.2       4 UNK        -0.5000 
     52 CA          3.8362  -13.4374  -40.4951 C.3       4 UNK         0.1400 
     53 CB          4.3117  -14.3420  -39.3429 C.3       4 UNK        -0.1800 
     54 N           4.5884  -13.7494  -41.7042 N.am      4 UNK        -0.5000 
     55 C           5.8097  -13.3157  -42.0297 C.2       3 UNK         0.5000 
     56 O           6.4885  -12.5861  -41.3057 O.2       3 UNK        -0.5000 
     57 CA          6.3785  -13.7788  -43.3896 C.3       3 UNK         0.1400 
     58 CB          7.4503  -14.8597  -43.1802 C.3       3 UNK        -0.1800 
     59 N           5.3676  -14.3031  -44.3137 N.am      3 UNK        -0.5000 
     60 C           4.4333  -13.5749  -44.9359 C.2       2 UNK         0.5000 
     61 O           4.3456  -12.3507  -44.8291 O.2       2 UNK        -0.5000 
     62 CA          3.4439  -14.3571  -45.8230 C.3       2 UNK         0.1400 
     63 CB          2.2875  -13.4815  -46.3360 C.3       2 UNK        -0.1800 
     64 N           4.0937  -14.9685  -46.9780 N.am      2 UNK        -0.5000 
     65 C           4.8667  -16.0599  -47.0045 C.2       1 UNK         0.5000 
     66 O           5.2113  -16.6754  -45.9956 O.2       1 UNK        -0.5000 
     67 C          -2.5750  -20.1807  -48.8149 C.2       11 UNK         0.5000 
     68 O          -2.2614  -20.7437  -49.8631 O.2       11 UNK        -0.5000 
     69 N          -3.7070  -20.4451  -48.1440 N.am      12 UNK        -0.5000 
     70 CA         -4.6738  -21.4616  -48.5545 C.3       12 UNK         0.1400 
     71 CB         -5.9770  -21.2884  -47.7618 C.3       12 UNK        -0.1800 
     72 C          -4.1253  -22.8912  -48.3999 C.2       12 UNK         0.5000 
     73 O          -4.2821  -23.7071  -49.3089 O.2       12 UNK        -0.5000 
     74 N          -3.4734  -23.1575  -47.2588 N.am      13 UNK        -0.5000 
     75 CA         -2.8671  -24.4445  -46.9082 C.3       13 UNK         0.1400 
     76 CB         -2.4237  -24.4184  -45.4380 C.3       13 UNK        -0.1800 
     77 C          -1.6924  -24.8280  -47.8257 C.2       13 UNK         0.5000 
     78 O          -1.5481  -26.0028  -48.1641 O.2       13 UNK        -0.5000 
     79 N          -0.9091  -23.8267  -48.2512 N.am      14 UNK        -0.5000 
     80 CA          0.1765  -23.9500  -49.2274 C.3       14 UNK         0.1400 
     81 CB          0.9218  -22.6099  -49.3249 C.3       14 UNK        -0.1800 
     82 C          -0.3068  -24.4030  -50.6196 C.2       14 UNK         0.5000 
     83 O           0.4423  -25.0679  -51.3352 O.2       14 UNK        -0.5000 
     84 N          -1.5635  -24.0835  -50.9525 N.am      15 UNK        -0.5000 
     85 CA         -2.2770  -24.5385  -52.1434 C.3       15 UNK         0.1400 
     86 CB         -3.0623  -23.3539  -52.7233 C.3       15 UNK        -0.1800 
     87 C          -3.1749  -25.7502  -51.8153 C.2       15 UNK         0.5000 
     88 O          -4.3133  -25.8264  -52.2808 O.2       15 UNK        -0.5000 
     89 N          -2.6512  -26.6707  -50.9912 N.am      16 UNK        -0.5000 
     90 CA         -3.2270  -27.9614  -50.5909 C.3       16 UNK         0.1400 
     91 CB         -3.2596  -28.9195  -51.8000 C.3       16 UNK        -0.1800 
     92 C          -4.5964  -27.8663  -49.8824 C.2       16 UNK         0.5000 
     93 O          -5.3702  -28.8236  -49.9251 O.2       16 UNK        -0.5000 
     94 N          -4.8799  -26.7081  -49.2674 N.am      17 UNK        -0.5000 
     95 CA         -6.1448  -26.3120  -48.6342 C.3       17 UNK         0.1400 
     96 CB         -6.5388  -27.2721  -47.4928 C.3       17 UNK        -0.1800 
     97 C          -7.2979  -26.0706  -49.6339 C.2       17 UNK         0.5000 
     98 O          -8.4237  -25.8205  -49.2008 O.2       17 UNK        -0.5000 
     99 N          -7.0092  -26.1085  -50.9432 N.am      18 UNK        -0.5000 
    100 CA        -7.9525  -25.7796  -52.0130 C.3       18 UNK         0.1400 
    101 CB        -7.5580  -26.5469  -53.2844 C.3       18 UNK        -0.1800 
    102 C         -7.9972  -24.2658  -52.2901 C.2       18 UNK         0.5000 
    103 O         -8.9853  -23.7840  -52.8461 O.2       18 UNK        -0.5000 
    104 N         -6.9325  -23.5524  -51.8924 N.am      19 UNK        -0.5000 
    105 CA        -6.6848  -22.1185  -52.0451 C.3       19 UNK         0.1400 
    106 CB        -7.7502  -21.2701  -51.3227 C.3       19 UNK        -0.1800 
    107 C         -6.4760  -21.7016  -53.5097 C.2       19 UNK         0.5000 
    108 O         -5.3481  -21.3835  -53.8859 O.2       19 UNK        -0.5000 
    109 N         -7.5524  -21.7185  -54.3077 N.am      20 UNK        -0.5000 
    110 CA        -7.6078  -21.3362  -55.7219 C.3       20 UNK         0.1400 
    111 CB        -6.9572  -22.4382  -56.5882 C.3       20 UNK        -0.1800 
    112 C         -7.0245  -19.9231  -55.9479 C.2       20 UNK         0.5000 
    113 O         -7.5513  -18.9592  -55.3879 O.2       20 UNK        -0.5000 
    114 N         -5.9248  -19.8253  -56.7074 N.am      21 UNK        -0.5000 
    115 CA        -5.1719  -18.5938  -56.9606 C.3       21 UNK         0.1400 
    116 CB        -4.0862  -18.8834  -58.0085 C.3       21 UNK        -0.1800 
    117 C         -4.5443  -17.9649  -55.6984 C.2       21 UNK         0.5000 
    118 O         -4.2967  -16.7584  -55.6923 O.2       21 UNK        -0.5000 
    119 N         -4.3138  -18.7758  -54.6582 N.am      22 UNK        -0.5000 
    120 CA        -3.8442  -18.3415  -53.3350 C.3       22 UNK         0.1400 
    121 C         -4.9982  -18.0577  -52.3288 C.2       22 UNK         0.5000 
    122 N         -6.2658  -18.1027  -52.7250 N.am      22 UNK        -0.7600 
    123 O         -4.7385  -17.7668  -51.1647 O.2       22 UNK        -0.5000 
    124 C124       -2.7969  -19.3210  -52.7371 C.3       23 UNK        -0.0398 
    125 S125       -1.3423  -19.6674  -53.7913 S.3       23 UNK        -0.2404 
    126 C126       -0.6572  -18.0171  -54.1575 C.3       23 UNK        -0.0205 
    127 H127        7.5671  -13.9291  -50.4400 H         1 UNK         0.0600 
    128 H128        6.6422  -12.5111  -49.9365 H         1 UNK         0.0600 
    129 H129        6.2396  -13.3397  -51.4444 H         1 UNK         0.0600 
    130 H130        7.0235  -15.7206  -49.2938 H         1 UNK         0.3000 
    131 H131        6.0554  -17.3369  -48.2263 H         1 UNK         0.0600 
    132 H132        3.7710  -18.0660  -48.5710 H         1 UNK         0.0800 
    133 H133        3.2808  -16.5224  -49.1583 H         1 UNK         0.0800 
    134 H134        3.9601  -15.5657  -51.6302 H         1 UNK         0.0800 
    135 H135        4.0267  -16.7116  -52.9284 H         1 UNK         0.0800 
    136 H136        2.0294  -17.8421  -53.7081 H         1 UNK         0.1150 
    137 H137       -1.7444  -16.7541  -51.9745 H         1 UNK         0.1150 
    138 H138        1.8752  -15.4120  -50.1766 H         1 UNK         0.1150 
    139 H139       -0.3538  -14.4674  -49.5516 H         1 UNK         0.0800 
    140 H140       -1.8212  -15.2640  -50.0588 H         1 UNK         0.0800 
    141 H141       -2.2235  -17.6979  -49.6842 H         1 UNK         0.0800 
    142 H142       -2.9232  -17.4082  -48.1169 H         1 UNK         0.0800 
    143 H143       -0.6146  -19.3697  -48.5807 H         1 UNK         0.0600 
    144 H144       -1.7581  -18.4925  -46.1652 H         1 UNK         0.3000 
    145 H145       -2.0497  -21.3156  -44.3346 H         1 UNK         0.0600 
    146 H146       -0.0675  -20.9976  -42.8264 H         1 UNK         0.0600 
    147 H147        0.3143  -21.9273  -44.2645 H         1 UNK         0.0600 
    148 H148        0.8051  -20.2467  -44.1655 H         1 UNK         0.0600 
    149 H149       -1.1475  -18.7870  -43.3563 H         1 UNK         0.3000 
    150 H150       -4.2453  -17.0814  -43.6861 H         1 UNK         0.0600 
    151 H151       -3.9394  -16.8357  -41.2297 H         1 UNK         0.0600 
    152 H152       -4.5572  -18.4332  -41.6248 H         1 UNK         0.0600 
    153 H153       -2.8626  -18.2293  -41.2022 H         1 UNK         0.0600 
    154 H154       -1.7279  -16.3964  -42.4824 H         1 UNK         0.3000 
    155 H155       -0.1810  -15.1767  -45.4859 H         1 UNK         0.0600 
    156 H156       -1.3050  -13.7557  -43.0140 H         1 UNK         0.0600 
    157 H157       -1.4318  -13.2367  -44.6865 H         1 UNK         0.0600 
    158 H158        0.1305  -13.2258  -43.8799 H         1 UNK         0.0600 
    159 H159        0.7528  -15.3474  -42.7978 H         1 UNK         0.3000 
    160 H160        1.9597  -18.6972  -42.9046 H         1 UNK         0.0600 
    161 H161        3.5183  -16.0704  -42.9717 H         1 UNK         0.0600 
    162 H162        3.8048  -17.4894  -43.9703 H         1 UNK         0.0600 
    163 H163        4.0800  -17.5707  -42.2394 H         1 UNK         0.0600 
    164 H164        2.0204  -16.5162  -40.9989 H         1 UNK         0.3000 
    165 H165       -0.9608  -17.4679  -39.2977 H         1 UNK         0.0600 
    166 H166        0.6123  -17.6130  -37.3849 H         1 UNK         0.0600 
    167 H167        0.7774  -19.0291  -38.4107 H         1 UNK         0.0600 
    168 H168        1.9844  -17.7508  -38.4847 H         1 UNK         0.0600 
    169 H169        1.0490  -15.4786  -38.8026 H         1 UNK         0.3000 
    170 H170       -0.3137  -12.9234  -40.8632 H         1 UNK         0.0600 
    171 H171       -1.7419  -12.8421  -38.8122 H         1 UNK         0.0600 
    172 H172       -0.3394  -13.1952  -37.8098 H         1 UNK         0.0600 
    173 H173       -0.4220  -11.6876  -38.7220 H         1 UNK         0.0600 
    174 H174        1.8178  -12.8182  -39.0209 H         1 UNK         0.3000 
    175 H175        3.9830  -12.3875  -40.2343 H         1 UNK         0.0600 
    176 H176        4.1633  -15.3977  -39.5740 H         1 UNK         0.0600 
    177 H177        5.3716  -14.1936  -39.1358 H         1 UNK         0.0600 
    178 H178        3.7730  -14.1268  -38.4196 H         1 UNK         0.0600 
    179 H179        4.0610  -14.2819  -42.3827 H         1 UNK         0.3000 
    180 H180        6.8514  -12.9127  -43.8570 H         1 UNK         0.0600 
    181 H181        7.0298  -15.7586  -42.7274 H         1 UNK         0.0600 
    182 H182        8.2457  -14.5023  -42.5249 H         1 UNK         0.0600 
    183 H183        7.9130  -15.1449  -44.1253 H         1 UNK         0.0600 
    184 H184        5.4118  -15.2941  -44.5284 H         1 UNK         0.3000 
    185 H185        3.0113  -15.1494  -45.2111 H         1 UNK         0.0600 
    186 H186        1.7698  -12.9920  -45.5116 H         1 UNK         0.0600 
    187 H187        2.6431  -12.7005  -47.0093 H         1 UNK         0.0600 
    188 H188        1.5518  -14.0776  -46.8765 H         1 UNK         0.0600 
    189 H189        3.9531  -14.4970  -47.8694 H         1 UNK         0.3000 
    190 H190       -3.8904  -19.9563  -47.2786 H         1 UNK         0.3000 
    191 H191       -4.8953  -21.2997  -49.6086 H         1 UNK         0.0600 
    192 H192       -6.4291  -20.3160  -47.9581 H         1 UNK         0.0600 
    193 H193       -6.7083  -22.0484  -48.0406 H         1 UNK         0.0600 
    194 H194       -5.8113  -21.3702  -46.6867 H         1 UNK         0.0600 
    195 H195       -3.3610  -22.4118  -46.5895 H         1 UNK         0.3000 
    196 H196       -3.6343  -25.2137  -47.0145 H         1 UNK         0.0600 
    197 H197       -2.0277  -25.3886  -45.1351 H         1 UNK         0.0600 
    198 H198       -3.2589  -24.1884  -44.7762 H         1 UNK         0.0600 
    199 H199       -1.6416  -23.6792  -45.2636 H         1 UNK         0.0600 
    200 H200       -1.0527  -22.9013  -47.8527 H         1 UNK         0.3000 
    201 H201        0.8728  -24.7051  -48.8572 H         1 UNK         0.0600 
    202 H202        1.3272  -22.3125  -48.3576 H         1 UNK         0.0600 
    203 H203        0.2666  -21.8105  -49.6724 H         1 UNK         0.0600 
    204 H204        1.7579  -22.6762  -50.0221 H         1 UNK         0.0600 
    205 H205       -2.1144  -23.5574  -50.2863 H         1 UNK         0.3000 
    206 H206       -1.5681  -24.8692  -52.9047 H         1 UNK         0.0600 
    207 H207       -2.3907  -22.5503  -53.0240 H         1 UNK         0.0600 
    208 H208       -3.6338  -23.6435  -53.6060 H         1 UNK         0.0600 
    209 H209       -3.7581  -22.9475  -51.9916 H         1 UNK         0.0600 
    210 H210       -1.7395  -26.4747  -50.6002 H         1 UNK         0.3000 
    211 H211       -2.5403  -28.3808  -49.8543 H         1 UNK         0.0600 
    212 H212       -3.9758  -28.5915  -52.5544 H         1 UNK         0.0600 
    213 H213       -3.5417  -29.9284  -51.4969 H         1 UNK         0.0600 
    214 H214       -2.2809  -28.9891  -52.2747 H         1 UNK         0.0600 
    215 H215       -4.1967  -25.9644  -49.3432 H         1 UNK         0.3000 
    216 H216       -5.9565  -25.3435  -48.1721 H         1 UNK         0.0600 
    217 H217       -7.3647  -26.8636  -46.9093 H         1 UNK         0.0600 
    218 H218       -5.7072  -27.4320  -46.8066 H         1 UNK         0.0600 
    219 H219       -6.8601  -28.2441  -47.8670 H         1 UNK         0.0600 
    220 H220       -6.0530  -26.2893  -51.2302 H         1 UNK         0.3000 
    221 H221       -8.9562  -26.0974  -51.7229 H         1 UNK         0.0600 
    222 H222       -6.5784  -26.2422  -53.6540 H         1 UNK         0.0600 
    223 H223       -7.5289  -27.6216  -53.1037 H         1 UNK         0.0600 
    224 H224       -8.2780  -26.3703  -54.0845 H         1 UNK         0.0600 
    225 H225       -6.1685  -24.0737  -51.4840 H         1 UNK         0.3000 
    226 H226       -5.7391  -21.9303  -51.5423 H         1 UNK         0.0600 
    227 H227       -7.8361  -21.5593  -50.2757 H         1 UNK         0.0600 
    228 H228       -7.4834  -20.2139  -51.3440 H         1 UNK         0.0600 
    229 H229       -8.7376  -21.3649  -51.7742 H         1 UNK         0.0600 
    230 H230       -8.4179  -22.0573  -53.9031 H         1 UNK         0.3000 
    231 H231       -8.6633  -21.2794  -55.9911 H         1 UNK         0.0600 
    232 H232       -5.9014  -22.5795  -56.3538 H         1 UNK         0.0600 
    233 H233       -7.0391  -22.2066  -57.6509 H         1 UNK         0.0600 
    234 H234       -7.4555  -23.3952  -56.4322 H         1 UNK         0.0600 
    235 H235       -5.5400  -20.6732  -57.0975 H         1 UNK         0.3000 
    236 H236       -5.8652  -17.8611  -57.3785 H         1 UNK         0.0600 
    237 H237       -4.5212  -19.2511  -58.9380 H         1 UNK         0.0600 
    238 H238       -3.5241  -17.9801  -58.2493 H         1 UNK         0.0600 
    239 H239       -3.3730  -19.6278  -57.6517 H         1 UNK         0.0600 
    240 H240       -4.5836  -19.7531  -54.7174 H         1 UNK         0.3000 
    241 H241       -3.3611  -17.3721  -53.4439 H         1 UNK         0.0600 
    242 H242       -6.5137  -18.3259  -53.6813 H         1 UNK         0.3800 
    243 H243       -6.9917  -17.8852  -52.0619 H         1 UNK         0.3800 
    244 H244       -2.4258  -18.9504  -51.7828 H         1 UNK         0.0800 
    245 H245       -3.2727  -20.2760  -52.5107 H         1 UNK         0.0800 
    246 H246        0.0417  -18.1298  -54.9876 H         1 UNK         0.0800 
    247 H247       -1.4338  -17.3517  -54.5331 H         1 UNK         0.0800 
@<TRIPOS>BOND
     1    1    2 1    
     2    1  127 1    
     3    1  128 1    
     4    1  129 1    
     5    2    3 2    
     6    2    4 am   BACKBONE|DICT|INTERRES
     7    4    5 1    
     8    4  130 1    
     9    5    6 1    
    10    5   65 1    
    11    5  131 1    
    12    6    7 1    
    13    6  132 1    
    14    6  133 1    
    15    7    8 1    
    16    8    9 1    
    17    8  134 1    
    18    8  135 1    
    19    9   10 ar   
    20    9   14 ar   
    21   10   11 ar   
    22   10  136 1    
    23   11   12 ar   
    24   11  126 1    
    25   12   13 ar   
    26   12  137 1    
    27   13   14 ar   
    28   13   15 1    
    29   14  138 1    
    30   15   16 1    
    31   15  139 1    
    32   15  140 1    
    33   16   17 1    
    34   17   18 1    
    35   17  141 1    
    36   17  142 1    
    37   18   19 1    
    38   18   67 1    
    39   18  143 1    
    40   19   20 am   BACKBONE|DICT|INTERRES
    41   19  144 1    
    42   20   21 2    
    43   20   22 1    
    44   22   23 1    
    45   22   24 1    
    46   22  145 1    
    47   23  146 1    
    48   23  147 1    
    49   23  148 1    
    50   24   25 am   BACKBONE|DICT|INTERRES
    51   24  149 1    
    52   25   26 2    
    53   25   27 1    
    54   27   28 1    
    55   27   29 1    
    56   27  150 1    
    57   28  151 1    
    58   28  152 1    
    59   28  153 1    
    60   29   30 am   BACKBONE|DICT|INTERRES
    61   29  154 1    
    62   30   31 2    
    63   30   32 1    
    64   32   33 1    
    65   32   34 1    
    66   32  155 1    
    67   33  156 1    
    68   33  157 1    
    69   33  158 1    
    70   34   35 am   BACKBONE|DICT|INTERRES
    71   34  159 1    
    72   35   36 2    
    73   35   37 1    
    74   37   38 1    
    75   37   39 1    
    76   37  160 1    
    77   38  161 1    
    78   38  162 1    
    79   38  163 1    
    80   39   40 am   BACKBONE|DICT|INTERRES
    81   39  164 1    
    82   40   41 2    
    83   40   42 1    
    84   42   43 1    
    85   42   44 1    
    86   42  165 1    
    87   43  166 1    
    88   43  167 1    
    89   43  168 1    
    90   44   45 am   BACKBONE|DICT|INTERRES
    91   44  169 1    
    92   45   46 2    
    93   45   47 1    
    94   47   48 1    
    95   47   49 1    
    96   47  170 1    
    97   48  171 1    
    98   48  172 1    
    99   48  173 1    
   100   49   50 am   BACKBONE|DICT|INTERRES
   101   49  174 1    
   102   50   51 2    
   103   50   52 1    
   104   52   53 1    
   105   52   54 1    
   106   52  175 1    
   107   53  176 1    
   108   53  177 1    
   109   53  178 1    
   110   54   55 am   BACKBONE|DICT|INTERRES
   111   54  179 1    
   112   55   56 2    
   113   55   57 1    
   114   57   58 1    
   115   57   59 1    
   116   57  180 1    
   117   58  181 1    
   118   58  182 1    
   119   58  183 1    
   120   59   60 am   BACKBONE|DICT|INTERRES
   121   59  184 1    
   122   60   61 2    
   123   60   62 1    
   124   62   63 1    
   125   62   64 1    
   126   62  185 1    
   127   63  186 1    
   128   63  187 1    
   129   63  188 1    
   130   64   65 am   BACKBONE|DICT|INTERRES
   131   64  189 1    
   132   65   66 2    
   133   67   68 2    
   134   67   69 am   BACKBONE|DICT|INTERRES
   135   69   70 1    
   136   69  190 1    
   137   70   71 1    
   138   70   72 1    
   139   70  191 1    
   140   71  192 1    
   141   71  193 1    
   142   71  194 1    
   143   72   73 2    
   144   72   74 am   BACKBONE|DICT|INTERRES
   145   74   75 1    
   146   74  195 1    
   147   75   76 1    
   148   75   77 1    
   149   75  196 1    
   150   76  197 1    
   151   76  198 1    
   152   76  199 1    
   153   77   78 2    
   154   77   79 am   BACKBONE|DICT|INTERRES
   155   79   80 1    
   156   79  200 1    
   157   80   81 1    
   158   80   82 1    
   159   80  201 1    
   160   81  202 1    
   161   81  203 1    
   162   81  204 1    
   163   82   83 2    
   164   82   84 am   BACKBONE|DICT|INTERRES
   165   84   85 1    
   166   84  205 1    
   167   85   86 1    
   168   85   87 1    
   169   85  206 1    
   170   86  207 1    
   171   86  208 1    
   172   86  209 1    
   173   87   88 2    
   174   87   89 am   BACKBONE|DICT|INTERRES
   175   89   90 1    
   176   89  210 1    
   177   90   91 1    
   178   90   92 1    
   179   90  211 1    
   180   91  212 1    
   181   91  213 1    
   182   91  214 1    
   183   92   93 2    
   184   92   94 am   BACKBONE|DICT|INTERRES
   185   94   95 1    
   186   94  215 1    
   187   95   96 1    
   188   95   97 1    
   189   95  216 1    
   190   96  217 1    
   191   96  218 1    
   192   96  219 1    
   193   97   98 2    
   194   97   99 am   BACKBONE|DICT|INTERRES
   195   99  100 1    
   196   99  220 1    
   197  100  101 1    
   198  100  102 1    
   199  100  221 1    
   200  101  222 1    
   201  101  223 1    
   202  101  224 1    
   203  102  103 2    
   204  102  104 am   BACKBONE|DICT|INTERRES
   205  104  105 1    
   206  104  225 1    
   207  105  106 1    
   208  105  107 1    
   209  105  226 1    
   210  106  227 1    
   211  106  228 1    
   212  106  229 1    
   213  107  108 2    
   214  107  109 am   BACKBONE|DICT|INTERRES
   215  109  110 1    
   216  109  230 1    
   217  110  111 1    
   218  110  112 1    
   219  110  231 1    
   220  111  232 1    
   221  111  233 1    
   222  111  234 1    
   223  112  113 2    
   224  112  114 am   BACKBONE|DICT|INTERRES
   225  114  115 1    
   226  114  235 1    
   227  115  116 1    
   228  115  117 1    
   229  115  236 1    
   230  116  237 1    
   231  116  238 1    
   232  116  239 1    
   233  117  118 2    
   234  117  119 am   BACKBONE|DICT|INTERRES
   235  119  120 1    
   236  119  240 1    
   237  120  121 1    
   238  120  124 1    
   239  120  241 1    
   240  121  122 am   BACKBONE|DICT|INTERRES
   241  121  123 2    
   242  122  242 1    
   243  122  243 1    
   244  124  125 1    
   245  124  244 1    
   246  124  245 1    
   247  125  126 1    
   248  126  246 1    
   249  126  247 1    
@<TRIPOS>SUBSTRUCTURE
     1 UNK         1 GROUP             0       ****    0 ROOT    
