@<TRIPOS>MOLECULE
3R540
247   249    1
SMALL
USER_CHARGES


@<TRIPOS>ATOM
      1 CA          6.5988   -9.7254  -48.7900 C.3       0 UNK        -0.1800 
      2 C           5.6569  -10.6436  -48.0242 C.2       0 UNK         0.5000 
      3 O           5.0222  -10.2050  -47.0656 O.2       0 UNK        -0.5000 
      4 N           5.5706  -11.9150  -48.4415 N.am      1 UNK        -0.5000 
      5 CA          4.7246  -12.9663  -47.8561 C.3       1 UNK         0.1400 
      6 C6          3.2071  -12.6179  -47.9146 C.3       23 UNK        -0.0398 
      7 S7          2.1032  -14.0748  -47.8645 S.3       23 UNK        -0.2404 
      8 C8          1.6213  -14.2383  -49.6087 C.3       23 UNK        -0.0205 
      9 C9          0.8311  -15.5182  -49.8313 C.ar      23 UNK        -0.0193 
     10 C10        -0.5668  -15.5052  -49.8106 C.ar      23 UNK        -0.1150 
     11 C11        -1.2873  -16.6877  -50.0035 C.ar      23 UNK        -0.0193 
     12 C12        -0.5994  -17.8822  -50.2238 C.ar      23 UNK        -0.1150 
     13 C13         0.8005  -17.9135  -50.2512 C.ar      23 UNK        -0.0193 
     14 C14         1.5047  -16.7221  -50.0550 C.ar      23 UNK        -0.1150 
     15 C15         1.5906  -19.1975  -50.5116 C.3       23 UNK        -0.0205 
     16 S16         0.7184  -20.7538  -50.1276 S.3       23 UNK        -0.2404 
     17 C17         0.4309  -20.5548  -48.3396 C.3       23 UNK        -0.0398 
     18 CA         -0.1664  -21.7934  -47.6317 C.3       11 UNK         0.1400 
     19 N          -0.2299  -21.5597  -46.1877 N.am      11 UNK        -0.5000 
     20 C          -0.5807  -22.4560  -45.2574 C.2       10 UNK         0.5000 
     21 O          -0.8665  -23.6265  -45.5038 O.2       10 UNK        -0.5000 
     22 CA         -0.6766  -21.9371  -43.8112 C.3       10 UNK         0.1400 
     23 CB          0.7171  -21.8090  -43.1787 C.3       10 UNK        -0.1800 
     24 N          -1.3804  -20.6557  -43.7224 N.am      10 UNK        -0.5000 
     25 C          -2.6697  -20.4840  -44.0500 C.2       9 UNK         0.5000 
     26 O          -3.4056  -21.3952  -44.4254 O.2       9 UNK        -0.5000 
     27 CA         -3.2270  -19.0527  -43.9861 C.3       9 UNK         0.1400 
     28 CB         -3.5633  -18.6680  -42.5379 C.3       9 UNK        -0.1800 
     29 N          -2.3203  -18.0643  -44.5697 N.am      9 UNK        -0.5000 
     30 C          -1.9499  -18.0397  -45.8592 C.2       8 UNK         0.5000 
     31 O          -2.3594  -18.8330  -46.7058 O.2       8 UNK        -0.5000 
     32 CA         -0.9025  -16.9871  -46.2600 C.3       8 UNK         0.1400 
     33 CB         -1.5447  -15.5994  -46.3999 C.3       8 UNK        -0.1800 
     34 N           0.2087  -16.9189  -45.3143 N.am      8 UNK        -0.5000 
     35 C           1.0331  -17.9343  -45.0241 C.2       7 UNK         0.5000 
     36 O           0.9676  -19.0467  -45.5456 O.2       7 UNK        -0.5000 
     37 CA          2.0747  -17.6780  -43.9257 C.3       7 UNK         0.1400 
     38 CB          3.2694  -16.8936  -44.4834 C.3       7 UNK        -0.1800 
     39 N           1.4955  -16.9634  -42.7885 N.am      7 UNK        -0.5000 
     40 C           0.6202  -17.5026  -41.9286 C.2       6 UNK         0.5000 
     41 O           0.2311  -18.6696  -41.9887 O.2       6 UNK        -0.5000 
     42 CA          0.0613  -16.5690  -40.8393 C.3       6 UNK         0.1400 
     43 CB          1.0566  -16.4289  -39.6782 C.3       6 UNK        -0.1800 
     44 N          -0.2743  -15.2403  -41.3524 N.am      6 UNK        -0.5000 
     45 C          -1.2706  -14.9978  -42.2157 C.2       5 UNK         0.5000 
     46 O          -2.0178  -15.8680  -42.6594 O.2       5 UNK        -0.5000 
     47 CA         -1.4347  -13.5462  -42.7031 C.3       5 UNK         0.1400 
     48 CB         -2.3055  -12.7446  -41.7245 C.3       5 UNK        -0.1800 
     49 N          -0.1705  -12.8375  -42.9175 N.am      5 UNK        -0.5000 
     50 C           0.8264  -13.2526  -43.7109 C.2       4 UNK         0.5000 
     51 O           0.8170  -14.3278  -44.3093 O.2       4 UNK        -0.5000 
     52 CA          2.0445  -12.3299  -43.8711 C.3       4 UNK         0.1400 
     53 CB          1.8584  -10.9026  -43.3080 C.3       4 UNK        -0.1800 
     54 N           3.2531  -12.9594  -43.3424 N.am      4 UNK        -0.5000 
     55 C           3.5349  -13.2635  -42.0678 C.2       3 UNK         0.5000 
     56 O           2.7507  -13.0772  -41.1360 O.2       3 UNK        -0.5000 
     57 CA          4.9172  -13.8891  -41.7708 C.3       3 UNK         0.1400 
     58 CB          4.7689  -15.2272  -41.0271 C.3       3 UNK        -0.1800 
     59 N           5.7443  -14.0999  -42.9632 N.am      3 UNK        -0.5000 
     60 C           6.4461  -13.1572  -43.6096 C.2       2 UNK         0.5000 
     61 O           6.5116  -11.9830  -43.2440 O.2       2 UNK        -0.5000 
     62 CA          7.1846  -13.5916  -44.8972 C.3       2 UNK         0.1400 
     63 CB          7.4864  -15.1065  -44.9518 C.3       2 UNK        -0.1800 
     64 N           6.4905  -13.1755  -46.1242 N.am      2 UNK        -0.5000 
     65 C           5.2130  -13.4256  -46.4568 C.2       1 UNK         0.5000 
     66 O           4.4412  -14.0209  -45.7097 O.2       1 UNK        -0.5000 
     67 C          -1.5408  -22.2062  -48.2067 C.2       11 UNK         0.5000 
     68 O          -1.6200  -23.1766  -48.9642 O.2       11 UNK        -0.5000 
     69 N          -2.6007  -21.4932  -47.8003 N.am      12 UNK        -0.5000 
     70 CA         -3.9886  -21.7903  -48.1457 C.3       12 UNK         0.1400 
     71 CB         -4.8943  -20.6515  -47.6537 C.3       12 UNK        -0.1800 
     72 C          -4.4587  -23.1489  -47.5952 C.2       12 UNK         0.5000 
     73 O          -5.0154  -23.9434  -48.3520 O.2       12 UNK        -0.5000 
     74 N          -4.1946  -23.4097  -46.3063 N.am      13 UNK        -0.5000 
     75 CA         -4.5441  -24.6543  -45.6142 C.3       13 UNK         0.1400 
     76 CB         -4.2517  -24.5086  -44.1134 C.3       13 UNK        -0.1800 
     77 C          -3.8304  -25.8938  -46.1846 C.2       13 UNK         0.5000 
     78 O          -4.4404  -26.9599  -46.2725 O.2       13 UNK        -0.5000 
     79 N          -2.5651  -25.7254  -46.5900 N.am      14 UNK        -0.5000 
     80 CA         -1.7590  -26.7461  -47.2614 C.3       14 UNK         0.1400 
     81 CB         -0.2799  -26.3336  -47.1846 C.3       14 UNK        -0.1800 
     82 C          -2.1633  -26.9839  -48.7307 C.2       14 UNK         0.5000 
     83 O          -1.7121  -27.9673  -49.3190 O.2       14 UNK        -0.5000 
     84 N          -2.9665  -26.0724  -49.3029 N.am      15 UNK        -0.5000 
     85 CA         -3.3500  -25.9830  -50.7160 C.3       15 UNK         0.1400 
     86 CB         -4.2247  -27.1819  -51.1365 C.3       15 UNK        -0.1800 
     87 C          -2.1339  -25.7609  -51.6408 C.2       15 UNK         0.5000 
     88 O          -2.1238  -26.2225  -52.7834 O.2       15 UNK        -0.5000 
     89 N          -1.1244  -25.0420  -51.1283 N.am      16 UNK        -0.5000 
     90 CA          0.0824  -24.6571  -51.8600 C.3       16 UNK         0.1400 
     91 CB          1.2022  -24.3395  -50.8592 C.3       16 UNK        -0.1800 
     92 C          -0.1827  -23.4873  -52.8276 C.2       16 UNK         0.5000 
     93 O           0.5075  -23.3678  -53.8395 O.2       16 UNK        -0.5000 
     94 N          -1.2341  -22.7046  -52.5475 N.am      17 UNK        -0.5000 
     95 CA         -1.8441  -21.7279  -53.4529 C.3       17 UNK         0.1400 
     96 CB         -2.2996  -20.5061  -52.6369 C.3       17 UNK        -0.1800 
     97 C          -2.9881  -22.3685  -54.2719 C.2       17 UNK         0.5000 
     98 O          -4.0033  -21.7198  -54.5359 O.2       17 UNK        -0.5000 
     99 N          -2.8036  -23.6454  -54.6408 N.am      18 UNK        -0.5000 
    100 CA        -3.7255  -24.5254  -55.3621 C.3       18 UNK         0.1400 
    101 CB        -3.9508  -23.9985  -56.7974 C.3       18 UNK        -0.1800 
    102 C         -5.0449  -24.7713  -54.5988 C.2       18 UNK         0.5000 
    103 O         -5.1470  -24.4719  -53.4065 O.2       18 UNK        -0.5000 
    104 N         -6.0453  -25.3094  -55.3088 N.am      19 UNK        -0.5000 
    105 CA        -7.4113  -25.4985  -54.8129 C.3       19 UNK         0.1400 
    106 CB        -8.1730  -26.4112  -55.7863 C.3       19 UNK        -0.1800 
    107 C         -8.1683  -24.1692  -54.6104 C.2       19 UNK         0.5000 
    108 O         -9.1452  -24.1392  -53.8614 O.2       19 UNK        -0.5000 
    109 N         -7.7019  -23.0983  -55.2720 N.am      20 UNK        -0.5000 
    110 CA        -8.1840  -21.7278  -55.1042 C.3       20 UNK         0.1400 
    111 CB        -7.5449  -20.8302  -56.1749 C.3       20 UNK        -0.1800 
    112 C         -7.8978  -21.1771  -53.6959 C.2       20 UNK         0.5000 
    113 O         -8.7564  -20.5020  -53.1272 O.2       20 UNK        -0.5000 
    114 N         -6.7049  -21.4878  -53.1619 N.am      21 UNK        -0.5000 
    115 CA        -6.2451  -21.2160  -51.7950 C.3       21 UNK         0.1400 
    116 CB        -6.9857  -22.1423  -50.8094 C.3       21 UNK        -0.1800 
    117 C         -6.3212  -19.7244  -51.3957 C.2       21 UNK         0.5000 
    118 O         -6.6373  -19.4081  -50.2485 O.2       21 UNK        -0.5000 
    119 N         -6.0656  -18.8392  -52.3692 N.am      22 UNK        -0.5000 
    120 CA        -6.2272  -17.3744  -52.2868 C.3       22 UNK         0.1400 
    121 C         -7.7038  -16.8832  -52.1473 C.2       22 UNK         0.5000 
    122 N         -8.7172  -17.7163  -52.3518 N.am      22 UNK        -0.7600 
    123 O         -7.9446  -15.7078  -51.8841 O.2       22 UNK        -0.5000 
    124 C124       -5.2857  -16.7001  -51.2473 C.3       23 UNK        -0.0398 
    125 S125       -3.5200  -16.9720  -51.6073 S.3       23 UNK        -0.2404 
    126 C126       -2.8070  -16.6909  -49.9579 C.3       23 UNK        -0.0205 
    127 H127        6.0451   -8.8843  -49.2073 H         1 UNK         0.0600 
    128 H128        7.0959  -10.2451  -49.6095 H         1 UNK         0.0600 
    129 H129        7.3652   -9.3325  -48.1219 H         1 UNK         0.0600 
    130 H130        6.1263  -12.2055  -49.2348 H         1 UNK         0.3000 
    131 H131        4.8784  -13.8309  -48.5034 H         1 UNK         0.0600 
    132 H132        2.9358  -11.9435  -47.1027 H         1 UNK         0.0800 
    133 H133        2.9911  -12.0655  -48.8300 H         1 UNK         0.0800 
    134 H134        1.0318  -13.3699  -49.9071 H         1 UNK         0.0800 
    135 H135        2.5139  -14.2407  -50.2363 H         1 UNK         0.0800 
    136 H136       -1.0915  -14.5770  -49.6332 H         1 UNK         0.1150 
    137 H137       -1.1722  -18.7851  -50.3677 H         1 UNK         0.1150 
    138 H138        2.5857  -16.7297  -50.0724 H         1 UNK         0.1150 
    139 H139        1.8738  -19.2160  -51.5645 H         1 UNK         0.0800 
    140 H140        2.5209  -19.1796  -49.9418 H         1 UNK         0.0800 
    141 H141       -0.2088  -19.6875  -48.1758 H         1 UNK         0.0800 
    142 H142        1.3909  -20.3075  -47.8844 H         1 UNK         0.0800 
    143 H143        0.5143  -22.6326  -47.7880 H         1 UNK         0.0600 
    144 H144        0.0228  -20.6229  -45.8805 H         1 UNK         0.3000 
    145 H145       -1.2437  -22.6700  -43.2336 H         1 UNK         0.0600 
    146 H146        0.6474  -21.5237  -42.1289 H         1 UNK         0.0600 
    147 H147        1.3253  -21.0606  -43.6873 H         1 UNK         0.0600 
    148 H148        1.2550  -22.7567  -43.2237 H         1 UNK         0.0600 
    149 H149       -0.8437  -19.8609  -43.3935 H         1 UNK         0.3000 
    150 H150       -4.1532  -19.0331  -44.5638 H         1 UNK         0.0600 
    151 H151       -4.2282  -19.4024  -42.0816 H         1 UNK         0.0600 
    152 H152       -4.0686  -17.7032  -42.4950 H         1 UNK         0.0600 
    153 H153       -2.6672  -18.6048  -41.9193 H         1 UNK         0.0600 
    154 H154       -1.9691  -17.3485  -43.9403 H         1 UNK         0.3000 
    155 H155       -0.4907  -17.2746  -47.2290 H         1 UNK         0.0600 
    156 H156       -2.3658  -15.6189  -47.1166 H         1 UNK         0.0600 
    157 H157       -0.8198  -14.8656  -46.7530 H         1 UNK         0.0600 
    158 H158       -1.9453  -15.2440  -45.4509 H         1 UNK         0.0600 
    159 H159        0.3708  -16.0188  -44.8666 H         1 UNK         0.3000 
    160 H160        2.4382  -18.6469  -43.5764 H         1 UNK         0.0600 
    161 H161        2.9748  -15.8882  -44.7812 H         1 UNK         0.0600 
    162 H162        3.6862  -17.3851  -45.3634 H         1 UNK         0.0600 
    163 H163        4.0707  -16.8102  -43.7512 H         1 UNK         0.0600 
    164 H164        1.6871  -15.9740  -42.7287 H         1 UNK         0.3000 
    165 H165       -0.8524  -17.0240  -40.4507 H         1 UNK         0.0600 
    166 H166        0.6274  -15.8510  -38.8596 H         1 UNK         0.0600 
    167 H167        1.3310  -17.4057  -39.2776 H         1 UNK         0.0600 
    168 H168        1.9743  -15.9318  -39.9928 H         1 UNK         0.0600 
    169 H169        0.3112  -14.4702  -41.0598 H         1 UNK         0.3000 
    170 H170       -1.9514  -13.5820  -43.6638 H         1 UNK         0.0600 
    171 H171       -1.8218  -12.6333  -40.7533 H         1 UNK         0.0600 
    172 H172       -2.5185  -11.7475  -42.1106 H         1 UNK         0.0600 
    173 H173       -3.2640  -13.2388  -41.5595 H         1 UNK         0.0600 
    174 H174       -0.0641  -11.9528  -42.4432 H         1 UNK         0.3000 
    175 H175        2.2011  -12.2352  -44.9447 H         1 UNK         0.0600 
    176 H176        1.7040  -10.8934  -42.2289 H         1 UNK         0.0600 
    177 H177        2.7341  -10.2885  -43.5189 H         1 UNK         0.0600 
    178 H178        1.0035  -10.4077  -43.7706 H         1 UNK         0.0600 
    179 H179        3.9068  -13.2702  -44.0565 H         1 UNK         0.3000 
    180 H180        5.4424  -13.1967  -41.1098 H         1 UNK         0.0600 
    181 H181        5.7401  -15.6822  -40.8316 H         1 UNK         0.0600 
    182 H182        4.1688  -15.9416  -41.5899 H         1 UNK         0.0600 
    183 H183        4.2837  -15.0828  -40.0612 H         1 UNK         0.0600 
    184 H184        5.7169  -15.0240  -43.3684 H         1 UNK         0.3000 
    185 H185        8.1418  -13.0682  -44.8888 H         1 UNK         0.0600 
    186 H186        8.1289  -15.3421  -45.8002 H         1 UNK         0.0600 
    187 H187        8.0100  -15.4367  -44.0535 H         1 UNK         0.0600 
    188 H188        6.5819  -15.7077  -45.0515 H         1 UNK         0.0600 
    189 H189        7.0457  -12.6476  -46.7821 H         1 UNK         0.3000 
    190 H190       -2.4502  -20.6765  -47.2135 H         1 UNK         0.3000 
    191 H191       -4.0581  -21.8314  -49.2347 H         1 UNK         0.0600 
    192 H192       -4.6444  -19.7118  -48.1470 H         1 UNK         0.0600 
    193 H193       -4.8036  -20.4975  -46.5788 H         1 UNK         0.0600 
    194 H194       -5.9436  -20.8586  -47.8646 H         1 UNK         0.0600 
    195 H195       -3.7573  -22.6877  -45.7378 H         1 UNK         0.3000 
    196 H196       -5.6180  -24.8088  -45.7368 H         1 UNK         0.0600 
    197 H197       -4.8317  -23.6957  -43.6763 H         1 UNK         0.0600 
    198 H198       -3.1965  -24.3040  -43.9284 H         1 UNK         0.0600 
    199 H199       -4.5108  -25.4197  -43.5727 H         1 UNK         0.0600 
    200 H200       -2.1089  -24.8345  -46.4124 H         1 UNK         0.3000 
    201 H201       -1.8802  -27.6915  -46.7289 H         1 UNK         0.0600 
    202 H202        0.0461  -26.2259  -46.1499 H         1 UNK         0.0600 
    203 H203       -0.1019  -25.3846  -47.6924 H         1 UNK         0.0600 
    204 H204        0.3632  -27.0812  -47.6505 H         1 UNK         0.0600 
    205 H205       -3.2925  -25.3074  -48.7249 H         1 UNK         0.3000 
    206 H206       -3.9627  -25.0847  -50.8059 H         1 UNK         0.0600 
    207 H207       -3.6603  -28.1145  -51.1485 H         1 UNK         0.0600 
    208 H208       -5.0702  -27.3076  -50.4602 H         1 UNK         0.0600 
    209 H209       -4.6311  -27.0338  -52.1376 H         1 UNK         0.0600 
    210 H210       -1.2388  -24.6404  -50.2016 H         1 UNK         0.3000 
    211 H211        0.4096  -25.5057  -52.4646 H         1 UNK         0.0600 
    212 H212        0.8875  -23.6033  -50.1223 H         1 UNK         0.0600 
    213 H213        2.0862  -23.9484  -51.3644 H         1 UNK         0.0600 
    214 H214        1.5051  -25.2357  -50.3176 H         1 UNK         0.0600 
    215 H215       -1.7350  -22.8907  -51.6905 H         1 UNK         0.3000 
    216 H216       -1.1033  -21.3811  -54.1758 H         1 UNK         0.0600 
    217 H217       -2.8331  -19.7820  -53.2540 H         1 UNK         0.0600 
    218 H218       -1.4355  -19.9896  -52.2239 H         1 UNK         0.0600 
    219 H219       -2.9507  -20.7849  -51.8089 H         1 UNK         0.0600 
    220 H220       -1.9563  -24.0950  -54.3255 H         1 UNK         0.3000 
    221 H221       -3.2260  -25.4927  -55.4309 H         1 UNK         0.0600 
    222 H222       -4.5569  -23.0919  -56.8081 H         1 UNK         0.0600 
    223 H223       -3.0021  -23.7670  -57.2820 H         1 UNK         0.0600 
    224 H224       -4.4504  -24.7380  -57.4236 H         1 UNK         0.0600 
    225 H225       -5.8824  -25.5512  -56.2756 H         1 UNK         0.3000 
    226 H226       -7.3584  -25.9977  -53.8430 H         1 UNK         0.0600 
    227 H227       -7.6815  -27.3792  -55.8865 H         1 UNK         0.0600 
    228 H228       -9.1877  -26.5990  -55.4328 H         1 UNK         0.0600 
    229 H229       -8.2486  -25.9671  -56.7797 H         1 UNK         0.0600 
    230 H230       -6.9023  -23.2249  -55.8732 H         1 UNK         0.3000 
    231 H231       -9.2658  -21.7267  -55.2528 H         1 UNK         0.0600 
    232 H232       -7.8943  -19.8012  -56.0803 H         1 UNK         0.0600 
    233 H233       -7.8025  -21.1690  -57.1785 H         1 UNK         0.0600 
    234 H234       -6.4569  -20.8167  -56.0939 H         1 UNK         0.0600 
    235 H235       -6.0422  -21.9960  -53.7365 H         1 UNK         0.3000 
    236 H236       -5.1902  -21.4882  -51.7685 H         1 UNK         0.0600 
    237 H237       -8.0513  -21.9153  -50.7655 H         1 UNK         0.0600 
    238 H238       -6.8767  -23.1881  -51.0983 H         1 UNK         0.0600 
    239 H239       -6.5891  -22.0470  -49.8001 H         1 UNK         0.0600 
    240 H240       -5.8207  -19.2004  -53.2797 H         1 UNK         0.3000 
    241 H241       -5.9252  -17.0065  -53.2678 H         1 UNK         0.0600 
    242 H242       -8.5693  -18.6967  -52.5757 H         1 UNK         0.3800 
    243 H243       -9.6592  -17.3694  -52.2675 H         1 UNK         0.3800 
    244 H244       -5.4379  -15.6198  -51.2317 H         1 UNK         0.0800 
    245 H245       -5.5129  -17.0501  -50.2398 H         1 UNK         0.0800 
    246 H246       -3.1476  -17.4718  -49.2756 H         1 UNK         0.0800 
    247 H247       -3.1787  -15.7450  -49.5614 H         1 UNK         0.0800 
@<TRIPOS>BOND
     1    1    2 1    
     2    1  127 1    
     3    1  128 1    
     4    1  129 1    
     5    2    3 2    
     6    2    4 am   BACKBONE|DICT|INTERRES
     7    4    5 1    
     8    4  130 1    
     9    5    6 1    
    10    5   65 1    
    11    5  131 1    
    12    6    7 1    
    13    6  132 1    
    14    6  133 1    
    15    7    8 1    
    16    8    9 1    
    17    8  134 1    
    18    8  135 1    
    19    9   10 ar   
    20    9   14 ar   
    21   10   11 ar   
    22   10  136 1    
    23   11   12 ar   
    24   11  126 1    
    25   12   13 ar   
    26   12  137 1    
    27   13   14 ar   
    28   13   15 1    
    29   14  138 1    
    30   15   16 1    
    31   15  139 1    
    32   15  140 1    
    33   16   17 1    
    34   17   18 1    
    35   17  141 1    
    36   17  142 1    
    37   18   19 1    
    38   18   67 1    
    39   18  143 1    
    40   19   20 am   BACKBONE|DICT|INTERRES
    41   19  144 1    
    42   20   21 2    
    43   20   22 1    
    44   22   23 1    
    45   22   24 1    
    46   22  145 1    
    47   23  146 1    
    48   23  147 1    
    49   23  148 1    
    50   24   25 am   BACKBONE|DICT|INTERRES
    51   24  149 1    
    52   25   26 2    
    53   25   27 1    
    54   27   28 1    
    55   27   29 1    
    56   27  150 1    
    57   28  151 1    
    58   28  152 1    
    59   28  153 1    
    60   29   30 am   BACKBONE|DICT|INTERRES
    61   29  154 1    
    62   30   31 2    
    63   30   32 1    
    64   32   33 1    
    65   32   34 1    
    66   32  155 1    
    67   33  156 1    
    68   33  157 1    
    69   33  158 1    
    70   34   35 am   BACKBONE|DICT|INTERRES
    71   34  159 1    
    72   35   36 2    
    73   35   37 1    
    74   37   38 1    
    75   37   39 1    
    76   37  160 1    
    77   38  161 1    
    78   38  162 1    
    79   38  163 1    
    80   39   40 am   BACKBONE|DICT|INTERRES
    81   39  164 1    
    82   40   41 2    
    83   40   42 1    
    84   42   43 1    
    85   42   44 1    
    86   42  165 1    
    87   43  166 1    
    88   43  167 1    
    89   43  168 1    
    90   44   45 am   BACKBONE|DICT|INTERRES
    91   44  169 1    
    92   45   46 2    
    93   45   47 1    
    94   47   48 1    
    95   47   49 1    
    96   47  170 1    
    97   48  171 1    
    98   48  172 1    
    99   48  173 1    
   100   49   50 am   BACKBONE|DICT|INTERRES
   101   49  174 1    
   102   50   51 2    
   103   50   52 1    
   104   52   53 1    
   105   52   54 1    
   106   52  175 1    
   107   53  176 1    
   108   53  177 1    
   109   53  178 1    
   110   54   55 am   BACKBONE|DICT|INTERRES
   111   54  179 1    
   112   55   56 2    
   113   55   57 1    
   114   57   58 1    
   115   57   59 1    
   116   57  180 1    
   117   58  181 1    
   118   58  182 1    
   119   58  183 1    
   120   59   60 am   BACKBONE|DICT|INTERRES
   121   59  184 1    
   122   60   61 2    
   123   60   62 1    
   124   62   63 1    
   125   62   64 1    
   126   62  185 1    
   127   63  186 1    
   128   63  187 1    
   129   63  188 1    
   130   64   65 am   BACKBONE|DICT|INTERRES
   131   64  189 1    
   132   65   66 2    
   133   67   68 2    
   134   67   69 am   BACKBONE|DICT|INTERRES
   135   69   70 1    
   136   69  190 1    
   137   70   71 1    
   138   70   72 1    
   139   70  191 1    
   140   71  192 1    
   141   71  193 1    
   142   71  194 1    
   143   72   73 2    
   144   72   74 am   BACKBONE|DICT|INTERRES
   145   74   75 1    
   146   74  195 1    
   147   75   76 1    
   148   75   77 1    
   149   75  196 1    
   150   76  197 1    
   151   76  198 1    
   152   76  199 1    
   153   77   78 2    
   154   77   79 am   BACKBONE|DICT|INTERRES
   155   79   80 1    
   156   79  200 1    
   157   80   81 1    
   158   80   82 1    
   159   80  201 1    
   160   81  202 1    
   161   81  203 1    
   162   81  204 1    
   163   82   83 2    
   164   82   84 am   BACKBONE|DICT|INTERRES
   165   84   85 1    
   166   84  205 1    
   167   85   86 1    
   168   85   87 1    
   169   85  206 1    
   170   86  207 1    
   171   86  208 1    
   172   86  209 1    
   173   87   88 2    
   174   87   89 am   BACKBONE|DICT|INTERRES
   175   89   90 1    
   176   89  210 1    
   177   90   91 1    
   178   90   92 1    
   179   90  211 1    
   180   91  212 1    
   181   91  213 1    
   182   91  214 1    
   183   92   93 2    
   184   92   94 am   BACKBONE|DICT|INTERRES
   185   94   95 1    
   186   94  215 1    
   187   95   96 1    
   188   95   97 1    
   189   95  216 1    
   190   96  217 1    
   191   96  218 1    
   192   96  219 1    
   193   97   98 2    
   194   97   99 am   BACKBONE|DICT|INTERRES
   195   99  100 1    
   196   99  220 1    
   197  100  101 1    
   198  100  102 1    
   199  100  221 1    
   200  101  222 1    
   201  101  223 1    
   202  101  224 1    
   203  102  103 2    
   204  102  104 am   BACKBONE|DICT|INTERRES
   205  104  105 1    
   206  104  225 1    
   207  105  106 1    
   208  105  107 1    
   209  105  226 1    
   210  106  227 1    
   211  106  228 1    
   212  106  229 1    
   213  107  108 2    
   214  107  109 am   BACKBONE|DICT|INTERRES
   215  109  110 1    
   216  109  230 1    
   217  110  111 1    
   218  110  112 1    
   219  110  231 1    
   220  111  232 1    
   221  111  233 1    
   222  111  234 1    
   223  112  113 2    
   224  112  114 am   BACKBONE|DICT|INTERRES
   225  114  115 1    
   226  114  235 1    
   227  115  116 1    
   228  115  117 1    
   229  115  236 1    
   230  116  237 1    
   231  116  238 1    
   232  116  239 1    
   233  117  118 2    
   234  117  119 am   BACKBONE|DICT|INTERRES
   235  119  120 1    
   236  119  240 1    
   237  120  121 1    
   238  120  124 1    
   239  120  241 1    
   240  121  122 am   BACKBONE|DICT|INTERRES
   241  121  123 2    
   242  122  242 1    
   243  122  243 1    
   244  124  125 1    
   245  124  244 1    
   246  124  245 1    
   247  125  126 1    
   248  126  246 1    
   249  126  247 1    
@<TRIPOS>SUBSTRUCTURE
     1 UNK         1 GROUP             0       ****    0 ROOT    
