@<TRIPOS>MOLECULE
3R540
247   249    1
SMALL
USER_CHARGES


@<TRIPOS>ATOM
      1 CA         -2.4497  -10.0350  -47.6420 C.3       0 UNK        -0.1800 
      2 C          -2.3713  -11.3251  -48.4464 C.2       0 UNK         0.5000 
      3 O          -2.4152  -11.2730  -49.6748 O.2       0 UNK        -0.5000 
      4 N          -2.2408  -12.4630  -47.7491 N.am      1 UNK        -0.5000 
      5 CA         -2.2137  -13.8402  -48.2602 C.3       1 UNK         0.1400 
      6 C6         -1.2161  -14.0568  -49.4302 C.3       23 UNK        -0.0398 
      7 S7         -0.7425  -15.8059  -49.6143 S.3       23 UNK        -0.2404 
      8 C8          1.0640  -15.7038  -49.7983 C.3       23 UNK        -0.0205 
      9 C9          1.6424  -17.0760  -50.1079 C.ar      23 UNK        -0.0193 
     10 C10         1.4728  -17.6287  -51.3793 C.ar      23 UNK        -0.1150 
     11 C11         1.9472  -18.9093  -51.6681 C.ar      23 UNK        -0.0193 
     12 C12         2.6263  -19.6286  -50.6824 C.ar      23 UNK        -0.1150 
     13 C13         2.8094  -19.0873  -49.4062 C.ar      23 UNK        -0.0193 
     14 C14         2.3228  -17.8056  -49.1284 C.ar      23 UNK        -0.1150 
     15 C15         3.5233  -19.8852  -48.3221 C.3       23 UNK        -0.0205 
     16 S16         2.8090  -21.5455  -48.0615 S.3       23 UNK        -0.2404 
     17 C17         1.0392  -21.1667  -47.8338 C.3       23 UNK        -0.0398 
     18 CA          0.3022  -22.2508  -47.0165 C.3       11 UNK         0.1400 
     19 N           0.8699  -22.4419  -45.6769 N.am      11 UNK        -0.5000 
     20 C           0.5381  -23.4259  -44.8304 C.2       10 UNK         0.5000 
     21 O          -0.2342  -24.3363  -45.1349 O.2       10 UNK        -0.5000 
     22 CA          1.0701  -23.3275  -43.3864 C.3       10 UNK         0.1400 
     23 CB          1.4626  -24.7004  -42.8039 C.3       10 UNK        -0.1800 
     24 N           2.1286  -22.3256  -43.2108 N.am      10 UNK        -0.5000 
     25 C           3.4009  -22.3789  -43.6318 C.2       9 UNK         0.5000 
     26 O           3.8925  -23.3424  -44.2189 O.2       9 UNK        -0.5000 
     27 CA          4.2712  -21.1295  -43.3829 C.3       9 UNK         0.1400 
     28 CB          4.5369  -20.3974  -44.7063 C.3       9 UNK        -0.1800 
     29 N           3.6845  -20.1736  -42.4404 N.am      9 UNK        -0.5000 
     30 C           3.6184  -20.3362  -41.1121 C.2       8 UNK         0.5000 
     31 O           4.0476  -21.3268  -40.5203 O.2       8 UNK        -0.5000 
     32 CA          2.9393  -19.2071  -40.3184 C.3       8 UNK         0.1400 
     33 CB          3.9233  -18.0555  -40.0588 C.3       8 UNK        -0.1800 
     34 N           1.7626  -18.6897  -41.0180 N.am      8 UNK        -0.5000 
     35 C           0.5430  -19.2424  -40.9638 C.2       7 UNK         0.5000 
     36 O           0.2732  -20.2372  -40.2909 O.2       7 UNK        -0.5000 
     37 CA         -0.5583  -18.5866  -41.8188 C.3       7 UNK         0.1400 
     38 CB         -1.2741  -17.4793  -41.0321 C.3       7 UNK        -0.1800 
     39 N          -0.0457  -18.0328  -43.0715 N.am      7 UNK        -0.5000 
     40 C           0.3759  -18.7776  -44.1027 C.2       6 UNK         0.5000 
     41 O           0.3173  -20.0068  -44.1237 O.2       6 UNK        -0.5000 
     42 CA          0.9828  -18.0431  -45.3130 C.3       6 UNK         0.1400 
     43 CB         -0.1131  -17.7661  -46.3500 C.3       6 UNK        -0.1800 
     44 N           1.6463  -16.7829  -44.9811 N.am      6 UNK        -0.5000 
     45 C           2.6247  -16.6204  -44.0798 C.2       5 UNK         0.5000 
     46 O           3.1690  -17.5541  -43.4910 O.2       5 UNK        -0.5000 
     47 CA          3.0129  -15.1713  -43.7238 C.3       5 UNK         0.1400 
     48 CB          4.3141  -14.7817  -44.4399 C.3       5 UNK        -0.1800 
     49 N           1.9822  -14.1672  -44.0240 N.am      5 UNK        -0.5000 
     50 C           0.7234  -14.1550  -43.5588 C.2       4 UNK         0.5000 
     51 O           0.2659  -15.0307  -42.8199 O.2       4 UNK        -0.5000 
     52 CA         -0.1898  -13.0081  -44.0312 C.3       4 UNK         0.1400 
     53 CB          0.2287  -12.4124  -45.3957 C.3       4 UNK        -0.1800 
     54 N          -1.5625  -13.5064  -44.0806 N.am      4 UNK        -0.5000 
     55 C          -2.6798  -12.7761  -44.1327 C.2       3 UNK         0.5000 
     56 O          -2.6826  -11.5471  -44.2060 O.2       3 UNK        -0.5000 
     57 CA         -4.0103  -13.5615  -44.1653 C.3       3 UNK         0.1400 
     58 CB         -5.2422  -12.6405  -44.1041 C.3       3 UNK        -0.1800 
     59 N          -4.1137  -14.3973  -45.3645 N.am      3 UNK        -0.5000 
     60 C          -3.4795  -15.5615  -45.5548 C.2       2 UNK         0.5000 
     61 O          -2.7637  -16.0838  -44.7007 O.2       2 UNK        -0.5000 
     62 CA         -3.6274  -16.2403  -46.9326 C.3       2 UNK         0.1400 
     63 CB         -4.4927  -17.5025  -46.8028 C.3       2 UNK        -0.1800 
     64 N          -4.1932  -15.3817  -47.9804 N.am      2 UNK        -0.5000 
     65 C          -3.6507  -14.3209  -48.6030 C.2       1 UNK         0.5000 
     66 O          -4.2972  -13.7097  -49.4524 O.2       1 UNK        -0.5000 
     67 C          -1.2104  -21.9508  -46.9515 C.2       11 UNK         0.5000 
     68 O          -1.9423  -22.3471  -47.8553 O.2       11 UNK        -0.5000 
     69 N          -1.6622  -21.3364  -45.8476 N.am      12 UNK        -0.5000 
     70 CA         -3.0724  -21.1225  -45.5133 C.3       12 UNK         0.1400 
     71 CB         -3.1495  -20.2208  -44.2720 C.3       12 UNK        -0.1800 
     72 C          -3.8686  -22.4266  -45.2768 C.2       12 UNK         0.5000 
     73 O          -5.0986  -22.3924  -45.2938 O.2       12 UNK        -0.5000 
     74 N          -3.1695  -23.5476  -45.0532 N.am      13 UNK        -0.5000 
     75 CA         -3.7495  -24.8856  -44.9926 C.3       13 UNK         0.1400 
     76 CB         -3.1709  -25.6473  -43.7886 C.3       13 UNK        -0.1800 
     77 C          -3.4761  -25.6327  -46.3070 C.2       13 UNK         0.5000 
     78 O          -4.4136  -26.1472  -46.9163 O.2       13 UNK        -0.5000 
     79 N          -2.2030  -25.6681  -46.7280 N.am      14 UNK        -0.5000 
     80 CA         -1.7210  -26.4505  -47.8690 C.3       14 UNK         0.1400 
     81 CB         -0.1849  -26.4607  -47.8606 C.3       14 UNK        -0.1800 
     82 C          -2.2517  -25.9854  -49.2385 C.2       14 UNK         0.5000 
     83 O          -2.4910  -26.8288  -50.1036 O.2       14 UNK        -0.5000 
     84 N          -2.4303  -24.6700  -49.4115 N.am      15 UNK        -0.5000 
     85 CA         -2.9426  -24.0420  -50.6317 C.3       15 UNK         0.1400 
     86 CB         -1.8769  -23.0800  -51.1860 C.3       15 UNK        -0.1800 
     87 C          -4.2831  -23.3231  -50.3848 C.2       15 UNK         0.5000 
     88 O          -4.7417  -22.5950  -51.2661 O.2       15 UNK        -0.5000 
     89 N          -4.8908  -23.5409  -49.2069 N.am      16 UNK        -0.5000 
     90 CA         -6.1713  -23.0001  -48.7394 C.3       16 UNK         0.1400 
     91 CB         -7.3402  -23.6671  -49.4969 C.3       16 UNK        -0.1800 
     92 C          -6.2098  -21.4582  -48.7834 C.2       16 UNK         0.5000 
     93 O          -5.6933  -20.8110  -47.8745 O.2       16 UNK        -0.5000 
     94 N          -6.7979  -20.8927  -49.8459 N.am      17 UNK        -0.5000 
     95 CA         -6.8263  -19.4539  -50.1162 C.3       17 UNK         0.1400 
     96 CB         -7.7904  -19.1888  -51.2827 C.3       17 UNK        -0.1800 
     97 C          -5.4372  -18.8557  -50.4208 C.2       17 UNK         0.5000 
     98 O          -5.2578  -17.6502  -50.2421 O.2       17 UNK        -0.5000 
     99 N          -4.4968  -19.7056  -50.8646 N.am      18 UNK        -0.5000 
    100 CA        -3.1256  -19.3896  -51.2686 C.3       18 UNK         0.1400 
    101 CB        -2.2812  -18.9978  -50.0377 C.3       18 UNK        -0.1800 
    102 C         -3.0715  -18.3781  -52.4353 C.2       18 UNK         0.5000 
    103 O         -4.0415  -18.2714  -53.1912 O.2       18 UNK        -0.5000 
    104 N         -1.9310  -17.6943  -52.6065 N.am      19 UNK        -0.5000 
    105 CA        -1.6380  -16.7461  -53.6876 C.3       19 UNK         0.1400 
    106 CB        -2.4484  -15.4448  -53.4957 C.3       19 UNK        -0.1800 
    107 C         -1.8112  -17.4017  -55.0743 C.2       19 UNK         0.5000 
    108 O         -0.9771  -18.2195  -55.4622 O.2       19 UNK        -0.5000 
    109 N         -2.9036  -17.0735  -55.7755 N.am      20 UNK        -0.5000 
    110 CA        -3.2882  -17.6657  -57.0575 C.3       20 UNK         0.1400 
    111 CB        -4.4240  -16.8291  -57.6665 C.3       20 UNK        -0.1800 
    112 C         -3.7023  -19.1501  -56.9640 C.2       20 UNK         0.5000 
    113 O         -3.6509  -19.8471  -57.9779 O.2       20 UNK        -0.5000 
    114 N         -4.1045  -19.6134  -55.7707 N.am      21 UNK        -0.5000 
    115 CA        -4.5018  -21.0006  -55.5139 C.3       21 UNK         0.1400 
    116 CB        -5.4459  -21.0430  -54.3022 C.3       21 UNK        -0.1800 
    117 C         -3.3069  -21.9545  -55.3087 C.2       21 UNK         0.5000 
    118 O         -3.5149  -23.1686  -55.2880 O.2       21 UNK        -0.5000 
    119 N         -2.0894  -21.4135  -55.1580 N.am      22 UNK        -0.5000 
    120 CA        -0.8392  -22.1847  -55.0759 C.3       22 UNK         0.1400 
    121 C         -0.5279  -22.9579  -56.3890 C.2       22 UNK         0.5000 
    122 N         -0.0272  -24.1822  -56.2922 N.am      22 UNK        -0.7600 
    123 O         -0.6916  -22.4416  -57.4922 O.2       22 UNK        -0.5000 
    124 C124        0.3639  -21.2879  -54.6981 C.3       23 UNK        -0.0398 
    125 S125        0.2113  -20.5499  -53.0401 S.3       23 UNK        -0.2404 
    126 C126        1.7134  -19.5252  -53.0358 C.3       23 UNK        -0.0205 
    127 H127       -3.3723   -9.5035  -47.8750 H         1 UNK         0.0600 
    128 H128       -2.4290  -10.2202  -46.5683 H         1 UNK         0.0600 
    129 H129       -1.6095   -9.3866  -47.8904 H         1 UNK         0.0600 
    130 H130       -2.2179  -12.3872  -46.7426 H         1 UNK         0.3000 
    131 H131       -1.8213  -14.4091  -47.4208 H         1 UNK         0.0600 
    132 H132       -0.3131  -13.4708  -49.2545 H         1 UNK         0.0800 
    133 H133       -1.6260  -13.7021  -50.3772 H         1 UNK         0.0800 
    134 H134        1.5014  -15.2951  -48.8861 H         1 UNK         0.0800 
    135 H135        1.3121  -15.0126  -50.6052 H         1 UNK         0.0800 
    136 H136        0.9562  -17.0633  -52.1382 H         1 UNK         0.1150 
    137 H137        2.9929  -20.6217  -50.9015 H         1 UNK         0.1150 
    138 H138        2.4648  -17.3790  -48.1457 H         1 UNK         0.1150 
    139 H139        4.5728  -19.9938  -48.5979 H         1 UNK         0.0800 
    140 H140        3.5106  -19.3416  -47.3777 H         1 UNK         0.0800 
    141 H141        0.5917  -21.0661  -48.8250 H         1 UNK         0.0800 
    142 H142        0.9426  -20.1944  -47.3556 H         1 UNK         0.0800 
    143 H143        0.4118  -23.1951  -47.5514 H         1 UNK         0.0600 
    144 H144        1.4634  -21.7042  -45.3273 H         1 UNK         0.3000 
    145 H145        0.2299  -22.9591  -42.7961 H         1 UNK         0.0600 
    146 H146        1.8402  -24.6043  -41.7859 H         1 UNK         0.0600 
    147 H147        0.6008  -25.3678  -42.7679 H         1 UNK         0.0600 
    148 H148        2.2272  -25.1949  -43.4030 H         1 UNK         0.0600 
    149 H149        1.8278  -21.4610  -42.7815 H         1 UNK         0.3000 
    150 H150        5.2270  -21.4708  -42.9803 H         1 UNK         0.0600 
    151 H151        4.9981  -21.0590  -45.4408 H         1 UNK         0.0600 
    152 H152        5.2082  -19.5504  -44.5629 H         1 UNK         0.0600 
    153 H153        3.6107  -20.0205  -45.1376 H         1 UNK         0.0600 
    154 H154        3.3669  -19.2908  -42.8335 H         1 UNK         0.3000 
    155 H155        2.6330  -19.6115  -39.3512 H         1 UNK         0.0600 
    156 H156        4.2746  -17.6031  -40.9868 H         1 UNK         0.0600 
    157 H157        4.8001  -18.4084  -39.5143 H         1 UNK         0.0600 
    158 H158        3.4618  -17.2717  -39.4581 H         1 UNK         0.0600 
    159 H159        1.9142  -17.9093  -41.6422 H         1 UNK         0.3000 
    160 H160       -1.2923  -19.3573  -42.0582 H         1 UNK         0.0600 
    161 H161       -2.0793  -17.0376  -41.6200 H         1 UNK         0.0600 
    162 H162       -0.5889  -16.6791  -40.7494 H         1 UNK         0.0600 
    163 H163       -1.7159  -17.8735  -40.1163 H         1 UNK         0.0600 
    164 H164        0.0258  -17.0214  -43.1239 H         1 UNK         0.3000 
    165 H165        1.7294  -18.7030  -45.7541 H         1 UNK         0.0600 
    166 H166        0.3043  -17.4453  -47.3007 H         1 UNK         0.0600 
    167 H167       -0.7255  -18.6471  -46.5451 H         1 UNK         0.0600 
    168 H168       -0.7750  -16.9772  -46.0037 H         1 UNK         0.0600 
    169 H169        1.2641  -15.9510  -45.4037 H         1 UNK         0.3000 
    170 H170        3.1918  -15.1447  -42.6471 H         1 UNK         0.0600 
    171 H171        5.1115  -15.4924  -44.2174 H         1 UNK         0.0600 
    172 H172        4.1862  -14.7604  -45.5230 H         1 UNK         0.0600 
    173 H173        4.6612  -13.7983  -44.1222 H         1 UNK         0.0600 
    174 H174        2.2679  -13.4149  -44.6340 H         1 UNK         0.3000 
    175 H175       -0.1335  -12.2259  -43.2718 H         1 UNK         0.0600 
    176 H176        0.2109  -13.1630  -46.1868 H         1 UNK         0.0600 
    177 H177       -0.4284  -11.5962  -45.6918 H         1 UNK         0.0600 
    178 H178        1.2328  -11.9892  -45.3586 H         1 UNK         0.0600 
    179 H179       -1.6531  -14.5157  -43.9963 H         1 UNK         0.3000 
    180 H180       -4.0312  -14.2036  -43.2820 H         1 UNK         0.0600 
    181 H181       -6.1651  -13.2195  -44.0669 H         1 UNK         0.0600 
    182 H182       -5.2962  -11.9789  -44.9697 H         1 UNK         0.0600 
    183 H183       -5.2183  -12.0139  -43.2115 H         1 UNK         0.0600 
    184 H184       -4.6931  -14.0417  -46.1111 H         1 UNK         0.3000 
    185 H185       -2.6372  -16.5586  -47.2574 H         1 UNK         0.0600 
    186 H186       -4.4452  -18.1084  -47.7065 H         1 UNK         0.0600 
    187 H187       -4.1505  -18.1343  -45.9839 H         1 UNK         0.0600 
    188 H188       -5.5387  -17.2604  -46.6121 H         1 UNK         0.0600 
    189 H189       -5.1098  -15.6655  -48.2947 H         1 UNK         0.3000 
    190 H190       -0.9846  -21.0330  -45.1543 H         1 UNK         0.3000 
    191 H191       -3.5358  -20.5995  -46.3514 H         1 UNK         0.0600 
    192 H192       -2.7051  -20.7054  -43.4023 H         1 UNK         0.0600 
    193 H193       -4.1850  -19.9849  -44.0237 H         1 UNK         0.0600 
    194 H194       -2.6328  -19.2745  -44.4332 H         1 UNK         0.0600 
    195 H195       -2.1589  -23.5006  -45.0595 H         1 UNK         0.3000 
    196 H196       -4.8320  -24.8320  -44.8586 H         1 UNK         0.0600 
    197 H197       -3.5962  -26.6494  -43.7224 H         1 UNK         0.0600 
    198 H198       -3.4012  -25.1346  -42.8546 H         1 UNK         0.0600 
    199 H199       -2.0879  -25.7555  -43.8494 H         1 UNK         0.0600 
    200 H200       -1.4869  -25.2223  -46.1594 H         1 UNK         0.3000 
    201 H201       -2.0610  -27.4781  -47.7236 H         1 UNK         0.0600 
    202 H202        0.2027  -26.8527  -46.9200 H         1 UNK         0.0600 
    203 H203        0.2257  -25.4614  -48.0005 H         1 UNK         0.0600 
    204 H204        0.2059  -27.0902  -48.6610 H         1 UNK         0.0600 
    205 H205       -2.2108  -24.0243  -48.6567 H         1 UNK         0.3000 
    206 H206       -3.1395  -24.7946  -51.3973 H         1 UNK         0.0600 
    207 H207       -0.9354  -23.5972  -51.3704 H         1 UNK         0.0600 
    208 H208       -2.1967  -22.6479  -52.1347 H         1 UNK         0.0600 
    209 H209       -1.6763  -22.2568  -50.5003 H         1 UNK         0.0600 
    210 H210       -4.4195  -24.1541  -48.5573 H         1 UNK         0.3000 
    211 H211       -6.2602  -23.2800  -47.6887 H         1 UNK         0.0600 
    212 H212       -7.2770  -23.5194  -50.5754 H         1 UNK         0.0600 
    213 H213       -8.3006  -23.2728  -49.1623 H         1 UNK         0.0600 
    214 H214       -7.3541  -24.7419  -49.3151 H         1 UNK         0.0600 
    215 H215       -7.1595  -21.4976  -50.5688 H         1 UNK         0.3000 
    216 H216       -7.2128  -18.9498  -49.2280 H         1 UNK         0.0600 
    217 H217       -7.8595  -18.1215  -51.4969 H         1 UNK         0.0600 
    218 H218       -8.7966  -19.5396  -51.0526 H         1 UNK         0.0600 
    219 H219       -7.4601  -19.6850  -52.1961 H         1 UNK         0.0600 
    220 H220       -4.7652  -20.6774  -50.9911 H         1 UNK         0.3000 
    221 H221       -2.7145  -20.3154  -51.6694 H         1 UNK         0.0600 
    222 H222       -1.2223  -18.9100  -50.2828 H         1 UNK         0.0600 
    223 H223       -2.6100  -18.0496  -49.6133 H         1 UNK         0.0600 
    224 H224       -2.3621  -19.7529  -49.2552 H         1 UNK         0.0600 
    225 H225       -1.1738  -17.8698  -51.9619 H         1 UNK         0.3000 
    226 H226       -0.5838  -16.4831  -53.6123 H         1 UNK         0.0600 
    227 H227       -2.1964  -14.9718  -52.5465 H         1 UNK         0.0600 
    228 H228       -2.2262  -14.7232  -54.2827 H         1 UNK         0.0600 
    229 H229       -3.5248  -15.6183  -53.4954 H         1 UNK         0.0600 
    230 H230       -3.5609  -16.4296  -55.3598 H         1 UNK         0.3000 
    231 H231       -2.4268  -17.6099  -57.7263 H         1 UNK         0.0600 
    232 H232       -4.1174  -15.7932  -57.8125 H         1 UNK         0.0600 
    233 H233       -5.3103  -16.8320  -57.0307 H         1 UNK         0.0600 
    234 H234       -4.7183  -17.2197  -58.6416 H         1 UNK         0.0600 
    235 H235       -4.1154  -18.9861  -54.9699 H         1 UNK         0.3000 
    236 H236       -5.0603  -21.3664  -56.3780 H         1 UNK         0.0600 
    237 H237       -5.8533  -22.0445  -54.1585 H         1 UNK         0.0600 
    238 H238       -4.9288  -20.7732  -53.3834 H         1 UNK         0.0600 
    239 H239       -6.2881  -20.3628  -54.4288 H         1 UNK         0.0600 
    240 H240       -1.9890  -20.4096  -55.2163 H         1 UNK         0.3000 
    241 H241       -0.9697  -22.9219  -54.2813 H         1 UNK         0.0600 
    242 H242        0.1938  -24.6880  -57.1362 H         1 UNK         0.3800 
    243 H243        0.1234  -24.6253  -55.3990 H         1 UNK         0.3800 
    244 H244        0.4919  -20.4912  -55.4331 H         1 UNK         0.0800 
    245 H245        1.2884  -21.8682  -54.7110 H         1 UNK         0.0800 
    246 H246        2.5744  -20.1336  -53.3168 H         1 UNK         0.0800 
    247 H247        1.6211  -18.7462  -53.7945 H         1 UNK         0.0800 
@<TRIPOS>BOND
     1    1    2 1    
     2    1  127 1    
     3    1  128 1    
     4    1  129 1    
     5    2    3 2    
     6    2    4 am   BACKBONE|DICT|INTERRES
     7    4    5 1    
     8    4  130 1    
     9    5    6 1    
    10    5   65 1    
    11    5  131 1    
    12    6    7 1    
    13    6  132 1    
    14    6  133 1    
    15    7    8 1    
    16    8    9 1    
    17    8  134 1    
    18    8  135 1    
    19    9   10 ar   
    20    9   14 ar   
    21   10   11 ar   
    22   10  136 1    
    23   11   12 ar   
    24   11  126 1    
    25   12   13 ar   
    26   12  137 1    
    27   13   14 ar   
    28   13   15 1    
    29   14  138 1    
    30   15   16 1    
    31   15  139 1    
    32   15  140 1    
    33   16   17 1    
    34   17   18 1    
    35   17  141 1    
    36   17  142 1    
    37   18   19 1    
    38   18   67 1    
    39   18  143 1    
    40   19   20 am   BACKBONE|DICT|INTERRES
    41   19  144 1    
    42   20   21 2    
    43   20   22 1    
    44   22   23 1    
    45   22   24 1    
    46   22  145 1    
    47   23  146 1    
    48   23  147 1    
    49   23  148 1    
    50   24   25 am   BACKBONE|DICT|INTERRES
    51   24  149 1    
    52   25   26 2    
    53   25   27 1    
    54   27   28 1    
    55   27   29 1    
    56   27  150 1    
    57   28  151 1    
    58   28  152 1    
    59   28  153 1    
    60   29   30 am   BACKBONE|DICT|INTERRES
    61   29  154 1    
    62   30   31 2    
    63   30   32 1    
    64   32   33 1    
    65   32   34 1    
    66   32  155 1    
    67   33  156 1    
    68   33  157 1    
    69   33  158 1    
    70   34   35 am   BACKBONE|DICT|INTERRES
    71   34  159 1    
    72   35   36 2    
    73   35   37 1    
    74   37   38 1    
    75   37   39 1    
    76   37  160 1    
    77   38  161 1    
    78   38  162 1    
    79   38  163 1    
    80   39   40 am   BACKBONE|DICT|INTERRES
    81   39  164 1    
    82   40   41 2    
    83   40   42 1    
    84   42   43 1    
    85   42   44 1    
    86   42  165 1    
    87   43  166 1    
    88   43  167 1    
    89   43  168 1    
    90   44   45 am   BACKBONE|DICT|INTERRES
    91   44  169 1    
    92   45   46 2    
    93   45   47 1    
    94   47   48 1    
    95   47   49 1    
    96   47  170 1    
    97   48  171 1    
    98   48  172 1    
    99   48  173 1    
   100   49   50 am   BACKBONE|DICT|INTERRES
   101   49  174 1    
   102   50   51 2    
   103   50   52 1    
   104   52   53 1    
   105   52   54 1    
   106   52  175 1    
   107   53  176 1    
   108   53  177 1    
   109   53  178 1    
   110   54   55 am   BACKBONE|DICT|INTERRES
   111   54  179 1    
   112   55   56 2    
   113   55   57 1    
   114   57   58 1    
   115   57   59 1    
   116   57  180 1    
   117   58  181 1    
   118   58  182 1    
   119   58  183 1    
   120   59   60 am   BACKBONE|DICT|INTERRES
   121   59  184 1    
   122   60   61 2    
   123   60   62 1    
   124   62   63 1    
   125   62   64 1    
   126   62  185 1    
   127   63  186 1    
   128   63  187 1    
   129   63  188 1    
   130   64   65 am   BACKBONE|DICT|INTERRES
   131   64  189 1    
   132   65   66 2    
   133   67   68 2    
   134   67   69 am   BACKBONE|DICT|INTERRES
   135   69   70 1    
   136   69  190 1    
   137   70   71 1    
   138   70   72 1    
   139   70  191 1    
   140   71  192 1    
   141   71  193 1    
   142   71  194 1    
   143   72   73 2    
   144   72   74 am   BACKBONE|DICT|INTERRES
   145   74   75 1    
   146   74  195 1    
   147   75   76 1    
   148   75   77 1    
   149   75  196 1    
   150   76  197 1    
   151   76  198 1    
   152   76  199 1    
   153   77   78 2    
   154   77   79 am   BACKBONE|DICT|INTERRES
   155   79   80 1    
   156   79  200 1    
   157   80   81 1    
   158   80   82 1    
   159   80  201 1    
   160   81  202 1    
   161   81  203 1    
   162   81  204 1    
   163   82   83 2    
   164   82   84 am   BACKBONE|DICT|INTERRES
   165   84   85 1    
   166   84  205 1    
   167   85   86 1    
   168   85   87 1    
   169   85  206 1    
   170   86  207 1    
   171   86  208 1    
   172   86  209 1    
   173   87   88 2    
   174   87   89 am   BACKBONE|DICT|INTERRES
   175   89   90 1    
   176   89  210 1    
   177   90   91 1    
   178   90   92 1    
   179   90  211 1    
   180   91  212 1    
   181   91  213 1    
   182   91  214 1    
   183   92   93 2    
   184   92   94 am   BACKBONE|DICT|INTERRES
   185   94   95 1    
   186   94  215 1    
   187   95   96 1    
   188   95   97 1    
   189   95  216 1    
   190   96  217 1    
   191   96  218 1    
   192   96  219 1    
   193   97   98 2    
   194   97   99 am   BACKBONE|DICT|INTERRES
   195   99  100 1    
   196   99  220 1    
   197  100  101 1    
   198  100  102 1    
   199  100  221 1    
   200  101  222 1    
   201  101  223 1    
   202  101  224 1    
   203  102  103 2    
   204  102  104 am   BACKBONE|DICT|INTERRES
   205  104  105 1    
   206  104  225 1    
   207  105  106 1    
   208  105  107 1    
   209  105  226 1    
   210  106  227 1    
   211  106  228 1    
   212  106  229 1    
   213  107  108 2    
   214  107  109 am   BACKBONE|DICT|INTERRES
   215  109  110 1    
   216  109  230 1    
   217  110  111 1    
   218  110  112 1    
   219  110  231 1    
   220  111  232 1    
   221  111  233 1    
   222  111  234 1    
   223  112  113 2    
   224  112  114 am   BACKBONE|DICT|INTERRES
   225  114  115 1    
   226  114  235 1    
   227  115  116 1    
   228  115  117 1    
   229  115  236 1    
   230  116  237 1    
   231  116  238 1    
   232  116  239 1    
   233  117  118 2    
   234  117  119 am   BACKBONE|DICT|INTERRES
   235  119  120 1    
   236  119  240 1    
   237  120  121 1    
   238  120  124 1    
   239  120  241 1    
   240  121  122 am   BACKBONE|DICT|INTERRES
   241  121  123 2    
   242  122  242 1    
   243  122  243 1    
   244  124  125 1    
   245  124  244 1    
   246  124  245 1    
   247  125  126 1    
   248  126  246 1    
   249  126  247 1    
@<TRIPOS>SUBSTRUCTURE
     1 UNK         1 GROUP             0       ****    0 ROOT    
