@<TRIPOS>MOLECULE
3R540
247   249    1
SMALL
USER_CHARGES


@<TRIPOS>ATOM
      1 CA          6.2357   -9.6118  -45.9757 C.3       0 UNK        -0.1800 
      2 C           5.0634  -10.5762  -46.0823 C.2       0 UNK         0.5000 
      3 O           4.0699  -10.4172  -45.3717 O.2       0 UNK        -0.5000 
      4 N           5.1653  -11.5721  -46.9722 N.am      1 UNK        -0.5000 
      5 CA          4.1432  -12.5911  -47.2325 C.3       1 UNK         0.1400 
      6 C6          4.7768  -13.8985  -47.7731 C.3       23 UNK        -0.0398 
      7 S7          3.6747  -15.3470  -47.6060 S.3       23 UNK        -0.2404 
      8 C8          3.5236  -15.8400  -49.3495 C.3       23 UNK        -0.0205 
      9 C9          2.5096  -16.9550  -49.5413 C.ar      23 UNK        -0.0193 
     10 C10         1.1576  -16.6477  -49.7181 C.ar      23 UNK        -0.1150 
     11 C11         0.2228  -17.6613  -49.9469 C.ar      23 UNK        -0.0193 
     12 C12         0.6544  -18.9879  -50.0145 C.ar      23 UNK        -0.1150 
     13 C13         2.0033  -19.3103  -49.8336 C.ar      23 UNK        -0.0193 
     14 C14         2.9253  -18.2888  -49.5871 C.ar      23 UNK        -0.1150 
     15 C15         2.4695  -20.7563  -49.9394 C.3       23 UNK        -0.0205 
     16 S16         2.3886  -21.6284  -48.3431 S.3       23 UNK        -0.2404 
     17 C17         0.5880  -21.6852  -48.0825 C.3       23 UNK        -0.0398 
     18 CA          0.1461  -22.7529  -47.0592 C.3       11 UNK         0.1400 
     19 N           0.5836  -22.4302  -45.6960 N.am      11 UNK        -0.5000 
     20 C           0.4451  -23.2365  -44.6338 C.2       10 UNK         0.5000 
     21 O          -0.0273  -24.3712  -44.6973 O.2       10 UNK        -0.5000 
     22 CA          0.8518  -22.6627  -43.2640 C.3       10 UNK         0.1400 
     23 CB          2.3720  -22.7374  -43.0568 C.3       10 UNK        -0.1800 
     24 N           0.3885  -21.2857  -43.0883 N.am      10 UNK        -0.5000 
     25 C          -0.8996  -20.9378  -42.9541 C.2       9 UNK         0.5000 
     26 O          -1.8178  -21.7536  -42.8707 O.2       9 UNK        -0.5000 
     27 CA         -1.2264  -19.4313  -42.9480 C.3       9 UNK         0.1400 
     28 CB         -1.1063  -18.8507  -41.5318 C.3       9 UNK        -0.1800 
     29 N          -0.3880  -18.6591  -43.8661 N.am      9 UNK        -0.5000 
     30 C          -0.3852  -18.8018  -45.1988 C.2       8 UNK         0.5000 
     31 O          -1.1271  -19.5726  -45.8041 O.2       8 UNK        -0.5000 
     32 CA          0.6575  -17.9869  -45.9831 C.3       8 UNK         0.1400 
     33 CB          0.1441  -16.5661  -46.2508 C.3       8 UNK        -0.1800 
     34 N           1.9494  -17.9319  -45.2984 N.am      8 UNK        -0.5000 
     35 C           2.7256  -19.0012  -45.0719 C.2       7 UNK         0.5000 
     36 O           2.4322  -20.1431  -45.4202 O.2       7 UNK        -0.5000 
     37 CA          4.0088  -18.7645  -44.2563 C.3       7 UNK         0.1400 
     38 CB          5.0889  -18.0864  -45.1125 C.3       7 UNK        -0.1800 
     39 N           3.7579  -17.9634  -43.0581 N.am      7 UNK        -0.5000 
     40 C           2.9905  -18.3539  -42.0295 C.2       6 UNK         0.5000 
     41 O           2.4768  -19.4688  -41.9448 O.2       6 UNK        -0.5000 
     42 CA          2.7080  -17.3030  -40.9369 C.3       6 UNK         0.1400 
     43 CB          3.7806  -17.3651  -39.8395 C.3       6 UNK        -0.1800 
     44 N           2.6202  -15.9325  -41.4533 N.am      6 UNK        -0.5000 
     45 C           1.7326  -15.5171  -42.3671 C.2       5 UNK         0.5000 
     46 O           0.8755  -16.2511  -42.8641 O.2       5 UNK        -0.5000 
     47 CA          1.8812  -14.0618  -42.8468 C.3       5 UNK         0.1400 
     48 CB          3.1613  -13.9001  -43.6819 C.3       5 UNK        -0.1800 
     49 N           0.7412  -13.6379  -43.6605 N.am      5 UNK        -0.5000 
     50 C          -0.4460  -13.2578  -43.1695 C.2       4 UNK         0.5000 
     51 O          -0.6801  -13.1671  -41.9631 O.2       4 UNK        -0.5000 
     52 CA         -1.5559  -12.9082  -44.1810 C.3       4 UNK         0.1400 
     53 CB         -2.1196  -11.4984  -43.9292 C.3       4 UNK        -0.1800 
     54 N          -1.1007  -12.9886  -45.5730 N.am      4 UNK        -0.5000 
     55 C          -1.7738  -13.5738  -46.5728 C.2       3 UNK         0.5000 
     56 O          -2.8375  -14.1731  -46.4118 O.2       3 UNK        -0.5000 
     57 CA         -1.1480  -13.5051  -47.9866 C.3       3 UNK         0.1400 
     58 CB         -2.2090  -13.3576  -49.0966 C.3       3 UNK        -0.1800 
     59 N          -0.0845  -12.5029  -48.1441 N.am      3 UNK        -0.5000 
     60 C          -0.1772  -11.1693  -48.0274 C.2       2 UNK         0.5000 
     61 O          -1.2243  -10.5819  -47.7531 O.2       2 UNK        -0.5000 
     62 CA          1.1341  -10.3699  -48.2083 C.3       2 UNK         0.1400 
     63 CB          1.0355   -8.9397  -47.6474 C.3       2 UNK        -0.1800 
     64 N           2.2819  -11.0337  -47.5830 N.am      2 UNK        -0.5000 
     65 C           3.0062  -12.0252  -48.1149 C.2       1 UNK         0.5000 
     66 O           2.7865  -12.4846  -49.2354 O.2       1 UNK        -0.5000 
     67 C          -1.3807  -22.9583  -47.1560 C.2       11 UNK         0.5000 
     68 O          -1.8285  -23.8377  -47.8948 O.2       11 UNK        -0.5000 
     69 N          -2.1574  -22.1619  -46.4076 N.am      12 UNK        -0.5000 
     70 CA         -3.6214  -22.1977  -46.3641 C.3       12 UNK         0.1400 
     71 CB         -4.1441  -21.0419  -45.4993 C.3       12 UNK        -0.1800 
     72 C          -4.2123  -23.5400  -45.8914 C.2       12 UNK         0.5000 
     73 O          -5.3417  -23.8540  -46.2656 O.2       12 UNK        -0.5000 
     74 N          -3.4338  -24.3428  -45.1503 N.am      13 UNK        -0.5000 
     75 CA         -3.7844  -25.7140  -44.7635 C.3       13 UNK         0.1400 
     76 CB         -2.7573  -26.2329  -43.7468 C.3       13 UNK        -0.1800 
     77 C          -3.8940  -26.6798  -45.9643 C.2       13 UNK         0.5000 
     78 O          -4.6334  -27.6610  -45.8843 O.2       13 UNK        -0.5000 
     79 N          -3.1875  -26.3667  -47.0591 N.am      14 UNK        -0.5000 
     80 CA         -3.2650  -27.0455  -48.3548 C.3       14 UNK         0.1400 
     81 CB         -1.8330  -27.3647  -48.8190 C.3       14 UNK        -0.1800 
     82 C          -3.9999  -26.1760  -49.3973 C.2       14 UNK         0.5000 
     83 O          -3.9068  -26.4511  -50.5957 O.2       14 UNK        -0.5000 
     84 N          -4.6678  -25.1048  -48.9387 N.am      15 UNK        -0.5000 
     85 CA         -5.3351  -24.0631  -49.7246 C.3       15 UNK         0.1400 
     86 CB         -6.6121  -24.6189  -50.3860 C.3       15 UNK        -0.1800 
     87 C          -4.3962  -23.3661  -50.7310 C.2       15 UNK         0.5000 
     88 O          -4.8438  -22.9807  -51.8107 O.2       15 UNK        -0.5000 
     89 N          -3.1116  -23.2251  -50.3710 N.am      16 UNK        -0.5000 
     90 CA         -2.0148  -22.7313  -51.2124 C.3       16 UNK         0.1400 
     91 CB         -2.1843  -21.2302  -51.5293 C.3       16 UNK        -0.1800 
     92 C          -1.7804  -23.6097  -52.4593 C.2       16 UNK         0.5000 
     93 O          -1.5238  -23.0902  -53.5450 O.2       16 UNK        -0.5000 
     94 N          -1.8836  -24.9329  -52.2601 N.am      17 UNK        -0.5000 
     95 CA         -1.8379  -25.9945  -53.2695 C.3       17 UNK         0.1400 
     96 CB         -0.4696  -26.0431  -53.9824 C.3       17 UNK        -0.1800 
     97 C          -3.0384  -25.9010  -54.2313 C.2       17 UNK         0.5000 
     98 O          -2.8625  -25.8944  -55.4511 O.2       17 UNK        -0.5000 
     99 N          -4.2395  -25.8224  -53.6376 N.am      18 UNK        -0.5000 
    100 CA        -5.5454  -25.6909  -54.2940 C.3       18 UNK         0.1400 
    101 CB        -5.8973  -26.9763  -55.0719 C.3       18 UNK        -0.1800 
    102 C         -5.6655  -24.4088  -55.1474 C.2       18 UNK         0.5000 
    103 O         -6.1146  -24.4606  -56.2941 O.2       18 UNK        -0.5000 
    104 N         -5.2707  -23.2764  -54.5553 N.am      19 UNK        -0.5000 
    105 CA        -5.3355  -21.9329  -55.1315 C.3       19 UNK         0.1400 
    106 CB        -3.9072  -21.4222  -55.3882 C.3       19 UNK        -0.1800 
    107 C         -6.1415  -20.9934  -54.2125 C.2       19 UNK         0.5000 
    108 O         -5.8457  -19.7995  -54.1364 O.2       19 UNK        -0.5000 
    109 N         -7.1364  -21.5604  -53.5106 N.am      20 UNK        -0.5000 
    110 CA        -8.1077  -20.9022  -52.6256 C.3       20 UNK         0.1400 
    111 CB        -9.0631  -20.0195  -53.4555 C.3       20 UNK        -0.1800 
    112 C         -7.4851  -20.1345  -51.4371 C.2       20 UNK         0.5000 
    113 O         -8.1166  -19.2175  -50.9111 O.2       20 UNK        -0.5000 
    114 N         -6.2658  -20.5262  -51.0358 N.am      21 UNK        -0.5000 
    115 CA        -5.4169  -19.8793  -50.0274 C.3       21 UNK         0.1400 
    116 CB        -6.0486  -19.9637  -48.6217 C.3       21 UNK        -0.1800 
    117 C         -4.9902  -18.4481  -50.4262 C.2       21 UNK         0.5000 
    118 O         -4.8466  -17.5881  -49.5561 O.2       21 UNK        -0.5000 
    119 N         -4.7790  -18.2400  -51.7343 N.am      22 UNK        -0.5000 
    120 CA        -4.4645  -16.9652  -52.4024 C.3       22 UNK         0.1400 
    121 C         -5.6868  -16.0063  -52.5207 C.2       22 UNK         0.5000 
    122 N         -5.5919  -14.9818  -53.3587 N.am      22 UNK        -0.7600 
    123 O         -6.7206  -16.1646  -51.8765 O.2       22 UNK        -0.5000 
    124 C124       -3.2185  -16.2273  -51.8307 C.3       23 UNK        -0.0398 
    125 S125       -1.6816  -17.2112  -51.8936 S.3       23 UNK        -0.2404 
    126 C126       -1.2480  -17.3212  -50.1297 C.3       23 UNK        -0.0205 
    127 H127        7.0411   -9.8748  -46.6618 H         1 UNK         0.0600 
    128 H128        6.6361   -9.6195  -44.9620 H         1 UNK         0.0600 
    129 H129        5.9089   -8.5980  -46.2068 H         1 UNK         0.0600 
    130 H130        5.9926  -11.6276  -47.5494 H         1 UNK         0.3000 
    131 H131        3.6847  -12.8404  -46.2760 H         1 UNK         0.0600 
    132 H132        5.1068  -13.7769  -48.8063 H         1 UNK         0.0800 
    133 H133        5.6772  -14.1310  -47.2027 H         1 UNK         0.0800 
    134 H134        3.2310  -14.9798  -49.9525 H         1 UNK         0.0800 
    135 H135        4.5012  -16.1532  -49.7192 H         1 UNK         0.0800 
    136 H136        0.8373  -15.6161  -49.6886 H         1 UNK         0.1150 
    137 H137       -0.0622  -19.7691  -50.2148 H         1 UNK         0.1150 
    138 H138        3.9703  -18.5303  -49.4524 H         1 UNK         0.1150 
    139 H139        1.8758  -21.2912  -50.6823 H         1 UNK         0.0800 
    140 H140        3.4986  -20.7862  -50.3004 H         1 UNK         0.0800 
    141 H141        0.1297  -21.8764  -49.0511 H         1 UNK         0.0800 
    142 H142        0.2492  -20.6966  -47.7732 H         1 UNK         0.0800 
    143 H143        0.6087  -23.7030  -47.3349 H         1 UNK         0.0600 
    144 H144        1.0473  -21.5343  -45.5711 H         1 UNK         0.3000 
    145 H145        0.3805  -23.2775  -42.4942 H         1 UNK         0.0600 
    146 H146        2.7259  -23.7653  -43.1434 H         1 UNK         0.0600 
    147 H147        2.9139  -22.1423  -43.7913 H         1 UNK         0.0600 
    148 H148        2.6517  -22.3789  -42.0660 H         1 UNK         0.0600 
    149 H149        1.0966  -20.5600  -43.0916 H         1 UNK         0.3000 
    150 H150       -2.2622  -19.3163  -43.2742 H         1 UNK         0.0600 
    151 H151       -1.3543  -17.7891  -41.5164 H         1 UNK         0.0600 
    152 H152       -0.0982  -18.9656  -41.1349 H         1 UNK         0.0600 
    153 H153       -1.7872  -19.3557  -40.8457 H         1 UNK         0.0600 
    154 H154        0.2166  -17.9524  -43.4557 H         1 UNK         0.3000 
    155 H155        0.8146  -18.4762  -46.9463 H         1 UNK         0.0600 
    156 H156       -0.7806  -16.5983  -46.8282 H         1 UNK         0.0600 
    157 H157        0.8659  -15.9852  -46.8228 H         1 UNK         0.0600 
    158 H158       -0.0669  -16.0282  -45.3270 H         1 UNK         0.0600 
    159 H159        2.2313  -17.0368  -44.9308 H         1 UNK         0.3000 
    160 H160        4.3863  -19.7396  -43.9408 H         1 UNK         0.0600 
    161 H161        5.2670  -18.6453  -46.0324 H         1 UNK         0.0600 
    162 H162        6.0369  -18.0304  -44.5775 H         1 UNK         0.0600 
    163 H163        4.8042  -17.0726  -45.3947 H         1 UNK         0.0600 
    164 H164        4.1465  -17.0328  -43.0402 H         1 UNK         0.3000 
    165 H165        1.7450  -17.5477  -40.4852 H         1 UNK         0.0600 
    166 H166        3.5442  -16.6891  -39.0175 H         1 UNK         0.0600 
    167 H167        3.8526  -18.3700  -39.4210 H         1 UNK         0.0600 
    168 H168        4.7661  -17.0977  -40.2229 H         1 UNK         0.0600 
    169 H169        3.2967  -15.2748  -41.0932 H         1 UNK         0.3000 
    170 H170        1.9535  -13.4179  -41.9677 H         1 UNK         0.0600 
    171 H171        3.2952  -12.8617  -43.9845 H         1 UNK         0.0600 
    172 H172        4.0491  -14.1793  -43.1136 H         1 UNK         0.0600 
    173 H173        3.1388  -14.5188  -44.5797 H         1 UNK         0.0600 
    174 H174        0.8279  -13.7668  -44.6553 H         1 UNK         0.3000 
    175 H175       -2.3540  -13.6321  -44.0052 H         1 UNK         0.0600 
    176 H176       -1.3562  -10.7317  -44.0668 H         1 UNK         0.0600 
    177 H177       -2.9414  -11.2768  -44.6103 H         1 UNK         0.0600 
    178 H178       -2.5066  -11.4014  -42.9141 H         1 UNK         0.0600 
    179 H179       -0.2609  -12.4783  -45.8020 H         1 UNK         0.3000 
    180 H180       -0.6637  -14.4693  -48.1362 H         1 UNK         0.0600 
    181 H181       -1.7502  -13.3761  -50.0852 H         1 UNK         0.0600 
    182 H182       -2.7680  -12.4265  -49.0018 H         1 UNK         0.0600 
    183 H183       -2.9309  -14.1742  -49.0623 H         1 UNK         0.0600 
    184 H184        0.8234  -12.8665  -48.4084 H         1 UNK         0.3000 
    185 H185        1.3123  -10.2927  -49.2828 H         1 UNK         0.0600 
    186 H186        0.8275   -8.9419  -46.5767 H         1 UNK         0.0600 
    187 H187        1.9630   -8.3894  -47.8071 H         1 UNK         0.0600 
    188 H188        0.2398   -8.3775  -48.1378 H         1 UNK         0.0600 
    189 H189        2.5597  -10.6954  -46.6667 H         1 UNK         0.3000 
    190 H190       -1.7144  -21.4028  -45.8969 H         1 UNK         0.3000 
    191 H191       -3.9735  -22.0359  -47.3846 H         1 UNK         0.0600 
    192 H192       -3.8247  -21.1378  -44.4623 H         1 UNK         0.0600 
    193 H193       -5.2345  -21.0136  -45.5034 H         1 UNK         0.0600 
    194 H194       -3.7954  -20.0786  -45.8712 H         1 UNK         0.0600 
    195 H195       -2.5109  -24.0192  -44.8915 H         1 UNK         0.3000 
    196 H196       -4.7607  -25.6828  -44.2755 H         1 UNK         0.0600 
    197 H197       -3.0465  -27.2141  -43.3682 H         1 UNK         0.0600 
    198 H198       -2.6742  -25.5644  -42.8896 H         1 UNK         0.0600 
    199 H199       -1.7673  -26.3344  -44.1920 H         1 UNK         0.0600 
    200 H200       -2.6158  -25.5285  -47.0451 H         1 UNK         0.3000 
    201 H201       -3.8175  -27.9828  -48.2681 H         1 UNK         0.0600 
    202 H202       -1.3104  -27.9780  -48.0848 H         1 UNK         0.0600 
    203 H203       -1.2482  -26.4567  -48.9726 H         1 UNK         0.0600 
    204 H204       -1.8355  -27.9190  -49.7583 H         1 UNK         0.0600 
    205 H205       -4.7118  -24.9729  -47.9354 H         1 UNK         0.3000 
    206 H206       -5.6415  -23.2912  -49.0185 H         1 UNK         0.0600 
    207 H207       -7.1673  -23.8329  -50.8994 H         1 UNK         0.0600 
    208 H208       -6.3848  -25.3946  -51.1164 H         1 UNK         0.0600 
    209 H209       -7.2810  -25.0500  -49.6412 H         1 UNK         0.0600 
    210 H210       -2.8259  -23.5728  -49.4586 H         1 UNK         0.3000 
    211 H211       -1.1077  -22.8409  -50.6210 H         1 UNK         0.0600 
    212 H212       -3.0833  -21.0315  -52.1115 H         1 UNK         0.0600 
    213 H213       -1.3376  -20.8500  -52.1020 H         1 UNK         0.0600 
    214 H214       -2.2406  -20.6415  -50.6146 H         1 UNK         0.0600 
    215 H215       -2.1620  -25.2442  -51.3391 H         1 UNK         0.3000 
    216 H216       -1.9537  -26.9346  -52.7279 H         1 UNK         0.0600 
    217 H217       -0.4036  -26.9160  -54.6327 H         1 UNK         0.0600 
    218 H218        0.3468  -26.1114  -53.2636 H         1 UNK         0.0600 
    219 H219       -0.2979  -25.1637  -54.6034 H         1 UNK         0.0600 
    220 H220       -4.2576  -25.8545  -52.6239 H         1 UNK         0.3000 
    221 H221       -6.2796  -25.5872  -53.4948 H         1 UNK         0.0600 
    222 H222       -5.2324  -27.1333  -55.9217 H         1 UNK         0.0600 
    223 H223       -5.8337  -27.8548  -54.4297 H         1 UNK         0.0600 
    224 H224       -6.9160  -26.9318  -55.4588 H         1 UNK         0.0600 
    225 H225       -4.9535  -23.3123  -53.5876 H         1 UNK         0.3000 
    226 H226       -5.8638  -21.9544  -56.0863 H         1 UNK         0.0600 
    227 H227       -3.3451  -22.1195  -56.0097 H         1 UNK         0.0600 
    228 H228       -3.9190  -20.4618  -55.9045 H         1 UNK         0.0600 
    229 H229       -3.3569  -21.2886  -54.4575 H         1 UNK         0.0600 
    230 H230       -7.2582  -22.5568  -53.6199 H         1 UNK         0.3000 
    231 H231       -8.7016  -21.7026  -52.1821 H         1 UNK         0.0600 
    232 H232       -8.5480  -19.1555  -53.8769 H         1 UNK         0.0600 
    233 H233       -9.5052  -20.5811  -54.2784 H         1 UNK         0.0600 
    234 H234       -9.8849  -19.6444  -52.8445 H         1 UNK         0.0600 
    235 H235       -5.8396  -21.3011  -51.5350 H         1 UNK         0.3000 
    236 H236       -4.4968  -20.4598  -49.9907 H         1 UNK         0.0600 
    237 H237       -6.9443  -19.3479  -48.5404 H         1 UNK         0.0600 
    238 H238       -6.3212  -20.9877  -48.3680 H         1 UNK         0.0600 
    239 H239       -5.3491  -19.6164  -47.8611 H         1 UNK         0.0600 
    240 H240       -5.0033  -18.9935  -52.3738 H         1 UNK         0.3000 
    241 H241       -4.2292  -17.2549  -53.4274 H         1 UNK         0.0600 
    242 H242       -6.3752  -14.3529  -53.4474 H         1 UNK         0.3800 
    243 H243       -4.7706  -14.8266  -53.9226 H         1 UNK         0.3800 
    244 H244       -3.0214  -15.3203  -52.4036 H         1 UNK         0.0800 
    245 H245       -3.4086  -15.8860  -50.8135 H         1 UNK         0.0800 
    246 H246       -1.8728  -18.0746  -49.6477 H         1 UNK         0.0800 
    247 H247       -1.4684  -16.3758  -49.6331 H         1 UNK         0.0800 
@<TRIPOS>BOND
     1    1    2 1    
     2    1  127 1    
     3    1  128 1    
     4    1  129 1    
     5    2    3 2    
     6    2    4 am   BACKBONE|DICT|INTERRES
     7    4    5 1    
     8    4  130 1    
     9    5    6 1    
    10    5   65 1    
    11    5  131 1    
    12    6    7 1    
    13    6  132 1    
    14    6  133 1    
    15    7    8 1    
    16    8    9 1    
    17    8  134 1    
    18    8  135 1    
    19    9   10 ar   
    20    9   14 ar   
    21   10   11 ar   
    22   10  136 1    
    23   11   12 ar   
    24   11  126 1    
    25   12   13 ar   
    26   12  137 1    
    27   13   14 ar   
    28   13   15 1    
    29   14  138 1    
    30   15   16 1    
    31   15  139 1    
    32   15  140 1    
    33   16   17 1    
    34   17   18 1    
    35   17  141 1    
    36   17  142 1    
    37   18   19 1    
    38   18   67 1    
    39   18  143 1    
    40   19   20 am   BACKBONE|DICT|INTERRES
    41   19  144 1    
    42   20   21 2    
    43   20   22 1    
    44   22   23 1    
    45   22   24 1    
    46   22  145 1    
    47   23  146 1    
    48   23  147 1    
    49   23  148 1    
    50   24   25 am   BACKBONE|DICT|INTERRES
    51   24  149 1    
    52   25   26 2    
    53   25   27 1    
    54   27   28 1    
    55   27   29 1    
    56   27  150 1    
    57   28  151 1    
    58   28  152 1    
    59   28  153 1    
    60   29   30 am   BACKBONE|DICT|INTERRES
    61   29  154 1    
    62   30   31 2    
    63   30   32 1    
    64   32   33 1    
    65   32   34 1    
    66   32  155 1    
    67   33  156 1    
    68   33  157 1    
    69   33  158 1    
    70   34   35 am   BACKBONE|DICT|INTERRES
    71   34  159 1    
    72   35   36 2    
    73   35   37 1    
    74   37   38 1    
    75   37   39 1    
    76   37  160 1    
    77   38  161 1    
    78   38  162 1    
    79   38  163 1    
    80   39   40 am   BACKBONE|DICT|INTERRES
    81   39  164 1    
    82   40   41 2    
    83   40   42 1    
    84   42   43 1    
    85   42   44 1    
    86   42  165 1    
    87   43  166 1    
    88   43  167 1    
    89   43  168 1    
    90   44   45 am   BACKBONE|DICT|INTERRES
    91   44  169 1    
    92   45   46 2    
    93   45   47 1    
    94   47   48 1    
    95   47   49 1    
    96   47  170 1    
    97   48  171 1    
    98   48  172 1    
    99   48  173 1    
   100   49   50 am   BACKBONE|DICT|INTERRES
   101   49  174 1    
   102   50   51 2    
   103   50   52 1    
   104   52   53 1    
   105   52   54 1    
   106   52  175 1    
   107   53  176 1    
   108   53  177 1    
   109   53  178 1    
   110   54   55 am   BACKBONE|DICT|INTERRES
   111   54  179 1    
   112   55   56 2    
   113   55   57 1    
   114   57   58 1    
   115   57   59 1    
   116   57  180 1    
   117   58  181 1    
   118   58  182 1    
   119   58  183 1    
   120   59   60 am   BACKBONE|DICT|INTERRES
   121   59  184 1    
   122   60   61 2    
   123   60   62 1    
   124   62   63 1    
   125   62   64 1    
   126   62  185 1    
   127   63  186 1    
   128   63  187 1    
   129   63  188 1    
   130   64   65 am   BACKBONE|DICT|INTERRES
   131   64  189 1    
   132   65   66 2    
   133   67   68 2    
   134   67   69 am   BACKBONE|DICT|INTERRES
   135   69   70 1    
   136   69  190 1    
   137   70   71 1    
   138   70   72 1    
   139   70  191 1    
   140   71  192 1    
   141   71  193 1    
   142   71  194 1    
   143   72   73 2    
   144   72   74 am   BACKBONE|DICT|INTERRES
   145   74   75 1    
   146   74  195 1    
   147   75   76 1    
   148   75   77 1    
   149   75  196 1    
   150   76  197 1    
   151   76  198 1    
   152   76  199 1    
   153   77   78 2    
   154   77   79 am   BACKBONE|DICT|INTERRES
   155   79   80 1    
   156   79  200 1    
   157   80   81 1    
   158   80   82 1    
   159   80  201 1    
   160   81  202 1    
   161   81  203 1    
   162   81  204 1    
   163   82   83 2    
   164   82   84 am   BACKBONE|DICT|INTERRES
   165   84   85 1    
   166   84  205 1    
   167   85   86 1    
   168   85   87 1    
   169   85  206 1    
   170   86  207 1    
   171   86  208 1    
   172   86  209 1    
   173   87   88 2    
   174   87   89 am   BACKBONE|DICT|INTERRES
   175   89   90 1    
   176   89  210 1    
   177   90   91 1    
   178   90   92 1    
   179   90  211 1    
   180   91  212 1    
   181   91  213 1    
   182   91  214 1    
   183   92   93 2    
   184   92   94 am   BACKBONE|DICT|INTERRES
   185   94   95 1    
   186   94  215 1    
   187   95   96 1    
   188   95   97 1    
   189   95  216 1    
   190   96  217 1    
   191   96  218 1    
   192   96  219 1    
   193   97   98 2    
   194   97   99 am   BACKBONE|DICT|INTERRES
   195   99  100 1    
   196   99  220 1    
   197  100  101 1    
   198  100  102 1    
   199  100  221 1    
   200  101  222 1    
   201  101  223 1    
   202  101  224 1    
   203  102  103 2    
   204  102  104 am   BACKBONE|DICT|INTERRES
   205  104  105 1    
   206  104  225 1    
   207  105  106 1    
   208  105  107 1    
   209  105  226 1    
   210  106  227 1    
   211  106  228 1    
   212  106  229 1    
   213  107  108 2    
   214  107  109 am   BACKBONE|DICT|INTERRES
   215  109  110 1    
   216  109  230 1    
   217  110  111 1    
   218  110  112 1    
   219  110  231 1    
   220  111  232 1    
   221  111  233 1    
   222  111  234 1    
   223  112  113 2    
   224  112  114 am   BACKBONE|DICT|INTERRES
   225  114  115 1    
   226  114  235 1    
   227  115  116 1    
   228  115  117 1    
   229  115  236 1    
   230  116  237 1    
   231  116  238 1    
   232  116  239 1    
   233  117  118 2    
   234  117  119 am   BACKBONE|DICT|INTERRES
   235  119  120 1    
   236  119  240 1    
   237  120  121 1    
   238  120  124 1    
   239  120  241 1    
   240  121  122 am   BACKBONE|DICT|INTERRES
   241  121  123 2    
   242  122  242 1    
   243  122  243 1    
   244  124  125 1    
   245  124  244 1    
   246  124  245 1    
   247  125  126 1    
   248  126  246 1    
   249  126  247 1    
@<TRIPOS>SUBSTRUCTURE
     1 UNK         1 GROUP             0       ****    0 ROOT    
