@<TRIPOS>MOLECULE
3R540
247   249    1
SMALL
USER_CHARGES


@<TRIPOS>ATOM
      1 CA          4.0810   -9.7995  -51.3357 C.3       0 UNK        -0.1800 
      2 C           3.3580  -10.7390  -50.3803 C.2       0 UNK         0.5000 
      3 O           3.0412  -10.3449  -49.2574 O.2       0 UNK        -0.5000 
      4 N           3.1060  -11.9787  -50.8177 N.am      1 UNK        -0.5000 
      5 CA          2.3679  -12.9980  -50.0653 C.3       1 UNK         0.1400 
      6 C6          2.5982  -14.4221  -50.6437 C.3       23 UNK        -0.0398 
      7 S7          3.8721  -15.3275  -49.7016 S.3       23 UNK        -0.2404 
      8 C8          2.8572  -16.4315  -48.6655 C.3       23 UNK        -0.0205 
      9 C9          2.5148  -17.7275  -49.3807 C.ar      23 UNK        -0.0193 
     10 C10         1.3784  -17.8108  -50.1891 C.ar      23 UNK        -0.1150 
     11 C11         1.0739  -18.9909  -50.8707 C.ar      23 UNK        -0.0193 
     12 C12         1.8894  -20.1114  -50.6981 C.ar      23 UNK        -0.1150 
     13 C13         2.9989  -20.0572  -49.8497 C.ar      23 UNK        -0.0193 
     14 C14         3.3201  -18.8567  -49.2106 C.ar      23 UNK        -0.1150 
     15 C15         3.8272  -21.3067  -49.5948 C.3       23 UNK        -0.0205 
     16 S16         3.4813  -22.0173  -47.9520 S.3       23 UNK        -0.2404 
     17 C17         1.6716  -22.2424  -48.0126 C.3       23 UNK        -0.0398 
     18 CA          1.1864  -23.3665  -47.0682 C.3       11 UNK         0.1400 
     19 N           1.4248  -23.0282  -45.6652 N.am      11 UNK        -0.5000 
     20 C           1.6780  -23.9028  -44.6861 C.2       10 UNK         0.5000 
     21 O           1.7419  -25.1217  -44.8596 O.2       10 UNK        -0.5000 
     22 CA          1.9063  -23.2970  -43.2833 C.3       10 UNK         0.1400 
     23 CB          2.4734  -24.3056  -42.2631 C.3       10 UNK        -0.1800 
     24 N           2.7139  -22.0721  -43.3213 N.am      10 UNK        -0.5000 
     25 C           3.9853  -21.9258  -43.7233 C.2       9 UNK         0.5000 
     26 O           4.7164  -22.8620  -44.0486 O.2       9 UNK        -0.5000 
     27 CA          4.5425  -20.4858  -43.7791 C.3       9 UNK         0.1400 
     28 CB          4.6377  -19.9966  -45.2319 C.3       9 UNK        -0.1800 
     29 N           3.7497  -19.5177  -43.0190 N.am      9 UNK        -0.5000 
     30 C           3.7665  -19.3878  -41.6860 C.2       8 UNK         0.5000 
     31 O           4.4948  -20.0460  -40.9424 O.2       8 UNK        -0.5000 
     32 CA          2.7766  -18.3720  -41.0817 C.3       8 UNK         0.1400 
     33 CB          3.3516  -16.9481  -41.1249 C.3       8 UNK        -0.1800 
     34 N           1.4729  -18.3947  -41.7489 N.am      8 UNK        -0.5000 
     35 C           0.6270  -19.4340  -41.7142 C.2       7 UNK         0.5000 
     36 O           0.8320  -20.4634  -41.0712 O.2       7 UNK        -0.5000 
     37 CA         -0.6396  -19.3301  -42.5774 C.3       7 UNK         0.1400 
     38 CB         -1.7419  -18.5481  -41.8475 C.3       7 UNK        -0.1800 
     39 N          -0.3821  -18.7261  -43.8854 N.am      7 UNK        -0.5000 
     40 C           0.3512  -19.2913  -44.8553 C.2       6 UNK         0.5000 
     41 O           0.8415  -20.4141  -44.7724 O.2       6 UNK        -0.5000 
     42 CA          0.6157  -18.4544  -46.1182 C.3       6 UNK         0.1400 
     43 CB         -0.5457  -18.6068  -47.1096 C.3       6 UNK        -0.1800 
     44 N           0.8396  -17.0411  -45.8130 N.am      6 UNK        -0.5000 
     45 C           1.8584  -16.5787  -45.0729 C.2       5 UNK         0.5000 
     46 O           2.7587  -17.2916  -44.6319 O.2       5 UNK        -0.5000 
     47 CA          1.8353  -15.0833  -44.7131 C.3       5 UNK         0.1400 
     48 CB          2.4790  -14.2252  -45.8124 C.3       5 UNK        -0.1800 
     49 N           0.4756  -14.6140  -44.4489 N.am      5 UNK        -0.5000 
     50 C          -0.2222  -14.9231  -43.3475 C.2       4 UNK         0.5000 
     51 O           0.2337  -15.5899  -42.4179 O.2       4 UNK        -0.5000 
     52 CA         -1.6840  -14.4384  -43.2989 C.3       4 UNK         0.1400 
     53 CB         -1.7557  -12.9805  -42.8209 C.3       4 UNK        -0.1800 
     54 N          -2.3621  -14.5592  -44.5924 N.am      4 UNK        -0.5000 
     55 C          -2.6713  -15.7270  -45.1741 C.2       3 UNK         0.5000 
     56 O          -2.4511  -16.8203  -44.6562 O.2       3 UNK        -0.5000 
     57 CA         -3.2855  -15.6705  -46.5884 C.3       3 UNK         0.1400 
     58 CB         -4.8174  -15.6054  -46.5083 C.3       3 UNK        -0.1800 
     59 N          -2.7932  -14.5649  -47.4189 N.am      3 UNK        -0.5000 
     60 C          -1.5080  -14.3644  -47.7381 C.2       2 UNK         0.5000 
     61 O          -0.5848  -15.0687  -47.3155 O.2       2 UNK        -0.5000 
     62 CA         -1.1912  -13.1570  -48.6349 C.3       2 UNK         0.1400 
     63 CB         -1.5250  -11.8280  -47.9323 C.3       2 UNK        -0.1800 
     64 N           0.2319  -13.2089  -48.9348 N.am      2 UNK        -0.5000 
     65 C           0.8620  -12.6681  -49.9785 C.2       1 UNK         0.5000 
     66 O           0.3127  -11.9801  -50.8431 O.2       1 UNK        -0.5000 
     67 C          -0.3060  -23.6687  -47.3118 C.2       11 UNK         0.5000 
     68 O          -1.1705  -23.2574  -46.5303 O.2       11 UNK        -0.5000 
     69 N          -0.5823  -24.3555  -48.4306 N.am      12 UNK        -0.5000 
     70 CA         -1.9005  -24.8378  -48.8575 C.3       12 UNK         0.1400 
     71 CB         -1.7551  -25.5898  -50.1879 C.3       12 UNK        -0.1800 
     72 C          -2.9930  -23.7598  -48.9753 C.2       12 UNK         0.5000 
     73 O          -4.1653  -24.0801  -48.7844 O.2       12 UNK        -0.5000 
     74 N          -2.6109  -22.5029  -49.2389 N.am      13 UNK        -0.5000 
     75 CA         -3.5276  -21.3591  -49.2745 C.3       13 UNK         0.1400 
     76 CB         -2.8223  -20.1388  -49.8745 C.3       13 UNK        -0.1800 
     77 C          -4.1807  -21.0235  -47.9226 C.2       13 UNK         0.5000 
     78 O          -5.2497  -20.4141  -47.9150 O.2       13 UNK        -0.5000 
     79 N          -3.5571  -21.4545  -46.8206 N.am      14 UNK        -0.5000 
     80 CA         -4.1213  -21.3842  -45.4776 C.3       14 UNK         0.1400 
     81 CB         -3.0886  -20.7571  -44.5370 C.3       14 UNK        -0.1800 
     82 C          -4.5241  -22.7817  -44.9839 C.2       14 UNK         0.5000 
     83 O          -5.6102  -22.9332  -44.4254 O.2       14 UNK        -0.5000 
     84 N          -3.6520  -23.7782  -45.1984 N.am      15 UNK        -0.5000 
     85 CA         -3.8067  -25.1371  -44.6738 C.3       15 UNK         0.1400 
     86 CB         -2.4659  -25.8785  -44.7920 C.3       15 UNK        -0.1800 
     87 C          -4.9400  -25.9482  -45.3320 C.2       15 UNK         0.5000 
     88 O          -5.5407  -26.7875  -44.6598 O.2       15 UNK        -0.5000 
     89 N          -5.2120  -25.6918  -46.6178 N.am      16 UNK        -0.5000 
     90 CA         -6.2425  -26.3677  -47.4124 C.3       16 UNK         0.1400 
     91 CB         -5.5476  -27.2431  -48.4711 C.3       16 UNK        -0.1800 
     92 C          -7.2170  -25.3716  -48.0722 C.2       16 UNK         0.5000 
     93 O          -8.0983  -25.8007  -48.8177 O.2       16 UNK        -0.5000 
     94 N          -7.0340  -24.0678  -47.8077 N.am      17 UNK        -0.5000 
     95 CA         -7.7492  -22.9241  -48.3889 C.3       17 UNK         0.1400 
     96 CB         -9.2344  -22.9341  -47.9717 C.3       17 UNK        -0.1800 
     97 C          -7.5615  -22.7795  -49.9178 C.2       17 UNK         0.5000 
     98 O          -8.3893  -22.1528  -50.5818 O.2       17 UNK        -0.5000 
     99 N          -6.4702  -23.3370  -50.4610 N.am      18 UNK        -0.5000 
    100 CA        -6.1467  -23.3780  -51.8903 C.3       18 UNK         0.1400 
    101 CB        -5.2656  -24.6118  -52.1540 C.3       18 UNK        -0.1800 
    102 C         -5.4927  -22.0687  -52.3836 C.2       18 UNK         0.5000 
    103 O         -4.4370  -22.0974  -53.0194 O.2       18 UNK        -0.5000 
    104 N         -6.1089  -20.9288  -52.0493 N.am      19 UNK        -0.5000 
    105 CA        -5.6437  -19.5763  -52.3577 C.3       19 UNK         0.1400 
    106 CB        -6.2774  -18.5984  -51.3527 C.3       19 UNK        -0.1800 
    107 C         -5.9294  -19.2011  -53.8259 C.2       19 UNK         0.5000 
    108 O         -6.7669  -18.3400  -54.0993 O.2       19 UNK        -0.5000 
    109 N         -5.2410  -19.8864  -54.7473 N.am      20 UNK        -0.5000 
    110 CA        -5.4088  -19.7658  -56.1973 C.3       20 UNK         0.1400 
    111 CB        -4.6527  -20.9160  -56.8804 C.3       20 UNK        -0.1800 
    112 C         -4.9616  -18.4091  -56.7765 C.2       20 UNK         0.5000 
    113 O         -5.5166  -17.9777  -57.7883 O.2       20 UNK        -0.5000 
    114 N         -3.9793  -17.7632  -56.1349 N.am      21 UNK        -0.5000 
    115 CA        -3.4588  -16.4512  -56.5225 C.3       21 UNK         0.1400 
    116 CB        -2.5025  -16.5743  -57.7244 C.3       21 UNK        -0.1800 
    117 C         -2.7695  -15.7644  -55.3367 C.2       21 UNK         0.5000 
    118 O         -3.0749  -14.6095  -55.0401 O.2       21 UNK        -0.5000 
    119 N         -1.8624  -16.4914  -54.6721 N.am      22 UNK        -0.5000 
    120 CA        -1.0695  -16.0172  -53.5236 C.3       22 UNK         0.1400 
    121 C         -1.8293  -15.9307  -52.1654 C.2       22 UNK         0.5000 
    122 N         -3.0974  -16.3126  -52.0804 N.am      22 UNK        -0.7600 
    123 O         -1.2578  -15.5003  -51.1689 O.2       22 UNK        -0.5000 
    124 C124        0.2780  -16.7829  -53.4055 C.3       23 UNK        -0.0398 
    125 S125        0.1419  -18.6066  -53.4797 S.3       23 UNK        -0.2404 
    126 C126       -0.1644  -19.0765  -51.7480 C.3       23 UNK        -0.0205 
    127 H127        4.3099  -10.2836  -52.2855 H         1 UNK         0.0600 
    128 H128        5.0175   -9.4609  -50.8925 H         1 UNK         0.0600 
    129 H129        3.4634   -8.9249  -51.5403 H         1 UNK         0.0600 
    130 H130        3.3720  -12.2314  -51.7582 H         1 UNK         0.3000 
    131 H131        2.7409  -12.9675  -49.0384 H         1 UNK         0.0600 
    132 H132        2.9051  -14.3801  -51.6897 H         1 UNK         0.0800 
    133 H133        1.6842  -15.0145  -50.6475 H         1 UNK         0.0800 
    134 H134        1.9416  -15.9270  -48.3568 H         1 UNK         0.0800 
    135 H135        3.4070  -16.6528  -47.7496 H         1 UNK         0.0800 
    136 H136        0.7219  -16.9596  -50.2825 H         1 UNK         0.1150 
    137 H137        1.6427  -21.0346  -51.2034 H         1 UNK         0.1150 
    138 H138        4.1830  -18.8108  -48.5609 H         1 UNK         0.1150 
    139 H139        3.6385  -22.0603  -50.3609 H         1 UNK         0.0800 
    140 H140        4.8879  -21.0609  -49.6605 H         1 UNK         0.0800 
    141 H141        1.3987  -22.4667  -49.0449 H         1 UNK         0.0800 
    142 H142        1.1950  -21.2926  -47.7646 H         1 UNK         0.0800 
    143 H143        1.7447  -24.2740  -47.3086 H         1 UNK         0.0600 
    144 H144        1.3159  -22.0482  -45.4122 H         1 UNK         0.3000 
    145 H145        0.9215  -22.9918  -42.9265 H         1 UNK         0.0600 
    146 H146        2.6052  -23.8427  -41.2850 H         1 UNK         0.0600 
    147 H147        1.7963  -25.1505  -42.1333 H         1 UNK         0.0600 
    148 H148        3.4372  -24.7057  -42.5786 H         1 UNK         0.0600 
    149 H149        2.1989  -21.2217  -43.1354 H         1 UNK         0.3000 
    150 H150        5.5519  -20.5098  -43.3634 H         1 UNK         0.0600 
    151 H151        5.2560  -20.6656  -45.8313 H         1 UNK         0.0600 
    152 H152        5.0853  -19.0041  -45.2870 H         1 UNK         0.0600 
    153 H153        3.6544  -19.9447  -45.7007 H         1 UNK         0.0600 
    154 H154        3.1751  -18.8791  -43.5618 H         1 UNK         0.3000 
    155 H155        2.6214  -18.6416  -40.0349 H         1 UNK         0.0600 
    156 H156        4.2974  -16.8940  -40.5847 H         1 UNK         0.0600 
    157 H157        2.6704  -16.2335  -40.6624 H         1 UNK         0.0600 
    158 H158        3.5392  -16.6174  -42.1464 H         1 UNK         0.0600 
    159 H159        1.2094  -17.5686  -42.2726 H         1 UNK         0.3000 
    160 H160       -0.9972  -20.3479  -42.7374 H         1 UNK         0.0600 
    161 H161       -1.4478  -17.5166  -41.6557 H         1 UNK         0.0600 
    162 H162       -1.9741  -19.0073  -40.8860 H         1 UNK         0.0600 
    163 H163       -2.6636  -18.5279  -42.4287 H         1 UNK         0.0600 
    164 H164       -0.8303  -17.8349  -44.0708 H         1 UNK         0.3000 
    165 H165        1.5212  -18.8375  -46.5935 H         1 UNK         0.0600 
    166 H166       -0.4024  -17.9881  -47.9948 H         1 UNK         0.0600 
    167 H167       -0.6301  -19.6423  -47.4385 H         1 UNK         0.0600 
    168 H168       -1.4996  -18.3339  -46.6608 H         1 UNK         0.0600 
    169 H169        0.1683  -16.3770  -46.1887 H         1 UNK         0.3000 
    170 H170        2.4271  -14.9563  -43.8040 H         1 UNK         0.0600 
    171 H171        2.5703  -13.1867  -45.4942 H         1 UNK         0.0600 
    172 H172        3.4824  -14.5807  -46.0503 H         1 UNK         0.0600 
    173 H173        1.8977  -14.2388  -46.7319 H         1 UNK         0.0600 
    174 H174        0.0101  -14.1210  -45.1965 H         1 UNK         0.3000 
    175 H175       -2.2157  -15.0607  -42.5758 H         1 UNK         0.0600 
    176 H176       -1.2710  -12.8642  -41.8506 H         1 UNK         0.0600 
    177 H177       -1.2629  -12.3015  -43.5178 H         1 UNK         0.0600 
    178 H178       -2.7895  -12.6536  -42.7076 H         1 UNK         0.0600 
    179 H179       -2.5790  -13.7034  -45.0812 H         1 UNK         0.3000 
    180 H180       -3.0173  -16.5984  -47.0964 H         1 UNK         0.0600 
    181 H181       -5.2126  -16.4329  -45.9171 H         1 UNK         0.0600 
    182 H182       -5.1576  -14.6783  -46.0454 H         1 UNK         0.0600 
    183 H183       -5.2679  -15.6731  -47.4987 H         1 UNK         0.0600 
    184 H184       -3.4925  -13.9396  -47.7922 H         1 UNK         0.3000 
    185 H185       -1.7647  -13.2512  -49.5591 H         1 UNK         0.0600 
    186 H186       -2.5903  -11.7507  -47.7131 H         1 UNK         0.0600 
    187 H187       -0.9849  -11.7252  -46.9902 H         1 UNK         0.0600 
    188 H188       -1.2650  -10.9746  -48.5589 H         1 UNK         0.0600 
    189 H189        0.7300  -13.8333  -48.3140 H         1 UNK         0.3000 
    190 H190        0.1886  -24.6422  -49.0169 H         1 UNK         0.3000 
    191 H191       -2.2419  -25.5526  -48.1078 H         1 UNK         0.0600 
    192 H192       -1.0477  -26.4147  -50.1011 H         1 UNK         0.0600 
    193 H193       -1.4102  -24.9322  -50.9869 H         1 UNK         0.0600 
    194 H194       -2.7081  -26.0179  -50.5017 H         1 UNK         0.0600 
    195 H195       -1.6316  -22.3151  -49.3893 H         1 UNK         0.3000 
    196 H196       -4.3496  -21.6182  -49.9363 H         1 UNK         0.0600 
    197 H197       -3.4335  -19.2392  -49.7895 H         1 UNK         0.0600 
    198 H198       -2.6401  -20.3009  -50.9355 H         1 UNK         0.0600 
    199 H199       -1.8692  -19.9382  -49.3879 H         1 UNK         0.0600 
    200 H200       -2.6851  -21.9628  -46.9171 H         1 UNK         0.3000 
    201 H201       -5.0146  -20.7563  -45.4590 H         1 UNK         0.0600 
    202 H202       -3.4511  -20.7415  -43.5085 H         1 UNK         0.0600 
    203 H203       -2.1477  -21.3086  -44.5523 H         1 UNK         0.0600 
    204 H204       -2.8800  -19.7267  -44.8250 H         1 UNK         0.0600 
    205 H205       -2.7643  -23.5710  -45.6493 H         1 UNK         0.3000 
    206 H206       -4.0459  -25.0545  -43.6113 H         1 UNK         0.0600 
    207 H207       -1.6715  -25.3449  -44.2693 H         1 UNK         0.0600 
    208 H208       -2.5307  -26.8751  -44.3538 H         1 UNK         0.0600 
    209 H209       -2.1587  -25.9974  -45.8302 H         1 UNK         0.0600 
    210 H210       -4.6634  -25.0004  -47.1175 H         1 UNK         0.3000 
    211 H211       -6.8516  -27.0159  -46.7796 H         1 UNK         0.0600 
    212 H212       -6.2753  -27.8125  -49.0505 H         1 UNK         0.0600 
    213 H213       -4.8721  -27.9612  -48.0062 H         1 UNK         0.0600 
    214 H214       -4.9675  -26.6434  -49.1730 H         1 UNK         0.0600 
    215 H215       -6.2848  -23.8317  -47.1745 H         1 UNK         0.3000 
    216 H216       -7.3000  -22.0352  -47.9473 H         1 UNK         0.0600 
    217 H217       -9.7277  -22.0048  -48.2588 H         1 UNK         0.0600 
    218 H218       -9.3397  -23.0340  -46.8914 H         1 UNK         0.0600 
    219 H219       -9.7830  -23.7515  -48.4402 H         1 UNK         0.0600 
    220 H220       -5.7978  -23.7748  -49.8386 H         1 UNK         0.3000 
    221 H221       -7.0717  -23.5064  -52.4561 H         1 UNK         0.0600 
    222 H222       -4.2989  -24.5263  -51.6582 H         1 UNK         0.0600 
    223 H223       -5.7452  -25.5241  -51.7987 H         1 UNK         0.0600 
    224 H224       -5.0772  -24.7382  -53.2208 H         1 UNK         0.0600 
    225 H225       -6.9915  -21.0051  -51.5552 H         1 UNK         0.3000 
    226 H226       -4.5619  -19.5336  -52.2198 H         1 UNK         0.0600 
    227 H227       -7.3665  -18.6087  -51.4118 H         1 UNK         0.0600 
    228 H228       -5.9467  -17.5758  -51.5378 H         1 UNK         0.0600 
    229 H229       -5.9968  -18.8497  -50.3294 H         1 UNK         0.0600 
    230 H230       -4.6256  -20.6234  -54.4178 H         1 UNK         0.3000 
    231 H231       -6.4721  -19.8797  -56.4195 H         1 UNK         0.0600 
    232 H232       -5.0215  -21.8853  -56.5440 H         1 UNK         0.0600 
    233 H233       -3.5826  -20.8733  -56.6725 H         1 UNK         0.0600 
    234 H234       -4.7791  -20.8793  -57.9634 H         1 UNK         0.0600 
    235 H235       -3.6058  -18.1747  -55.2927 H         1 UNK         0.3000 
    236 H236       -4.2983  -15.8158  -56.8138 H         1 UNK         0.0600 
    237 H237       -3.0215  -16.9435  -58.6088 H         1 UNK         0.0600 
    238 H238       -2.0740  -15.6053  -57.9840 H         1 UNK         0.0600 
    239 H239       -1.6763  -17.2547  -57.5150 H         1 UNK         0.0600 
    240 H240       -1.6387  -17.4230  -54.9905 H         1 UNK         0.3000 
    241 H241       -0.8041  -14.9799  -53.7370 H         1 UNK         0.0600 
    242 H242       -3.5981  -16.6066  -52.9004 H         1 UNK         0.3800 
    243 H243       -3.5719  -16.2321  -51.1965 H         1 UNK         0.3800 
    244 H244        0.9102  -16.4907  -54.2448 H         1 UNK         0.0800 
    245 H245        0.8391  -16.4781  -52.5237 H         1 UNK         0.0800 
    246 H246       -0.5263  -20.1047  -51.7488 H         1 UNK         0.0800 
    247 H247       -0.9667  -18.4710  -51.3283 H         1 UNK         0.0800 
@<TRIPOS>BOND
     1    1    2 1    
     2    1  127 1    
     3    1  128 1    
     4    1  129 1    
     5    2    3 2    
     6    2    4 am   BACKBONE|DICT|INTERRES
     7    4    5 1    
     8    4  130 1    
     9    5    6 1    
    10    5   65 1    
    11    5  131 1    
    12    6    7 1    
    13    6  132 1    
    14    6  133 1    
    15    7    8 1    
    16    8    9 1    
    17    8  134 1    
    18    8  135 1    
    19    9   10 ar   
    20    9   14 ar   
    21   10   11 ar   
    22   10  136 1    
    23   11   12 ar   
    24   11  126 1    
    25   12   13 ar   
    26   12  137 1    
    27   13   14 ar   
    28   13   15 1    
    29   14  138 1    
    30   15   16 1    
    31   15  139 1    
    32   15  140 1    
    33   16   17 1    
    34   17   18 1    
    35   17  141 1    
    36   17  142 1    
    37   18   19 1    
    38   18   67 1    
    39   18  143 1    
    40   19   20 am   BACKBONE|DICT|INTERRES
    41   19  144 1    
    42   20   21 2    
    43   20   22 1    
    44   22   23 1    
    45   22   24 1    
    46   22  145 1    
    47   23  146 1    
    48   23  147 1    
    49   23  148 1    
    50   24   25 am   BACKBONE|DICT|INTERRES
    51   24  149 1    
    52   25   26 2    
    53   25   27 1    
    54   27   28 1    
    55   27   29 1    
    56   27  150 1    
    57   28  151 1    
    58   28  152 1    
    59   28  153 1    
    60   29   30 am   BACKBONE|DICT|INTERRES
    61   29  154 1    
    62   30   31 2    
    63   30   32 1    
    64   32   33 1    
    65   32   34 1    
    66   32  155 1    
    67   33  156 1    
    68   33  157 1    
    69   33  158 1    
    70   34   35 am   BACKBONE|DICT|INTERRES
    71   34  159 1    
    72   35   36 2    
    73   35   37 1    
    74   37   38 1    
    75   37   39 1    
    76   37  160 1    
    77   38  161 1    
    78   38  162 1    
    79   38  163 1    
    80   39   40 am   BACKBONE|DICT|INTERRES
    81   39  164 1    
    82   40   41 2    
    83   40   42 1    
    84   42   43 1    
    85   42   44 1    
    86   42  165 1    
    87   43  166 1    
    88   43  167 1    
    89   43  168 1    
    90   44   45 am   BACKBONE|DICT|INTERRES
    91   44  169 1    
    92   45   46 2    
    93   45   47 1    
    94   47   48 1    
    95   47   49 1    
    96   47  170 1    
    97   48  171 1    
    98   48  172 1    
    99   48  173 1    
   100   49   50 am   BACKBONE|DICT|INTERRES
   101   49  174 1    
   102   50   51 2    
   103   50   52 1    
   104   52   53 1    
   105   52   54 1    
   106   52  175 1    
   107   53  176 1    
   108   53  177 1    
   109   53  178 1    
   110   54   55 am   BACKBONE|DICT|INTERRES
   111   54  179 1    
   112   55   56 2    
   113   55   57 1    
   114   57   58 1    
   115   57   59 1    
   116   57  180 1    
   117   58  181 1    
   118   58  182 1    
   119   58  183 1    
   120   59   60 am   BACKBONE|DICT|INTERRES
   121   59  184 1    
   122   60   61 2    
   123   60   62 1    
   124   62   63 1    
   125   62   64 1    
   126   62  185 1    
   127   63  186 1    
   128   63  187 1    
   129   63  188 1    
   130   64   65 am   BACKBONE|DICT|INTERRES
   131   64  189 1    
   132   65   66 2    
   133   67   68 2    
   134   67   69 am   BACKBONE|DICT|INTERRES
   135   69   70 1    
   136   69  190 1    
   137   70   71 1    
   138   70   72 1    
   139   70  191 1    
   140   71  192 1    
   141   71  193 1    
   142   71  194 1    
   143   72   73 2    
   144   72   74 am   BACKBONE|DICT|INTERRES
   145   74   75 1    
   146   74  195 1    
   147   75   76 1    
   148   75   77 1    
   149   75  196 1    
   150   76  197 1    
   151   76  198 1    
   152   76  199 1    
   153   77   78 2    
   154   77   79 am   BACKBONE|DICT|INTERRES
   155   79   80 1    
   156   79  200 1    
   157   80   81 1    
   158   80   82 1    
   159   80  201 1    
   160   81  202 1    
   161   81  203 1    
   162   81  204 1    
   163   82   83 2    
   164   82   84 am   BACKBONE|DICT|INTERRES
   165   84   85 1    
   166   84  205 1    
   167   85   86 1    
   168   85   87 1    
   169   85  206 1    
   170   86  207 1    
   171   86  208 1    
   172   86  209 1    
   173   87   88 2    
   174   87   89 am   BACKBONE|DICT|INTERRES
   175   89   90 1    
   176   89  210 1    
   177   90   91 1    
   178   90   92 1    
   179   90  211 1    
   180   91  212 1    
   181   91  213 1    
   182   91  214 1    
   183   92   93 2    
   184   92   94 am   BACKBONE|DICT|INTERRES
   185   94   95 1    
   186   94  215 1    
   187   95   96 1    
   188   95   97 1    
   189   95  216 1    
   190   96  217 1    
   191   96  218 1    
   192   96  219 1    
   193   97   98 2    
   194   97   99 am   BACKBONE|DICT|INTERRES
   195   99  100 1    
   196   99  220 1    
   197  100  101 1    
   198  100  102 1    
   199  100  221 1    
   200  101  222 1    
   201  101  223 1    
   202  101  224 1    
   203  102  103 2    
   204  102  104 am   BACKBONE|DICT|INTERRES
   205  104  105 1    
   206  104  225 1    
   207  105  106 1    
   208  105  107 1    
   209  105  226 1    
   210  106  227 1    
   211  106  228 1    
   212  106  229 1    
   213  107  108 2    
   214  107  109 am   BACKBONE|DICT|INTERRES
   215  109  110 1    
   216  109  230 1    
   217  110  111 1    
   218  110  112 1    
   219  110  231 1    
   220  111  232 1    
   221  111  233 1    
   222  111  234 1    
   223  112  113 2    
   224  112  114 am   BACKBONE|DICT|INTERRES
   225  114  115 1    
   226  114  235 1    
   227  115  116 1    
   228  115  117 1    
   229  115  236 1    
   230  116  237 1    
   231  116  238 1    
   232  116  239 1    
   233  117  118 2    
   234  117  119 am   BACKBONE|DICT|INTERRES
   235  119  120 1    
   236  119  240 1    
   237  120  121 1    
   238  120  124 1    
   239  120  241 1    
   240  121  122 am   BACKBONE|DICT|INTERRES
   241  121  123 2    
   242  122  242 1    
   243  122  243 1    
   244  124  125 1    
   245  124  244 1    
   246  124  245 1    
   247  125  126 1    
   248  126  246 1    
   249  126  247 1    
@<TRIPOS>SUBSTRUCTURE
     1 UNK         1 GROUP             0       ****    0 ROOT    
