@<TRIPOS>MOLECULE
3R540
247   249    1
SMALL
USER_CHARGES


@<TRIPOS>ATOM
      1 CA         -2.7558  -14.6010  -42.5741 C.3       0 UNK        -0.1800 
      2 C          -2.3578  -13.9114  -43.8713 C.2       0 UNK         0.5000 
      3 O          -1.2828  -14.1832  -44.3994 O.2       0 UNK        -0.5000 
      4 N          -3.2263  -13.0315  -44.3871 N.am      1 UNK        -0.5000 
      5 CA         -3.0331  -12.2177  -45.5950 C.3       1 UNK         0.1400 
      6 C6         -2.6591  -13.0615  -46.8487 C.3       23 UNK        -0.0398 
      7 S7         -3.4445  -12.4392  -48.3731 S.3       23 UNK        -0.2404 
      8 C8         -4.9450  -13.4707  -48.4540 C.3       23 UNK        -0.0205 
      9 C9         -4.6322  -14.9089  -48.8411 C.ar      23 UNK        -0.0193 
     10 C10        -4.3594  -15.2287  -50.1746 C.ar      23 UNK        -0.1150 
     11 C11        -4.0554  -16.5426  -50.5435 C.ar      23 UNK        -0.0193 
     12 C12        -4.0595  -17.5428  -49.5685 C.ar      23 UNK        -0.1150 
     13 C13        -4.3232  -17.2378  -48.2322 C.ar      23 UNK        -0.0193 
     14 C14        -4.6155  -15.9193  -47.8731 C.ar      23 UNK        -0.1150 
     15 C15        -4.2855  -18.3415  -47.1887 C.3       23 UNK        -0.0205 
     16 S16        -2.5738  -18.7312  -46.7081 S.3       23 UNK        -0.2404 
     17 C17        -2.8108  -20.2314  -45.6990 C.3       23 UNK        -0.0398 
     18 CA         -2.2088  -21.5060  -46.3528 C.3       11 UNK         0.1400 
     19 N          -0.7437  -21.4449  -46.4535 N.am      11 UNK        -0.5000 
     20 C           0.0194  -22.1500  -47.3024 C.2       10 UNK         0.5000 
     21 O          -0.4471  -22.9483  -48.1153 O.2       10 UNK        -0.5000 
     22 CA          1.5483  -21.9818  -47.2214 C.3       10 UNK         0.1400 
     23 CB          2.0905  -21.2847  -48.4770 C.3       10 UNK        -0.1800 
     24 N           1.9669  -21.2201  -46.0461 N.am      10 UNK        -0.5000 
     25 C           2.4315  -21.7527  -44.9082 C.2       9 UNK         0.5000 
     26 O           2.5770  -22.9628  -44.7311 O.2       9 UNK        -0.5000 
     27 CA          2.7984  -20.7784  -43.7689 C.3       9 UNK         0.1400 
     28 CB          4.3125  -20.5214  -43.7545 C.3       9 UNK        -0.1800 
     29 N           2.0937  -19.4957  -43.8381 N.am      9 UNK        -0.5000 
     30 C           0.7723  -19.3524  -43.6603 C.2       8 UNK         0.5000 
     31 O           0.0197  -20.2843  -43.3764 O.2       8 UNK        -0.5000 
     32 CA          0.1759  -17.9503  -43.8797 C.3       8 UNK         0.1400 
     33 CB          0.1719  -17.1615  -42.5630 C.3       8 UNK        -0.1800 
     34 N           0.8288  -17.1557  -44.9237 N.am      8 UNK        -0.5000 
     35 C           0.9963  -17.5272  -46.2020 C.2       7 UNK         0.5000 
     36 O           0.7782  -18.6616  -46.6221 O.2       7 UNK        -0.5000 
     37 CA          1.5236  -16.4609  -47.1691 C.3       7 UNK         0.1400 
     38 CB          0.4519  -15.3938  -47.4433 C.3       7 UNK        -0.1800 
     39 N           2.7303  -15.8424  -46.6254 N.am      7 UNK        -0.5000 
     40 C           3.9749  -16.2383  -46.9261 C.2       6 UNK         0.5000 
     41 O           4.2372  -17.0700  -47.7956 O.2       6 UNK        -0.5000 
     42 CA          5.1313  -15.6248  -46.1108 C.3       6 UNK         0.1400 
     43 CB          5.7364  -14.4204  -46.8466 C.3       6 UNK        -0.1800 
     44 N           4.7505  -15.2184  -44.7574 N.am      6 UNK        -0.5000 
     45 C           4.3631  -16.0592  -43.7875 C.2       5 UNK         0.5000 
     46 O           4.2891  -17.2801  -43.9265 O.2       5 UNK        -0.5000 
     47 CA          3.9423  -15.4288  -42.4455 C.3       5 UNK         0.1400 
     48 CB          5.1543  -15.3111  -41.5096 C.3       5 UNK        -0.1800 
     49 N           3.2897  -14.1184  -42.5502 N.am      5 UNK        -0.5000 
     50 C           2.2457  -13.8105  -43.3336 C.2       4 UNK         0.5000 
     51 O           1.7456  -14.6001  -44.1353 O.2       4 UNK        -0.5000 
     52 CA          1.6700  -12.3829  -43.2326 C.3       4 UNK         0.1400 
     53 CB          2.4217  -11.4563  -42.2506 C.3       4 UNK        -0.1800 
     54 N           1.5614  -11.7510  -44.5484 N.am      4 UNK        -0.5000 
     55 C           2.5492  -11.5406  -45.4334 C.2       3 UNK         0.5000 
     56 O           3.7261  -11.8424  -45.2278 O.2       3 UNK        -0.5000 
     57 CA          2.1704  -10.8956  -46.7838 C.3       3 UNK         0.1400 
     58 CB          2.3560  -11.8982  -47.9323 C.3       3 UNK        -0.1800 
     59 N           0.7955  -10.3932  -46.8223 N.am      3 UNK        -0.5000 
     60 C           0.3870   -9.2355  -46.2859 C.2       2 UNK         0.5000 
     61 O           1.1429   -8.4263  -45.7475 O.2       2 UNK        -0.5000 
     62 CA         -1.1260   -8.9432  -46.3413 C.3       2 UNK         0.1400 
     63 CB         -1.4620   -8.0812  -47.5678 C.3       2 UNK        -0.1800 
     64 N          -1.9631  -10.1484  -46.3621 N.am      2 UNK        -0.5000 
     65 C          -2.0575  -11.0388  -45.3650 C.2       1 UNK         0.5000 
     66 O          -1.4167  -10.9407  -44.3155 O.2       1 UNK        -0.5000 
     67 C          -2.6895  -22.8004  -45.6466 C.2       11 UNK         0.5000 
     68 O          -3.5003  -22.7387  -44.7208 O.2       11 UNK        -0.5000 
     69 N          -2.1918  -23.9584  -46.0941 N.am      12 UNK        -0.5000 
     70 CA         -2.6221  -25.2808  -45.6561 C.3       12 UNK         0.1400 
     71 CB         -1.4700  -26.2775  -45.8553 C.3       12 UNK        -0.1800 
     72 C          -3.8552  -25.6969  -46.4691 C.2       12 UNK         0.5000 
     73 O          -3.7749  -25.7610  -47.6971 O.2       12 UNK        -0.5000 
     74 N          -4.9729  -25.9742  -45.7857 N.am      13 UNK        -0.5000 
     75 CA         -6.2552  -26.3352  -46.4011 C.3       13 UNK         0.1400 
     76 CB         -7.3262  -26.4693  -45.3088 C.3       13 UNK        -0.1800 
     77 C          -6.1858  -27.6145  -47.2559 C.2       13 UNK         0.5000 
     78 O          -6.7833  -27.6624  -48.3312 O.2       13 UNK        -0.5000 
     79 N          -5.4032  -28.5983  -46.7914 N.am      14 UNK        -0.5000 
     80 CA         -5.1445  -29.8670  -47.4771 C.3       14 UNK         0.1400 
     81 CB         -4.4204  -30.8142  -46.5081 C.3       14 UNK        -0.1800 
     82 C          -4.3392  -29.7179  -48.7846 C.2       14 UNK         0.5000 
     83 O          -4.4252  -30.5934  -49.6462 O.2       14 UNK        -0.5000 
     84 N          -3.5852  -28.6180  -48.9172 N.am      15 UNK        -0.5000 
     85 CA         -2.8085  -28.2756  -50.1094 C.3       15 UNK         0.1400 
     86 CB         -1.5211  -27.5593  -49.6665 C.3       15 UNK        -0.1800 
     87 C          -3.6000  -27.3951  -51.0974 C.2       15 UNK         0.5000 
     88 O          -3.0596  -27.0676  -52.1536 O.2       15 UNK        -0.5000 
     89 N          -4.8387  -27.0189  -50.7362 N.am      16 UNK        -0.5000 
     90 CA         -5.6924  -26.0140  -51.3747 C.3       16 UNK         0.1400 
     91 CB         -6.0235  -26.3744  -52.8387 C.3       16 UNK        -0.1800 
     92 C          -5.0641  -24.6179  -51.2193 C.2       16 UNK         0.5000 
     93 O          -4.4918  -24.0840  -52.1691 O.2       16 UNK        -0.5000 
     94 N          -5.1628  -24.0820  -49.9946 N.am      17 UNK        -0.5000 
     95 CA         -4.5458  -22.8554  -49.4735 C.3       17 UNK         0.1400 
     96 CB         -5.2944  -22.4524  -48.1921 C.3       17 UNK        -0.1800 
     97 C          -4.4859  -21.6580  -50.4420 C.2       17 UNK         0.5000 
     98 O          -3.4303  -21.0394  -50.5836 O.2       17 UNK        -0.5000 
     99 N          -5.6156  -21.3787  -51.1068 N.am      18 UNK        -0.5000 
    100 CA        -5.7788  -20.2909  -52.0733 C.3       18 UNK         0.1400 
    101 CB        -7.2659  -20.1634  -52.4347 C.3       18 UNK        -0.1800 
    102 C         -4.9266  -20.4464  -53.3486 C.2       18 UNK         0.5000 
    103 O         -4.5694  -19.4384  -53.9573 O.2       18 UNK        -0.5000 
    104 N         -4.6082  -21.6897  -53.7270 N.am      19 UNK        -0.5000 
    105 CA        -3.6952  -22.0065  -54.8219 C.3       19 UNK         0.1400 
    106 CB        -4.1673  -23.2868  -55.5290 C.3       19 UNK        -0.1800 
    107 C         -2.2604  -22.1713  -54.2978 C.2       19 UNK         0.5000 
    108 O         -1.3238  -21.6981  -54.9399 O.2       19 UNK        -0.5000 
    109 N         -2.1112  -22.8244  -53.1376 N.am      20 UNK        -0.5000 
    110 CA        -0.8293  -23.1473  -52.5117 C.3       20 UNK         0.1400 
    111 CB        -1.0734  -24.0135  -51.2680 C.3       20 UNK        -0.1800 
    112 C          0.0217  -21.9158  -52.1548 C.2       20 UNK         0.5000 
    113 O          1.2281  -21.9283  -52.4041 O.2       20 UNK        -0.5000 
    114 N         -0.6104  -20.8805  -51.5865 N.am      21 UNK        -0.5000 
    115 CA         0.0817  -19.6699  -51.1442 C.3       21 UNK         0.1400 
    116 CB        -0.6779  -19.0599  -49.9597 C.3       21 UNK        -0.1800 
    117 C          0.2702  -18.6235  -52.2560 C.2       21 UNK         0.5000 
    118 O          1.2213  -17.8447  -52.1734 O.2       21 UNK        -0.5000 
    119 N         -0.6287  -18.5991  -53.2500 N.am      22 UNK        -0.5000 
    120 CA        -0.6905  -17.5400  -54.2772 C.3       22 UNK         0.1400 
    121 C         -0.3673  -18.0151  -55.7215 C.2       22 UNK         0.5000 
    122 N         -0.2253  -19.3027  -56.0037 N.am      22 UNK        -0.7600 
    123 O         -0.2140  -17.1864  -56.6150 O.2       22 UNK        -0.5000 
    124 C124       -2.0346  -16.7666  -54.2317 C.3       23 UNK        -0.0398 
    125 S125       -2.3134  -15.9398  -52.6266 S.3       23 UNK        -0.2404 
    126 C126       -3.7273  -16.8912  -51.9884 C.3       23 UNK        -0.0205 
    127 H127       -2.0116  -14.4038  -41.8025 H         1 UNK         0.0600 
    128 H128       -3.7236  -14.2555  -42.2101 H         1 UNK         0.0600 
    129 H129       -2.8138  -15.6788  -42.7265 H         1 UNK         0.0600 
    130 H130       -4.0790  -12.8412  -43.8799 H         1 UNK         0.3000 
    131 H131       -4.0118  -11.7653  -45.7629 H         1 UNK         0.0600 
    132 H132       -1.5788  -13.0993  -46.9979 H         1 UNK         0.0800 
    133 H133       -2.9531  -14.1008  -46.7112 H         1 UNK         0.0800 
    134 H134       -5.4677  -13.4318  -47.4970 H         1 UNK         0.0800 
    135 H135       -5.6267  -13.0416  -49.1897 H         1 UNK         0.0800 
    136 H136       -4.3638  -14.4494  -50.9239 H         1 UNK         0.1150 
    137 H137       -3.8419  -18.5649  -49.8404 H         1 UNK         0.1150 
    138 H138       -4.8218  -15.6792  -46.8395 H         1 UNK         0.1150 
    139 H139       -4.8543  -18.0531  -46.3034 H         1 UNK         0.0800 
    140 H140       -4.7675  -19.2310  -47.5937 H         1 UNK         0.0800 
    141 H141       -3.8818  -20.3514  -45.5268 H         1 UNK         0.0800 
    142 H142       -2.3700  -20.0639  -44.7156 H         1 UNK         0.0800 
    143 H143       -2.5958  -21.5575  -47.3716 H         1 UNK         0.0600 
    144 H144       -0.2832  -20.8074  -45.8194 H         1 UNK         0.3000 
    145 H145        1.9762  -22.9858  -47.1902 H         1 UNK         0.0600 
    146 H146        3.1799  -21.2507  -48.4678 H         1 UNK         0.0600 
    147 H147        1.7897  -21.8154  -49.3812 H         1 UNK         0.0600 
    148 H148        1.7269  -20.2603  -48.5535 H         1 UNK         0.0600 
    149 H149        1.8196  -20.2161  -46.1019 H         1 UNK         0.3000 
    150 H150        2.5272  -21.2607  -42.8276 H         1 UNK         0.0600 
    151 H151        4.8691  -21.4565  -43.6801 H         1 UNK         0.0600 
    152 H152        4.5996  -19.9048  -42.9026 H         1 UNK         0.0600 
    153 H153        4.6414  -20.0136  -44.6622 H         1 UNK         0.0600 
    154 H154        2.6545  -18.6803  -44.0599 H         1 UNK         0.3000 
    155 H155       -0.8610  -18.0818  -44.1931 H         1 UNK         0.0600 
    156 H156       -0.2511  -16.1666  -42.6973 H         1 UNK         0.0600 
    157 H157        1.1778  -17.0447  -42.1637 H         1 UNK         0.0600 
    158 H158       -0.4246  -17.6707  -41.8051 H         1 UNK         0.0600 
    159 H159        1.0581  -16.1966  -44.6687 H         1 UNK         0.3000 
    160 H160        1.7412  -16.9561  -48.1179 H         1 UNK         0.0600 
    161 H161        0.2978  -14.7429  -46.5821 H         1 UNK         0.0600 
    162 H162       -0.5084  -15.8532  -47.6841 H         1 UNK         0.0600 
    163 H163        0.7296  -14.7740  -48.2946 H         1 UNK         0.0600 
    164 H164        2.5952  -15.2055  -45.8471 H         1 UNK         0.3000 
    165 H165        5.9052  -16.3900  -46.0209 H         1 UNK         0.0600 
    166 H166        5.0206  -13.6036  -46.9334 H         1 UNK         0.0600 
    167 H167        6.6159  -14.0410  -46.3262 H         1 UNK         0.0600 
    168 H168        6.0483  -14.6935  -47.8556 H         1 UNK         0.0600 
    169 H169        4.7349  -14.2252  -44.5689 H         1 UNK         0.3000 
    170 H170        3.2285  -16.1083  -41.9802 H         1 UNK         0.0600 
    171 H171        5.6519  -16.2747  -41.3908 H         1 UNK         0.0600 
    172 H172        5.8919  -14.6057  -41.8943 H         1 UNK         0.0600 
    173 H173        4.8558  -14.9776  -40.5156 H         1 UNK         0.0600 
    174 H174        3.6525  -13.3951  -41.9467 H         1 UNK         0.3000 
    175 H175        0.6488  -12.4970  -42.8660 H         1 UNK         0.0600 
    176 H176        1.9496  -10.4745  -42.2090 H         1 UNK         0.0600 
    177 H177        2.4069  -11.8575  -41.2365 H         1 UNK         0.0600 
    178 H178        3.4628  -11.3070  -42.5391 H         1 UNK         0.0600 
    179 H179        0.6201  -11.4832  -44.8072 H         1 UNK         0.3000 
    180 H180        2.8546  -10.0607  -46.9495 H         1 UNK         0.0600 
    181 H181        1.7320  -12.7792  -47.7936 H         1 UNK         0.0600 
    182 H182        3.3908  -12.2347  -47.9967 H         1 UNK         0.0600 
    183 H183        2.1023  -11.4520  -48.8940 H         1 UNK         0.0600 
    184 H184        0.1059  -10.9900  -47.2540 H         1 UNK         0.3000 
    185 H185       -1.3810   -8.3750  -45.4444 H         1 UNK         0.0600 
    186 H186       -2.5132   -7.7927  -47.5718 H         1 UNK         0.0600 
    187 H187       -0.8745   -7.1621  -47.5726 H         1 UNK         0.0600 
    188 H188       -1.2541   -8.6088  -48.4996 H         1 UNK         0.0600 
    189 H189       -2.5140  -10.2970  -47.1970 H         1 UNK         0.3000 
    190 H190       -1.5666  -23.9229  -46.8944 H         1 UNK         0.3000 
    191 H191       -2.8738  -25.2568  -44.5937 H         1 UNK         0.0600 
    192 H192       -0.6107  -26.0098  -45.2401 H         1 UNK         0.0600 
    193 H193       -1.7710  -27.2872  -45.5734 H         1 UNK         0.0600 
    194 H194       -1.1367  -26.3100  -46.8928 H         1 UNK         0.0600 
    195 H195       -4.9658  -25.8894  -44.7793 H         1 UNK         0.3000 
    196 H196       -6.5465  -25.5160  -47.0617 H         1 UNK         0.0600 
    197 H197       -8.2959  -26.7201  -45.7410 H         1 UNK         0.0600 
    198 H198       -7.4489  -25.5353  -44.7601 H         1 UNK         0.0600 
    199 H199       -7.0748  -27.2507  -44.5905 H         1 UNK         0.0600 
    200 H200       -4.9411  -28.4619  -45.9042 H         1 UNK         0.3000 
    201 H201       -6.1075  -30.3120  -47.7362 H         1 UNK         0.0600 
    202 H202       -5.0153  -30.9934  -45.6123 H         1 UNK         0.0600 
    203 H203       -3.4558  -30.4109  -46.1971 H         1 UNK         0.0600 
    204 H204       -4.2363  -31.7838  -46.9729 H         1 UNK         0.0600 
    205 H205       -3.6034  -27.9171  -48.1873 H         1 UNK         0.3000 
    206 H206       -2.5220  -29.1872  -50.6377 H         1 UNK         0.0600 
    207 H207       -1.7336  -26.5838  -49.2282 H         1 UNK         0.0600 
    208 H208       -0.9703  -28.1476  -48.9326 H         1 UNK         0.0600 
    209 H209       -0.8555  -27.3938  -50.5145 H         1 UNK         0.0600 
    210 H210       -5.1846  -27.3656  -49.8504 H         1 UNK         0.3000 
    211 H211       -6.6337  -26.0117  -50.8227 H         1 UNK         0.0600 
    212 H212       -5.1464  -26.3450  -53.4852 H         1 UNK         0.0600 
    213 H213       -6.7481  -25.6720  -53.2519 H         1 UNK         0.0600 
    214 H214       -6.4585  -27.3711  -52.9095 H         1 UNK         0.0600 
    215 H215       -5.6067  -24.6525  -49.2908 H         1 UNK         0.3000 
    216 H216       -3.5204  -23.1076  -49.1995 H         1 UNK         0.0600 
    217 H217       -5.2104  -23.2194  -47.4235 H         1 UNK         0.0600 
    218 H218       -6.3560  -22.2896  -48.3816 H         1 UNK         0.0600 
    219 H219       -4.8977  -21.5300  -47.7717 H         1 UNK         0.0600 
    220 H220       -6.4236  -21.9601  -50.9407 H         1 UNK         0.3000 
    221 H221       -5.4704  -19.3654  -51.5848 H         1 UNK         0.0600 
    222 H222       -7.6450  -21.0723  -52.9036 H         1 UNK         0.0600 
    223 H223       -7.8712  -19.9618  -51.5508 H         1 UNK         0.0600 
    224 H224       -7.4290  -19.3409  -53.1326 H         1 UNK         0.0600 
    225 H225       -4.8830  -22.4693  -53.1373 H         1 UNK         0.3000 
    226 H226       -3.6960  -21.1993  -55.5577 H         1 UNK         0.0600 
    227 H227       -5.1748  -23.1668  -55.9272 H         1 UNK         0.0600 
    228 H228       -3.5129  -23.5320  -56.3664 H         1 UNK         0.0600 
    229 H229       -4.1740  -24.1454  -54.8565 H         1 UNK         0.0600 
    230 H230       -2.9406  -23.2111  -52.6947 H         1 UNK         0.3000 
    231 H231       -0.2604  -23.7424  -53.2289 H         1 UNK         0.0600 
    232 H232       -1.6650  -23.4834  -50.5232 H         1 UNK         0.0600 
    233 H233       -0.1328  -24.2985  -50.7950 H         1 UNK         0.0600 
    234 H234       -1.6014  -24.9308  -51.5232 H         1 UNK         0.0600 
    235 H235       -1.6016  -20.9540  -51.3740 H         1 UNK         0.3000 
    236 H236        1.0785  -19.9386  -50.7924 H         1 UNK         0.0600 
    237 H237       -0.1374  -18.2116  -49.5382 H         1 UNK         0.0600 
    238 H238       -1.6567  -18.7018  -50.2689 H         1 UNK         0.0600 
    239 H239       -0.8214  -19.7848  -49.1584 H         1 UNK         0.0600 
    240 H240       -1.3612  -19.2923  -53.2670 H         1 UNK         0.3000 
    241 H241        0.0861  -16.8007  -54.0731 H         1 UNK         0.0600 
    242 H242       -0.4163  -20.0345  -55.3273 H         1 UNK         0.3800 
    243 H243       -0.0010  -19.5672  -56.9493 H         1 UNK         0.3800 
    244 H244       -2.0544  -15.9888  -54.9970 H         1 UNK         0.0800 
    245 H245       -2.8665  -17.4333  -54.4616 H         1 UNK         0.0800 
    246 H246       -4.6033  -16.7164  -52.6144 H         1 UNK         0.0800 
    247 H247       -3.4840  -17.9508  -52.0690 H         1 UNK         0.0800 
@<TRIPOS>BOND
     1    1    2 1    
     2    1  127 1    
     3    1  128 1    
     4    1  129 1    
     5    2    3 2    
     6    2    4 am   BACKBONE|DICT|INTERRES
     7    4    5 1    
     8    4  130 1    
     9    5    6 1    
    10    5   65 1    
    11    5  131 1    
    12    6    7 1    
    13    6  132 1    
    14    6  133 1    
    15    7    8 1    
    16    8    9 1    
    17    8  134 1    
    18    8  135 1    
    19    9   10 ar   
    20    9   14 ar   
    21   10   11 ar   
    22   10  136 1    
    23   11   12 ar   
    24   11  126 1    
    25   12   13 ar   
    26   12  137 1    
    27   13   14 ar   
    28   13   15 1    
    29   14  138 1    
    30   15   16 1    
    31   15  139 1    
    32   15  140 1    
    33   16   17 1    
    34   17   18 1    
    35   17  141 1    
    36   17  142 1    
    37   18   19 1    
    38   18   67 1    
    39   18  143 1    
    40   19   20 am   BACKBONE|DICT|INTERRES
    41   19  144 1    
    42   20   21 2    
    43   20   22 1    
    44   22   23 1    
    45   22   24 1    
    46   22  145 1    
    47   23  146 1    
    48   23  147 1    
    49   23  148 1    
    50   24   25 am   BACKBONE|DICT|INTERRES
    51   24  149 1    
    52   25   26 2    
    53   25   27 1    
    54   27   28 1    
    55   27   29 1    
    56   27  150 1    
    57   28  151 1    
    58   28  152 1    
    59   28  153 1    
    60   29   30 am   BACKBONE|DICT|INTERRES
    61   29  154 1    
    62   30   31 2    
    63   30   32 1    
    64   32   33 1    
    65   32   34 1    
    66   32  155 1    
    67   33  156 1    
    68   33  157 1    
    69   33  158 1    
    70   34   35 am   BACKBONE|DICT|INTERRES
    71   34  159 1    
    72   35   36 2    
    73   35   37 1    
    74   37   38 1    
    75   37   39 1    
    76   37  160 1    
    77   38  161 1    
    78   38  162 1    
    79   38  163 1    
    80   39   40 am   BACKBONE|DICT|INTERRES
    81   39  164 1    
    82   40   41 2    
    83   40   42 1    
    84   42   43 1    
    85   42   44 1    
    86   42  165 1    
    87   43  166 1    
    88   43  167 1    
    89   43  168 1    
    90   44   45 am   BACKBONE|DICT|INTERRES
    91   44  169 1    
    92   45   46 2    
    93   45   47 1    
    94   47   48 1    
    95   47   49 1    
    96   47  170 1    
    97   48  171 1    
    98   48  172 1    
    99   48  173 1    
   100   49   50 am   BACKBONE|DICT|INTERRES
   101   49  174 1    
   102   50   51 2    
   103   50   52 1    
   104   52   53 1    
   105   52   54 1    
   106   52  175 1    
   107   53  176 1    
   108   53  177 1    
   109   53  178 1    
   110   54   55 am   BACKBONE|DICT|INTERRES
   111   54  179 1    
   112   55   56 2    
   113   55   57 1    
   114   57   58 1    
   115   57   59 1    
   116   57  180 1    
   117   58  181 1    
   118   58  182 1    
   119   58  183 1    
   120   59   60 am   BACKBONE|DICT|INTERRES
   121   59  184 1    
   122   60   61 2    
   123   60   62 1    
   124   62   63 1    
   125   62   64 1    
   126   62  185 1    
   127   63  186 1    
   128   63  187 1    
   129   63  188 1    
   130   64   65 am   BACKBONE|DICT|INTERRES
   131   64  189 1    
   132   65   66 2    
   133   67   68 2    
   134   67   69 am   BACKBONE|DICT|INTERRES
   135   69   70 1    
   136   69  190 1    
   137   70   71 1    
   138   70   72 1    
   139   70  191 1    
   140   71  192 1    
   141   71  193 1    
   142   71  194 1    
   143   72   73 2    
   144   72   74 am   BACKBONE|DICT|INTERRES
   145   74   75 1    
   146   74  195 1    
   147   75   76 1    
   148   75   77 1    
   149   75  196 1    
   150   76  197 1    
   151   76  198 1    
   152   76  199 1    
   153   77   78 2    
   154   77   79 am   BACKBONE|DICT|INTERRES
   155   79   80 1    
   156   79  200 1    
   157   80   81 1    
   158   80   82 1    
   159   80  201 1    
   160   81  202 1    
   161   81  203 1    
   162   81  204 1    
   163   82   83 2    
   164   82   84 am   BACKBONE|DICT|INTERRES
   165   84   85 1    
   166   84  205 1    
   167   85   86 1    
   168   85   87 1    
   169   85  206 1    
   170   86  207 1    
   171   86  208 1    
   172   86  209 1    
   173   87   88 2    
   174   87   89 am   BACKBONE|DICT|INTERRES
   175   89   90 1    
   176   89  210 1    
   177   90   91 1    
   178   90   92 1    
   179   90  211 1    
   180   91  212 1    
   181   91  213 1    
   182   91  214 1    
   183   92   93 2    
   184   92   94 am   BACKBONE|DICT|INTERRES
   185   94   95 1    
   186   94  215 1    
   187   95   96 1    
   188   95   97 1    
   189   95  216 1    
   190   96  217 1    
   191   96  218 1    
   192   96  219 1    
   193   97   98 2    
   194   97   99 am   BACKBONE|DICT|INTERRES
   195   99  100 1    
   196   99  220 1    
   197  100  101 1    
   198  100  102 1    
   199  100  221 1    
   200  101  222 1    
   201  101  223 1    
   202  101  224 1    
   203  102  103 2    
   204  102  104 am   BACKBONE|DICT|INTERRES
   205  104  105 1    
   206  104  225 1    
   207  105  106 1    
   208  105  107 1    
   209  105  226 1    
   210  106  227 1    
   211  106  228 1    
   212  106  229 1    
   213  107  108 2    
   214  107  109 am   BACKBONE|DICT|INTERRES
   215  109  110 1    
   216  109  230 1    
   217  110  111 1    
   218  110  112 1    
   219  110  231 1    
   220  111  232 1    
   221  111  233 1    
   222  111  234 1    
   223  112  113 2    
   224  112  114 am   BACKBONE|DICT|INTERRES
   225  114  115 1    
   226  114  235 1    
   227  115  116 1    
   228  115  117 1    
   229  115  236 1    
   230  116  237 1    
   231  116  238 1    
   232  116  239 1    
   233  117  118 2    
   234  117  119 am   BACKBONE|DICT|INTERRES
   235  119  120 1    
   236  119  240 1    
   237  120  121 1    
   238  120  124 1    
   239  120  241 1    
   240  121  122 am   BACKBONE|DICT|INTERRES
   241  121  123 2    
   242  122  242 1    
   243  122  243 1    
   244  124  125 1    
   245  124  244 1    
   246  124  245 1    
   247  125  126 1    
   248  126  246 1    
   249  126  247 1    
@<TRIPOS>SUBSTRUCTURE
     1 UNK         1 GROUP             0       ****    0 ROOT    
