@<TRIPOS>MOLECULE
3R540
247   249    1
SMALL
USER_CHARGES


@<TRIPOS>ATOM
      1 CA         -0.5683   -8.8231  -46.5972 C.3       0 UNK        -0.1800 
      2 C           0.2117  -10.0984  -46.3121 C.2       0 UNK         0.5000 
      3 O          -0.0091  -10.7297  -45.2813 O.2       0 UNK        -0.5000 
      4 N           1.1261  -10.4705  -47.2184 N.am      1 UNK        -0.5000 
      5 CA          1.9750  -11.6735  -47.1642 C.3       1 UNK         0.1400 
      6 C6          1.1854  -13.0156  -47.1446 C.3       23 UNK        -0.0398 
      7 S7         -0.1068  -13.1464  -48.4267 S.3       23 UNK        -0.2404 
      8 C8         -0.5280  -14.9145  -48.3167 C.3       23 UNK        -0.0205 
      9 C9          0.0919  -15.7038  -49.4590 C.ar      23 UNK        -0.0193 
     10 C10        -0.6520  -15.9616  -50.6161 C.ar      23 UNK        -0.1150 
     11 C11        -0.1023  -16.7066  -51.6636 C.ar      23 UNK        -0.0193 
     12 C12         1.2082  -17.1747  -51.5533 C.ar      23 UNK        -0.1150 
     13 C13         1.9636  -16.9239  -50.4056 C.ar      23 UNK        -0.0193 
     14 C14         1.4002  -16.1881  -49.3589 C.ar      23 UNK        -0.1150 
     15 C15         3.3819  -17.4689  -50.3039 C.3       23 UNK        -0.0205 
     16 S16         3.5327  -18.8509  -49.1245 S.3       23 UNK        -0.2404 
     17 C17         2.0322  -19.8356  -49.4742 C.3       23 UNK        -0.0398 
     18 CA          2.1113  -21.2880  -48.9451 C.3       11 UNK         0.1400 
     19 N           2.3987  -21.3358  -47.5060 N.am      11 UNK        -0.5000 
     20 C           3.0014  -22.3548  -46.8819 C.2       10 UNK         0.5000 
     21 O           3.3708  -23.3827  -47.4506 O.2       10 UNK        -0.5000 
     22 CA          3.2136  -22.2092  -45.3642 C.3       10 UNK         0.1400 
     23 CB          4.4260  -21.3112  -45.0738 C.3       10 UNK        -0.1800 
     24 N           2.0410  -21.6924  -44.6542 N.am      10 UNK        -0.5000 
     25 C           0.8668  -22.3306  -44.5437 C.2       9 UNK         0.5000 
     26 O           0.6243  -23.4151  -45.0733 O.2       9 UNK        -0.5000 
     27 CA         -0.2315  -21.6300  -43.7220 C.3       9 UNK         0.1400 
     28 CB          0.0415  -21.7482  -42.2151 C.3       9 UNK        -0.1800 
     29 N          -0.3777  -20.2235  -44.0900 N.am      9 UNK        -0.5000 
     30 C          -0.8740  -19.8119  -45.2638 C.2       8 UNK         0.5000 
     31 O          -1.3522  -20.5732  -46.1044 O.2       8 UNK        -0.5000 
     32 CA         -0.7989  -18.3076  -45.5769 C.3       8 UNK         0.1400 
     33 CB         -2.0535  -17.5813  -45.0734 C.3       8 UNK        -0.1800 
     34 N           0.4034  -17.6646  -45.0497 N.am      8 UNK        -0.5000 
     35 C           1.6448  -17.9793  -45.4458 C.2       7 UNK         0.5000 
     36 O           1.8888  -18.8427  -46.2853 O.2       7 UNK        -0.5000 
     37 CA          2.8087  -17.2589  -44.7502 C.3       7 UNK         0.1400 
     38 CB          2.9671  -15.8295  -45.2816 C.3       7 UNK        -0.1800 
     39 N           2.6487  -17.2268  -43.2999 N.am      7 UNK        -0.5000 
     40 C           2.6279  -18.3072  -42.5088 C.2       6 UNK         0.5000 
     41 O           2.7693  -19.4605  -42.9145 O.2       6 UNK        -0.5000 
     42 CA          2.3512  -18.0546  -41.0191 C.3       6 UNK         0.1400 
     43 CB          3.6081  -17.5367  -40.3032 C.3       6 UNK        -0.1800 
     44 N           1.2503  -17.1116  -40.8280 N.am      6 UNK        -0.5000 
     45 C          -0.0310  -17.3833  -41.1095 C.2       5 UNK         0.5000 
     46 O          -0.4232  -18.4663  -41.5446 O.2       5 UNK        -0.5000 
     47 CA         -1.0411  -16.2439  -40.8895 C.3       5 UNK         0.1400 
     48 CB         -1.4848  -16.1887  -39.4200 C.3       5 UNK        -0.1800 
     49 N          -0.5316  -14.9316  -41.2921 N.am      5 UNK        -0.5000 
     50 C          -0.2634  -14.5876  -42.5586 C.2       4 UNK         0.5000 
     51 O          -0.3470  -15.3599  -43.5128 O.2       4 UNK        -0.5000 
     52 CA          0.1844  -13.1367  -42.8006 C.3       4 UNK         0.1400 
     53 CB         -0.9348  -12.1532  -42.4180 C.3       4 UNK        -0.1800 
     54 N           1.4275  -12.7225  -42.1441 N.am      4 UNK        -0.5000 
     55 C           2.5533  -13.4266  -41.9628 C.2       3 UNK         0.5000 
     56 O           2.6624  -14.6369  -42.1594 O.2       3 UNK        -0.5000 
     57 CA          3.7863  -12.6037  -41.5395 C.3       3 UNK         0.1400 
     58 CB          4.9372  -13.4883  -41.0272 C.3       3 UNK        -0.1800 
     59 N           4.2691  -11.8109  -42.6708 N.am      3 UNK        -0.5000 
     60 C           3.7114  -10.6794  -43.1213 C.2       2 UNK         0.5000 
     61 O           2.7772  -10.1113  -42.5522 O.2       2 UNK        -0.5000 
     62 CA          4.2571  -10.0914  -44.4392 C.3       2 UNK         0.1400 
     63 CB          5.7170  -10.4914  -44.7513 C.3       2 UNK        -0.1800 
     64 N           3.3682  -10.3995  -45.5655 N.am      2 UNK        -0.5000 
     65 C           3.0313  -11.6142  -46.0311 C.2       1 UNK         0.5000 
     66 O           3.5252  -12.6594  -45.6092 O.2       1 UNK        -0.5000 
     67 C           0.8203  -22.0555  -49.3099 C.2       11 UNK         0.5000 
     68 O           0.5318  -22.2101  -50.4955 O.2       11 UNK        -0.5000 
     69 N           0.0580  -22.4986  -48.2980 N.am      12 UNK        -0.5000 
     70 CA         -1.2397  -23.1766  -48.3863 C.3       12 UNK         0.1400 
     71 CB         -1.1297  -24.5233  -49.1315 C.3       12 UNK        -0.1800 
     72 C          -2.3676  -22.2818  -48.9407 C.2       12 UNK         0.5000 
     73 O          -3.3857  -22.7960  -49.3985 O.2       12 UNK        -0.5000 
     74 N          -2.2110  -20.9561  -48.8268 N.am      13 UNK        -0.5000 
     75 CA         -3.2409  -19.9611  -49.1341 C.3       13 UNK         0.1400 
     76 CB         -2.6188  -18.5579  -49.0990 C.3       13 UNK        -0.1800 
     77 C          -4.4378  -20.0403  -48.1656 C.2       13 UNK         0.5000 
     78 O          -5.5537  -19.6886  -48.5455 O.2       13 UNK        -0.5000 
     79 N          -4.1790  -20.5181  -46.9396 N.am      14 UNK        -0.5000 
     80 CA         -5.1726  -20.7757  -45.8989 C.3       14 UNK         0.1400 
     81 CB         -4.4441  -20.9090  -44.5512 C.3       14 UNK        -0.1800 
     82 C          -6.0439  -22.0223  -46.1637 C.2       14 UNK         0.5000 
     83 O          -7.0783  -22.1727  -45.5111 O.2       14 UNK        -0.5000 
     84 N          -5.6217  -22.9017  -47.0849 N.am      15 UNK        -0.5000 
     85 CA         -6.3719  -24.0906  -47.4923 C.3       15 UNK         0.1400 
     86 CB         -5.4197  -25.0704  -48.1974 C.3       15 UNK        -0.1800 
     87 C          -7.5520  -23.7294  -48.4137 C.2       15 UNK         0.5000 
     88 O          -7.5893  -22.6322  -48.9783 O.2       15 UNK        -0.5000 
     89 N          -8.4821  -24.6804  -48.5767 N.am      16 UNK        -0.5000 
     90 CA         -9.6444  -24.5836  -49.4630 C.3       16 UNK         0.1400 
     91 CB        -10.4627  -25.8806  -49.3702 C.3       16 UNK        -0.1800 
     92 C          -9.2247  -24.3025  -50.9175 C.2       16 UNK         0.5000 
     93 O          -8.4401  -25.0695  -51.4810 O.2       16 UNK        -0.5000 
     94 N          -9.7005  -23.1726  -51.4605 N.am      17 UNK        -0.5000 
     95 CA         -9.3667  -22.6163  -52.7788 C.3       17 UNK         0.1400 
     96 CB         -9.9622  -23.4971  -53.8978 C.3       17 UNK        -0.1800 
     97 C          -7.8550  -22.3567  -52.9769 C.2       17 UNK         0.5000 
     98 O          -7.3651  -22.4456  -54.1035 O.2       17 UNK        -0.5000 
     99 N          -7.1298  -22.0933  -51.8766 N.am      18 UNK        -0.5000 
    100 CA        -5.6693  -21.9640  -51.7935 C.3       18 UNK         0.1400 
    101 CB        -5.1933  -20.6866  -52.5142 C.3       18 UNK        -0.1800 
    102 C         -4.9306  -23.2319  -52.2783 C.2       18 UNK         0.5000 
    103 O         -3.8862  -23.1346  -52.9271 O.2       18 UNK        -0.5000 
    104 N         -5.5409  -24.4033  -52.0341 N.am      19 UNK        -0.5000 
    105 CA        -5.1361  -25.7287  -52.5182 C.3       19 UNK         0.1400 
    106 CB        -3.7900  -26.1493  -51.8909 C.3       19 UNK        -0.1800 
    107 C         -5.1346  -25.8450  -54.0611 C.2       19 UNK         0.5000 
    108 O         -4.4868  -26.7414  -54.6035 O.2       19 UNK        -0.5000 
    109 N         -5.8491  -24.9283  -54.7354 N.am      20 UNK        -0.5000 
    110 CA        -5.9194  -24.7243  -56.1834 C.3       20 UNK         0.1400 
    111 CB        -6.6194  -25.9159  -56.8700 C.3       20 UNK        -0.1800 
    112 C         -4.5556  -24.3710  -56.8176 C.2       20 UNK         0.5000 
    113 O         -4.3249  -24.7085  -57.9809 O.2       20 UNK        -0.5000 
    114 N         -3.6729  -23.7037  -56.0573 N.am      21 UNK        -0.5000 
    115 CA        -2.3174  -23.3718  -56.4984 C.3       21 UNK         0.1400 
    116 CB        -1.3734  -24.5552  -56.2180 C.3       21 UNK        -0.1800 
    117 C         -1.7726  -22.0813  -55.8694 C.2       21 UNK         0.5000 
    118 O         -1.1807  -21.2742  -56.5873 O.2       21 UNK        -0.5000 
    119 N         -1.9498  -21.9111  -54.5514 N.am      22 UNK        -0.5000 
    120 CA        -1.3316  -20.8430  -53.7424 C.3       22 UNK         0.1400 
    121 C          0.2302  -20.9092  -53.6925 C.2       22 UNK         0.5000 
    122 N          0.8389  -22.0778  -53.8607 N.am      22 UNK        -0.7600 
    123 O          0.9077  -19.9036  -53.5095 O.2       22 UNK        -0.5000 
    124 C124       -1.8925  -19.4316  -54.0937 C.3       23 UNK        -0.0398 
    125 S125       -2.0943  -18.3699  -52.6193 S.3       23 UNK        -0.2404 
    126 C126       -0.9161  -17.0113  -52.9134 C.3       23 UNK        -0.0205 
    127 H127       -0.2663   -8.3639  -47.5387 H         1 UNK         0.0600 
    128 H128       -0.4082   -8.0992  -45.7983 H         1 UNK         0.0600 
    129 H129       -1.6346   -9.0416  -46.6522 H         1 UNK         0.0600 
    130 H130        1.2476   -9.9024  -48.0453 H         1 UNK         0.3000 
    131 H131        2.5511  -11.6597  -48.0905 H         1 UNK         0.0600 
    132 H132        0.7121  -13.1707  -46.1749 H         1 UNK         0.0800 
    133 H133        1.8751  -13.8487  -47.2837 H         1 UNK         0.0800 
    134 H134       -0.2121  -15.3274  -47.3569 H         1 UNK         0.0800 
    135 H135       -1.6140  -15.0168  -48.3420 H         1 UNK         0.0800 
    136 H136       -1.6661  -15.5961  -50.6973 H         1 UNK         0.1150 
    137 H137        1.6394  -17.7486  -52.3607 H         1 UNK         0.1150 
    138 H138        1.9784  -16.0030  -48.4656 H         1 UNK         0.1150 
    139 H139        3.7321  -17.8062  -51.2807 H         1 UNK         0.0800 
    140 H140        4.0566  -16.6679  -49.9991 H         1 UNK         0.0800 
    141 H141        1.1770  -19.3171  -49.0360 H         1 UNK         0.0800 
    142 H142        1.8719  -19.8402  -50.5544 H         1 UNK         0.0800 
    143 H143        2.9279  -21.7833  -49.4748 H         1 UNK         0.0600 
    144 H144        2.1741  -20.4922  -46.9788 H         1 UNK         0.3000 
    145 H145        3.4283  -23.2028  -44.9655 H         1 UNK         0.0600 
    146 H146        4.6483  -21.2822  -44.0070 H         1 UNK         0.0600 
    147 H147        4.2562  -20.2871  -45.4080 H         1 UNK         0.0600 
    148 H148        5.3179  -21.6798  -45.5821 H         1 UNK         0.0600 
    149 H149        2.1660  -20.8093  -44.1665 H         1 UNK         0.3000 
    150 H150       -1.1767  -22.1362  -43.9300 H         1 UNK         0.0600 
    151 H151        0.9557  -21.2295  -41.9259 H         1 UNK         0.0600 
    152 H152       -0.7783  -21.3254  -41.6341 H         1 UNK         0.0600 
    153 H153        0.1469  -22.7922  -41.9178 H         1 UNK         0.0600 
    154 H154       -0.0438  -19.5363  -43.4249 H         1 UNK         0.3000 
    155 H155       -0.7554  -18.2057  -46.6616 H         1 UNK         0.0600 
    156 H156       -2.9585  -18.0299  -45.4846 H         1 UNK         0.0600 
    157 H157       -2.0479  -16.5334  -45.3737 H         1 UNK         0.0600 
    158 H158       -2.1287  -17.6190  -43.9859 H         1 UNK         0.0600 
    159 H159        0.2650  -16.9215  -44.3685 H         1 UNK         0.3000 
    160 H160        3.7252  -17.8084  -44.9741 H         1 UNK         0.0600 
    161 H161        2.0857  -15.2213  -45.0746 H         1 UNK         0.0600 
    162 H162        3.1288  -15.8287  -46.3595 H         1 UNK         0.0600 
    163 H163        3.8243  -15.3343  -44.8252 H         1 UNK         0.0600 
    164 H164        2.5371  -16.3077  -42.8749 H         1 UNK         0.3000 
    165 H165        2.0693  -19.0067  -40.5644 H         1 UNK         0.0600 
    166 H166        3.4289  -17.4079  -39.2357 H         1 UNK         0.0600 
    167 H167        4.4345  -18.2401  -40.4118 H         1 UNK         0.0600 
    168 H168        3.9389  -16.5788  -40.7056 H         1 UNK         0.0600 
    169 H169        1.4969  -16.1715  -40.5534 H         1 UNK         0.3000 
    170 H170       -1.9198  -16.4633  -41.5000 H         1 UNK         0.0600 
    171 H171       -1.8865  -17.1502  -39.0976 H         1 UNK         0.0600 
    172 H172       -0.6553  -15.9402  -38.7569 H         1 UNK         0.0600 
    173 H173       -2.2680  -15.4449  -39.2722 H         1 UNK         0.0600 
    174 H174       -0.4133  -14.2414  -40.5651 H         1 UNK         0.3000 
    175 H175        0.3622  -13.0377  -43.8715 H         1 UNK         0.0600 
    176 H176       -1.1281  -12.1535  -41.3448 H         1 UNK         0.0600 
    177 H177       -0.6794  -11.1335  -42.7059 H         1 UNK         0.0600 
    178 H178       -1.8680  -12.4064  -42.9230 H         1 UNK         0.0600 
    179 H179        1.5120  -11.7231  -41.9989 H         1 UNK         0.3000 
    180 H180        3.4883  -11.9360  -40.7284 H         1 UNK         0.0600 
    181 H181        4.6153  -14.0931  -40.1786 H         1 UNK         0.0600 
    182 H182        5.7800  -12.8830  -40.6931 H         1 UNK         0.0600 
    183 H183        5.2993  -14.1697  -41.7983 H         1 UNK         0.0600 
    184 H184        4.9779  -12.2441  -43.2449 H         1 UNK         0.3000 
    185 H185        4.2378   -9.0072  -44.3189 H         1 UNK         0.0600 
    186 H186        6.3768  -10.2355  -43.9213 H         1 UNK         0.0600 
    187 H187        5.8308  -11.5578  -44.9457 H         1 UNK         0.0600 
    188 H188        6.0843   -9.9587  -45.6284 H         1 UNK         0.0600 
    189 H189        2.8835   -9.6072  -45.9625 H         1 UNK         0.3000 
    190 H190        0.3852  -22.3193  -47.3579 H         1 UNK         0.3000 
    191 H191       -1.5214  -23.3987  -47.3560 H         1 UNK         0.0600 
    192 H192       -2.0492  -25.1008  -49.0296 H         1 UNK         0.0600 
    193 H193       -0.3191  -25.1317  -48.7308 H         1 UNK         0.0600 
    194 H194       -0.9533  -24.3847  -50.1985 H         1 UNK         0.0600 
    195 H195       -1.3876  -20.6256  -48.3434 H         1 UNK         0.3000 
    196 H196       -3.5998  -20.1544  -50.1449 H         1 UNK         0.0600 
    197 H197       -3.2722  -17.8366  -49.5909 H         1 UNK         0.0600 
    198 H198       -1.6582  -18.5314  -49.6136 H         1 UNK         0.0600 
    199 H199       -2.4658  -18.2068  -48.0806 H         1 UNK         0.0600 
    200 H200       -3.2148  -20.7389  -46.7086 H         1 UNK         0.3000 
    201 H201       -5.8428  -19.9155  -45.8430 H         1 UNK         0.0600 
    202 H202       -5.1486  -21.0960  -43.7398 H         1 UNK         0.0600 
    203 H203       -3.9018  -19.9976  -44.3012 H         1 UNK         0.0600 
    204 H204       -3.7286  -21.7322  -44.5616 H         1 UNK         0.0600 
    205 H205       -4.8052  -22.6776  -47.6376 H         1 UNK         0.3000 
    206 H206       -6.7661  -24.5756  -46.5968 H         1 UNK         0.0600 
    207 H207       -5.0991  -24.6914  -49.1671 H         1 UNK         0.0600 
    208 H208       -4.5284  -25.2620  -47.5997 H         1 UNK         0.0600 
    209 H209       -5.9048  -26.0311  -48.3732 H         1 UNK         0.0600 
    210 H210       -8.3619  -25.5629  -48.1017 H         1 UNK         0.3000 
    211 H211      -10.2663  -23.7609  -49.1044 H         1 UNK         0.0600 
    212 H212       -9.8788  -26.7485  -49.6799 H         1 UNK         0.0600 
    213 H213      -11.3436  -25.8322  -50.0117 H         1 UNK         0.0600 
    214 H214      -10.8119  -26.0561  -48.3526 H         1 UNK         0.0600 
    215 H215      -10.3102  -22.5966  -50.8962 H         1 UNK         0.3000 
    216 H216       -9.8495  -21.6397  -52.8329 H         1 UNK         0.0600 
    217 H217      -11.0278  -23.6655  -53.7426 H         1 UNK         0.0600 
    218 H218       -9.4728  -24.4703  -53.9506 H         1 UNK         0.0600 
    219 H219       -9.8499  -23.0224  -54.8733 H         1 UNK         0.0600 
    220 H220       -7.6037  -22.0877  -50.9786 H         1 UNK         0.3000 
    221 H221       -5.4350  -21.8568  -50.7345 H         1 UNK         0.0600 
    222 H222       -5.6851  -19.8004  -52.1133 H         1 UNK         0.0600 
    223 H223       -4.1213  -20.5479  -52.3852 H         1 UNK         0.0600 
    224 H224       -5.3851  -20.7248  -53.5866 H         1 UNK         0.0600 
    225 H225       -6.4430  -24.3830  -51.5717 H         1 UNK         0.3000 
    226 H226       -5.8987  -26.4236  -52.1641 H         1 UNK         0.0600 
    227 H227       -3.8135  -26.0566  -50.8054 H         1 UNK         0.0600 
    228 H228       -3.5586  -27.1898  -52.1208 H         1 UNK         0.0600 
    229 H229       -2.9622  -25.5429  -52.2595 H         1 UNK         0.0600 
    230 H230       -6.3349  -24.2198  -54.1965 H         1 UNK         0.3000 
    231 H231       -6.5507  -23.8476  -56.3326 H         1 UNK         0.0600 
    232 H232       -6.8149  -25.7024  -57.9214 H         1 UNK         0.0600 
    233 H233       -7.5796  -26.1315  -56.4012 H         1 UNK         0.0600 
    234 H234       -6.0138  -26.8215  -56.8280 H         1 UNK         0.0600 
    235 H235       -3.9280  -23.4455  -55.1115 H         1 UNK         0.3000 
    236 H236       -2.3272  -23.1975  -57.5768 H         1 UNK         0.0600 
    237 H237       -1.6709  -25.4394  -56.7820 H         1 UNK         0.0600 
    238 H238       -0.3482  -24.3178  -56.5053 H         1 UNK         0.0600 
    239 H239       -1.3686  -24.8219  -55.1604 H         1 UNK         0.0600 
    240 H240       -2.4939  -22.5843  -54.0174 H         1 UNK         0.3000 
    241 H241       -1.6408  -21.0775  -52.7227 H         1 UNK         0.0600 
    242 H242        0.3060  -22.9225  -53.9840 H         1 UNK         0.3800 
    243 H243        1.8443  -22.1176  -53.8219 H         1 UNK         0.3800 
    244 H244       -2.8874  -19.5268  -54.5305 H         1 UNK         0.0800 
    245 H245       -1.2897  -18.9420  -54.8596 H         1 UNK         0.0800 
    246 H246       -1.4662  -16.1218  -53.2231 H         1 UNK         0.0800 
    247 H247       -0.2462  -17.2585  -53.7378 H         1 UNK         0.0800 
@<TRIPOS>BOND
     1    1    2 1    
     2    1  127 1    
     3    1  128 1    
     4    1  129 1    
     5    2    3 2    
     6    2    4 am   BACKBONE|DICT|INTERRES
     7    4    5 1    
     8    4  130 1    
     9    5    6 1    
    10    5   65 1    
    11    5  131 1    
    12    6    7 1    
    13    6  132 1    
    14    6  133 1    
    15    7    8 1    
    16    8    9 1    
    17    8  134 1    
    18    8  135 1    
    19    9   10 ar   
    20    9   14 ar   
    21   10   11 ar   
    22   10  136 1    
    23   11   12 ar   
    24   11  126 1    
    25   12   13 ar   
    26   12  137 1    
    27   13   14 ar   
    28   13   15 1    
    29   14  138 1    
    30   15   16 1    
    31   15  139 1    
    32   15  140 1    
    33   16   17 1    
    34   17   18 1    
    35   17  141 1    
    36   17  142 1    
    37   18   19 1    
    38   18   67 1    
    39   18  143 1    
    40   19   20 am   BACKBONE|DICT|INTERRES
    41   19  144 1    
    42   20   21 2    
    43   20   22 1    
    44   22   23 1    
    45   22   24 1    
    46   22  145 1    
    47   23  146 1    
    48   23  147 1    
    49   23  148 1    
    50   24   25 am   BACKBONE|DICT|INTERRES
    51   24  149 1    
    52   25   26 2    
    53   25   27 1    
    54   27   28 1    
    55   27   29 1    
    56   27  150 1    
    57   28  151 1    
    58   28  152 1    
    59   28  153 1    
    60   29   30 am   BACKBONE|DICT|INTERRES
    61   29  154 1    
    62   30   31 2    
    63   30   32 1    
    64   32   33 1    
    65   32   34 1    
    66   32  155 1    
    67   33  156 1    
    68   33  157 1    
    69   33  158 1    
    70   34   35 am   BACKBONE|DICT|INTERRES
    71   34  159 1    
    72   35   36 2    
    73   35   37 1    
    74   37   38 1    
    75   37   39 1    
    76   37  160 1    
    77   38  161 1    
    78   38  162 1    
    79   38  163 1    
    80   39   40 am   BACKBONE|DICT|INTERRES
    81   39  164 1    
    82   40   41 2    
    83   40   42 1    
    84   42   43 1    
    85   42   44 1    
    86   42  165 1    
    87   43  166 1    
    88   43  167 1    
    89   43  168 1    
    90   44   45 am   BACKBONE|DICT|INTERRES
    91   44  169 1    
    92   45   46 2    
    93   45   47 1    
    94   47   48 1    
    95   47   49 1    
    96   47  170 1    
    97   48  171 1    
    98   48  172 1    
    99   48  173 1    
   100   49   50 am   BACKBONE|DICT|INTERRES
   101   49  174 1    
   102   50   51 2    
   103   50   52 1    
   104   52   53 1    
   105   52   54 1    
   106   52  175 1    
   107   53  176 1    
   108   53  177 1    
   109   53  178 1    
   110   54   55 am   BACKBONE|DICT|INTERRES
   111   54  179 1    
   112   55   56 2    
   113   55   57 1    
   114   57   58 1    
   115   57   59 1    
   116   57  180 1    
   117   58  181 1    
   118   58  182 1    
   119   58  183 1    
   120   59   60 am   BACKBONE|DICT|INTERRES
   121   59  184 1    
   122   60   61 2    
   123   60   62 1    
   124   62   63 1    
   125   62   64 1    
   126   62  185 1    
   127   63  186 1    
   128   63  187 1    
   129   63  188 1    
   130   64   65 am   BACKBONE|DICT|INTERRES
   131   64  189 1    
   132   65   66 2    
   133   67   68 2    
   134   67   69 am   BACKBONE|DICT|INTERRES
   135   69   70 1    
   136   69  190 1    
   137   70   71 1    
   138   70   72 1    
   139   70  191 1    
   140   71  192 1    
   141   71  193 1    
   142   71  194 1    
   143   72   73 2    
   144   72   74 am   BACKBONE|DICT|INTERRES
   145   74   75 1    
   146   74  195 1    
   147   75   76 1    
   148   75   77 1    
   149   75  196 1    
   150   76  197 1    
   151   76  198 1    
   152   76  199 1    
   153   77   78 2    
   154   77   79 am   BACKBONE|DICT|INTERRES
   155   79   80 1    
   156   79  200 1    
   157   80   81 1    
   158   80   82 1    
   159   80  201 1    
   160   81  202 1    
   161   81  203 1    
   162   81  204 1    
   163   82   83 2    
   164   82   84 am   BACKBONE|DICT|INTERRES
   165   84   85 1    
   166   84  205 1    
   167   85   86 1    
   168   85   87 1    
   169   85  206 1    
   170   86  207 1    
   171   86  208 1    
   172   86  209 1    
   173   87   88 2    
   174   87   89 am   BACKBONE|DICT|INTERRES
   175   89   90 1    
   176   89  210 1    
   177   90   91 1    
   178   90   92 1    
   179   90  211 1    
   180   91  212 1    
   181   91  213 1    
   182   91  214 1    
   183   92   93 2    
   184   92   94 am   BACKBONE|DICT|INTERRES
   185   94   95 1    
   186   94  215 1    
   187   95   96 1    
   188   95   97 1    
   189   95  216 1    
   190   96  217 1    
   191   96  218 1    
   192   96  219 1    
   193   97   98 2    
   194   97   99 am   BACKBONE|DICT|INTERRES
   195   99  100 1    
   196   99  220 1    
   197  100  101 1    
   198  100  102 1    
   199  100  221 1    
   200  101  222 1    
   201  101  223 1    
   202  101  224 1    
   203  102  103 2    
   204  102  104 am   BACKBONE|DICT|INTERRES
   205  104  105 1    
   206  104  225 1    
   207  105  106 1    
   208  105  107 1    
   209  105  226 1    
   210  106  227 1    
   211  106  228 1    
   212  106  229 1    
   213  107  108 2    
   214  107  109 am   BACKBONE|DICT|INTERRES
   215  109  110 1    
   216  109  230 1    
   217  110  111 1    
   218  110  112 1    
   219  110  231 1    
   220  111  232 1    
   221  111  233 1    
   222  111  234 1    
   223  112  113 2    
   224  112  114 am   BACKBONE|DICT|INTERRES
   225  114  115 1    
   226  114  235 1    
   227  115  116 1    
   228  115  117 1    
   229  115  236 1    
   230  116  237 1    
   231  116  238 1    
   232  116  239 1    
   233  117  118 2    
   234  117  119 am   BACKBONE|DICT|INTERRES
   235  119  120 1    
   236  119  240 1    
   237  120  121 1    
   238  120  124 1    
   239  120  241 1    
   240  121  122 am   BACKBONE|DICT|INTERRES
   241  121  123 2    
   242  122  242 1    
   243  122  243 1    
   244  124  125 1    
   245  124  244 1    
   246  124  245 1    
   247  125  126 1    
   248  126  246 1    
   249  126  247 1    
@<TRIPOS>SUBSTRUCTURE
     1 UNK         1 GROUP             0       ****    0 ROOT    
