@<TRIPOS>MOLECULE
3R540
247   249    1
SMALL
USER_CHARGES


@<TRIPOS>ATOM
      1 CA         -2.8883  -13.4589  -43.5222 C.3       0 UNK        -0.1800 
      2 C          -2.9884  -13.7163  -45.0192 C.2       0 UNK         0.5000 
      3 O          -2.6315  -12.8487  -45.8151 O.2       0 UNK        -0.5000 
      4 N          -3.4513  -14.9138  -45.4061 N.am      1 UNK        -0.5000 
      5 CA         -3.5775  -15.3801  -46.7964 C.3       1 UNK         0.1400 
      6 C6         -4.2565  -16.7739  -46.8616 C.3       23 UNK        -0.0398 
      7 S7         -5.1845  -17.0318  -48.4126 S.3       23 UNK        -0.2404 
      8 C8         -6.5965  -18.0395  -47.8533 C.3       23 UNK        -0.0205 
      9 C9         -6.3197  -19.5359  -47.9366 C.ar      23 UNK        -0.0193 
     10 C10        -7.0041  -20.3208  -48.8712 C.ar      23 UNK        -0.1150 
     11 C11        -6.8021  -21.7028  -48.9245 C.ar      23 UNK        -0.0193 
     12 C12        -5.8981  -22.2984  -48.0422 C.ar      23 UNK        -0.1150 
     13 C13        -5.1844  -21.5248  -47.1227 C.ar      23 UNK        -0.0193 
     14 C14        -5.4102  -20.1457  -47.0649 C.ar      23 UNK        -0.1150 
     15 C15        -4.1797  -22.1864  -46.1904 C.3       23 UNK        -0.0205 
     16 S16        -2.7719  -22.8773  -47.1156 S.3       23 UNK        -0.2404 
     17 C17        -1.7143  -23.4852  -45.7628 C.3       23 UNK        -0.0398 
     18 CA         -0.5206  -22.5309  -45.5030 C.3       11 UNK         0.1400 
     19 N          -0.0999  -22.5134  -44.1011 N.am      11 UNK        -0.5000 
     20 C           0.4401  -23.5138  -43.3930 C.2       10 UNK         0.5000 
     21 O           0.5582  -24.6671  -43.8072 O.2       10 UNK        -0.5000 
     22 CA          0.9565  -23.1503  -41.9853 C.3       10 UNK         0.1400 
     23 CB          2.4635  -22.8547  -42.0364 C.3       10 UNK        -0.1800 
     24 N           0.2692  -21.9922  -41.4083 N.am      10 UNK        -0.5000 
     25 C          -0.9988  -22.0054  -40.9733 C.2       9 UNK         0.5000 
     26 O          -1.6912  -23.0219  -40.9110 O.2       9 UNK        -0.5000 
     27 CA         -1.6069  -20.6465  -40.5823 C.3       9 UNK         0.1400 
     28 CB         -1.2041  -20.2597  -39.1512 C.3       9 UNK        -0.1800 
     29 N          -1.2289  -19.5746  -41.5059 N.am      9 UNK        -0.5000 
     30 C          -1.5877  -19.5120  -42.7966 C.2       8 UNK         0.5000 
     31 O          -2.3151  -20.3356  -43.3493 O.2       8 UNK        -0.5000 
     32 CA         -1.0035  -18.3543  -43.6230 C.3       8 UNK         0.1400 
     33 CB         -1.8077  -17.0681  -43.3959 C.3       8 UNK        -0.1800 
     34 N           0.4048  -18.1085  -43.3192 N.am      8 UNK        -0.5000 
     35 C           1.4072  -18.9429  -43.6280 C.2       7 UNK         0.5000 
     36 O           1.2570  -19.9901  -44.2533 O.2       7 UNK        -0.5000 
     37 CA          2.8122  -18.5594  -43.1399 C.3       7 UNK         0.1400 
     38 CB          3.5080  -17.6429  -44.1560 C.3       7 UNK        -0.1800 
     39 N           2.7801  -17.9166  -41.8273 N.am      7 UNK        -0.5000 
     40 C           2.4474  -18.5455  -40.6907 C.2       6 UNK         0.5000 
     41 O           2.1679  -19.7434  -40.6259 O.2       6 UNK        -0.5000 
     42 CA          2.3632  -17.6701  -39.4277 C.3       6 UNK         0.1400 
     43 CB          3.7603  -17.4315  -38.8357 C.3       6 UNK        -0.1800 
     44 N           1.7156  -16.3820  -39.6870 N.am      6 UNK        -0.5000 
     45 C           0.4236  -16.2429  -40.0164 C.2       5 UNK         0.5000 
     46 O          -0.3600  -17.1859  -40.1136 O.2       5 UNK        -0.5000 
     47 CA         -0.0656  -14.8184  -40.3333 C.3       5 UNK         0.1400 
     48 CB         -0.4838  -14.0907  -39.0474 C.3       5 UNK        -0.1800 
     49 N           0.9217  -14.0093  -41.0527 N.am      5 UNK        -0.5000 
     50 C           1.3652  -14.2775  -42.2871 C.2       4 UNK         0.5000 
     51 O           1.0350  -15.2759  -42.9319 O.2       4 UNK        -0.5000 
     52 CA          2.3629  -13.2788  -42.8933 C.3       4 UNK         0.1400 
     53 CB          3.7902  -13.8449  -42.8644 C.3       4 UNK        -0.1800 
     54 N           1.9872  -12.9841  -44.2722 N.am      4 UNK        -0.5000 
     55 C           1.0506  -12.0993  -44.6304 C.2       3 UNK         0.5000 
     56 O           0.4864  -11.3465  -43.8354 O.2       3 UNK        -0.5000 
     57 CA          0.6527  -12.0631  -46.1173 C.3       3 UNK         0.1400 
     58 CB          1.7380  -11.4021  -46.9894 C.3       3 UNK        -0.1800 
     59 N           0.2400  -13.3733  -46.6357 N.am      3 UNK        -0.5000 
     60 C           0.9821  -14.4657  -46.8728 C.2       2 UNK         0.5000 
     61 O           2.2046  -14.4983  -46.7218 O.2       2 UNK        -0.5000 
     62 CA          0.2318  -15.7467  -47.3012 C.3       2 UNK         0.1400 
     63 CB          0.9203  -17.0061  -46.7524 C.3       2 UNK        -0.1800 
     64 N          -1.1540  -15.7459  -46.8296 N.am      2 UNK        -0.5000 
     65 C          -2.2250  -15.3822  -47.5475 C.2       1 UNK         0.5000 
     66 O          -2.1695  -15.0115  -48.7186 O.2       1 UNK        -0.5000 
     67 C           0.6926  -22.7406  -46.4412 C.2       11 UNK         0.5000 
     68 O           0.6276  -23.5024  -47.4070 O.2       11 UNK        -0.5000 
     69 N           1.8024  -22.0718  -46.1009 N.am      12 UNK        -0.5000 
     70 CA          3.1175  -22.2480  -46.7134 C.3       12 UNK         0.1400 
     71 CB          4.1810  -21.6964  -45.7509 C.3       12 UNK        -0.1800 
     72 C           3.2516  -21.5863  -48.0957 C.2       12 UNK         0.5000 
     73 O           4.0530  -22.0498  -48.9081 O.2       12 UNK        -0.5000 
     74 N           2.4863  -20.5151  -48.3357 N.am      13 UNK        -0.5000 
     75 CA          2.5477  -19.7083  -49.5531 C.3       13 UNK         0.1400 
     76 CB          3.7156  -18.7044  -49.4653 C.3       13 UNK        -0.1800 
     77 C           1.1890  -19.0414  -49.8136 C.2       13 UNK         0.5000 
     78 O           1.1267  -17.8316  -50.0329 O.2       13 UNK        -0.5000 
     79 N           0.1204  -19.8463  -49.7678 N.am      14 UNK        -0.5000 
     80 CA         -1.2488  -19.4147  -50.0420 C.3       14 UNK         0.1400 
     81 CB         -2.0552  -19.3577  -48.7334 C.3       14 UNK        -0.1800 
     82 C          -1.8852  -20.3382  -51.0894 C.2       14 UNK         0.5000 
     83 O          -2.0786  -19.9121  -52.2296 O.2       14 UNK        -0.5000 
     84 N          -2.1617  -21.5887  -50.6929 N.am      15 UNK        -0.5000 
     85 CA         -2.8859  -22.5929  -51.4820 C.3       15 UNK         0.1400 
     86 CB         -3.2795  -23.7506  -50.5538 C.3       15 UNK        -0.1800 
     87 C          -2.1396  -23.1406  -52.7138 C.2       15 UNK         0.5000 
     88 O          -2.7587  -23.7936  -53.5568 O.2       15 UNK        -0.5000 
     89 N          -0.8327  -22.8717  -52.8102 N.am      16 UNK        -0.5000 
     90 CA          0.0522  -23.3018  -53.8940 C.3       16 UNK         0.1400 
     91 CB          1.4816  -23.4127  -53.3316 C.3       16 UNK        -0.1800 
     92 C          -0.0243  -22.3792  -55.1324 C.2       16 UNK         0.5000 
     93 O           1.0052  -22.1086  -55.7525 O.2       16 UNK        -0.5000 
     94 N          -1.2306  -21.8860  -55.4549 N.am      17 UNK        -0.5000 
     95 CA         -1.5490  -20.9327  -56.5275 C.3       17 UNK         0.1400 
     96 CB         -1.2134  -21.5147  -57.9164 C.3       17 UNK        -0.1800 
     97 C          -0.9555  -19.5255  -56.3007 C.2       17 UNK         0.5000 
     98 O          -0.8568  -18.7448  -57.2487 O.2       17 UNK        -0.5000 
     99 N          -0.5810  -19.2198  -55.0515 N.am      18 UNK        -0.5000 
    100 CA        -0.0104  -17.9388  -54.6442 C.3       18 UNK         0.1400 
    101 CB         0.9271  -18.1626  -53.4489 C.3       18 UNK        -0.1800 
    102 C         -1.1188  -16.9308  -54.3059 C.2       18 UNK         0.5000 
    103 O         -1.1075  -15.8151  -54.8274 O.2       18 UNK        -0.5000 
    104 N         -2.0648  -17.3575  -53.4613 N.am      19 UNK        -0.5000 
    105 CA        -3.2574  -16.6005  -53.0837 C.3       19 UNK         0.1400 
    106 CB        -3.3939  -16.6084  -51.5551 C.3       19 UNK        -0.1800 
    107 C         -4.5112  -17.2051  -53.7333 C.2       19 UNK         0.5000 
    108 O         -5.4079  -16.4612  -54.1321 O.2       19 UNK        -0.5000 
    109 N         -4.5428  -18.5368  -53.8498 N.am      20 UNK        -0.5000 
    110 CA        -5.5969  -19.3175  -54.4824 C.3       20 UNK         0.1400 
    111 CB        -6.7608  -19.5206  -53.4967 C.3       20 UNK        -0.1800 
    112 C         -4.9892  -20.6590  -54.9034 C.2       20 UNK         0.5000 
    113 O         -4.0053  -21.0914  -54.3045 O.2       20 UNK        -0.5000 
    114 N         -5.5785  -21.3103  -55.9103 N.am      21 UNK        -0.5000 
    115 CA        -5.1490  -22.6180  -56.4215 C.3       21 UNK         0.1400 
    116 CB        -5.3046  -22.6260  -57.9526 C.3       21 UNK        -0.1800 
    117 C         -5.9076  -23.7765  -55.7389 C.2       21 UNK         0.5000 
    118 O         -6.2117  -24.7831  -56.3814 O.2       21 UNK        -0.5000 
    119 N         -6.2297  -23.5983  -54.4537 N.am      22 UNK        -0.5000 
    120 CA        -6.9743  -24.5450  -53.6116 C.3       22 UNK         0.1400 
    121 C         -6.1637  -25.7825  -53.1242 C.2       22 UNK         0.5000 
    122 N         -4.8460  -25.8314  -53.2775 N.am      22 UNK        -0.7600 
    123 O         -6.7506  -26.7343  -52.6164 O.2       22 UNK        -0.5000 
    124 C124       -7.6992  -23.8147  -52.4492 C.3       23 UNK        -0.0398 
    125 S125       -6.5960  -22.7504  -51.4584 S.3       23 UNK        -0.2404 
    126 C126       -7.5578  -22.5551  -49.9317 C.3       23 UNK        -0.0205 
    127 H127       -3.2849  -14.2899  -42.9386 H         1 UNK         0.0600 
    128 H128       -3.4452  -12.5603  -43.2572 H         1 UNK         0.0600 
    129 H129       -1.8459  -13.3115  -43.2381 H         1 UNK         0.0600 
    130 H130       -3.7656  -15.5601  -44.6977 H         1 UNK         0.3000 
    131 H131       -4.2233  -14.6552  -47.2970 H         1 UNK         0.0600 
    132 H132       -4.9616  -16.8715  -46.0358 H         1 UNK         0.0800 
    133 H133       -3.5366  -17.5826  -46.7275 H         1 UNK         0.0800 
    134 H134       -7.4546  -17.7844  -48.4770 H         1 UNK         0.0800 
    135 H135       -6.8853  -17.7742  -46.8359 H         1 UNK         0.0800 
    136 H136       -7.7044  -19.8592  -49.5531 H         1 UNK         0.1150 
    137 H137       -5.7332  -23.3660  -48.0837 H         1 UNK         0.1150 
    138 H138       -4.8783  -19.5471  -46.3403 H         1 UNK         0.1150 
    139 H139       -4.6755  -22.9822  -45.6328 H         1 UNK         0.0800 
    140 H140       -3.8079  -21.4718  -45.4541 H         1 UNK         0.0800 
    141 H141       -1.3780  -24.4988  -45.9873 H         1 UNK         0.0800 
    142 H142       -2.3268  -23.5736  -44.8642 H         1 UNK         0.0800 
    143 H143       -0.8606  -21.5104  -45.6886 H         1 UNK         0.0600 
    144 H144       -0.1051  -21.5976  -43.6723 H         1 UNK         0.3000 
    145 H145        0.7947  -24.0126  -41.3353 H         1 UNK         0.0600 
    146 H146        2.8604  -22.6572  -41.0405 H         1 UNK         0.0600 
    147 H147        3.0162  -23.7011  -42.4462 H         1 UNK         0.0600 
    148 H148        2.6809  -21.9867  -42.6599 H         1 UNK         0.0600 
    149 H149        0.7950  -21.1257  -41.3585 H         1 UNK         0.3000 
    150 H150       -2.6937  -20.7473  -40.6141 H         1 UNK         0.0600 
    151 H151       -1.4835  -21.0394  -38.4416 H         1 UNK         0.0600 
    152 H152       -1.7010  -19.3415  -38.8375 H         1 UNK         0.0600 
    153 H153       -0.1285  -20.1038  -39.0631 H         1 UNK         0.0600 
    154 H154       -0.6834  -18.8123  -41.1138 H         1 UNK         0.3000 
    155 H155       -1.0783  -18.6221  -44.6794 H         1 UNK         0.0600 
    156 H156       -2.8406  -17.1981  -43.7193 H         1 UNK         0.0600 
    157 H157       -1.3807  -16.2342  -43.9508 H         1 UNK         0.0600 
    158 H158       -1.8296  -16.7852  -42.3438 H         1 UNK         0.0600 
    159 H159        0.6287  -17.2250  -42.8724 H         1 UNK         0.3000 
    160 H160        3.3969  -19.4779  -43.0552 H         1 UNK         0.0600 
    161 H161        2.9626  -16.7101  -44.2977 H         1 UNK         0.0600 
    162 H162        3.5817  -18.1264  -45.1310 H         1 UNK         0.0600 
    163 H163        4.5211  -17.3963  -43.8383 H         1 UNK         0.0600 
    164 H164        2.9525  -16.9232  -41.8008 H         1 UNK         0.3000 
    165 H165        1.7666  -18.2090  -38.6885 H         1 UNK         0.0600 
    166 H166        3.7014  -16.8777  -37.8986 H         1 UNK         0.0600 
    167 H167        4.2595  -18.3776  -38.6218 H         1 UNK         0.0600 
    168 H168        4.3993  -16.8698  -39.5182 H         1 UNK         0.0600 
    169 H169        2.2920  -15.5557  -39.6281 H         1 UNK         0.3000 
    170 H170       -0.9473  -14.9090  -40.9712 H         1 UNK         0.0600 
    171 H171       -1.2345  -14.6638  -38.5013 H         1 UNK         0.0600 
    172 H172        0.3627  -13.9358  -38.3772 H         1 UNK         0.0600 
    173 H173       -0.9198  -13.1166  -39.2696 H         1 UNK         0.0600 
    174 H174        1.2427  -13.1730  -40.5863 H         1 UNK         0.3000 
    175 H175        2.3498  -12.3562  -42.3091 H         1 UNK         0.0600 
    176 H176        4.0890  -14.1074  -41.8488 H         1 UNK         0.0600 
    177 H177        3.8849  -14.7394  -43.4787 H         1 UNK         0.0600 
    178 H178        4.5078  -13.1126  -43.2347 H         1 UNK         0.0600 
    179 H179        2.3399  -13.6087  -44.9913 H         1 UNK         0.3000 
    180 H180       -0.2365  -11.4344  -46.1858 H         1 UNK         0.0600 
    181 H181        2.6863  -11.9380  -46.9483 H         1 UNK         0.0600 
    182 H182        1.9306  -10.3817  -46.6562 H         1 UNK         0.0600 
    183 H183        1.4267  -11.3499  -48.0327 H         1 UNK         0.0600 
    184 H184       -0.7633  -13.4673  -46.7410 H         1 UNK         0.3000 
    185 H185        0.2565  -15.7918  -48.3917 H         1 UNK         0.0600 
    186 H186        1.9230  -17.1184  -47.1645 H         1 UNK         0.0600 
    187 H187        1.0153  -16.9483  -45.6710 H         1 UNK         0.0600 
    188 H188        0.3642  -17.9105  -46.9968 H         1 UNK         0.0600 
    189 H189       -1.2877  -15.9721  -45.8561 H         1 UNK         0.3000 
    190 H190        1.7418  -21.4198  -45.3220 H         1 UNK         0.3000 
    191 H191        3.2958  -23.3179  -46.8414 H         1 UNK         0.0600 
    192 H192        4.0369  -20.6325  -45.5594 H         1 UNK         0.0600 
    193 H193        5.1841  -21.8244  -46.1598 H         1 UNK         0.0600 
    194 H194        4.1530  -22.2161  -44.7930 H         1 UNK         0.0600 
    195 H195        1.8421  -20.2072  -47.6209 H         1 UNK         0.3000 
    196 H196        2.7279  -20.3625  -50.4089 H         1 UNK         0.0600 
    197 H197        3.7783  -18.0945  -50.3673 H         1 UNK         0.0600 
    198 H198        4.6716  -19.2170  -49.3584 H         1 UNK         0.0600 
    199 H199        3.6030  -18.0293  -48.6170 H         1 UNK         0.0600 
    200 H200        0.2642  -20.8317  -49.5984 H         1 UNK         0.3000 
    201 H201       -1.2553  -18.4121  -50.4745 H         1 UNK         0.0600 
    202 H202       -1.7185  -18.5300  -48.1107 H         1 UNK         0.0600 
    203 H203       -1.9559  -20.2705  -48.1483 H         1 UNK         0.0600 
    204 H204       -3.1168  -19.2049  -48.9314 H         1 UNK         0.0600 
    205 H205       -1.9780  -21.8444  -49.7335 H         1 UNK         0.3000 
    206 H206       -3.7974  -22.1227  -51.8520 H         1 UNK         0.0600 
    207 H207       -3.9432  -23.4047  -49.7641 H         1 UNK         0.0600 
    208 H208       -3.8160  -24.5306  -51.0929 H         1 UNK         0.0600 
    209 H209       -2.4075  -24.2113  -50.0884 H         1 UNK         0.0600 
    210 H210       -0.4170  -22.3077  -52.0855 H         1 UNK         0.3000 
    211 H211       -0.2525  -24.2973  -54.2235 H         1 UNK         0.0600 
    212 H212        1.8660  -22.4418  -53.0163 H         1 UNK         0.0600 
    213 H213        2.1691  -23.8133  -54.0777 H         1 UNK         0.0600 
    214 H214        1.5168  -24.0828  -52.4723 H         1 UNK         0.0600 
    215 H215       -2.0159  -22.1462  -54.8665 H         1 UNK         0.3000 
    216 H216       -2.6276  -20.7943  -56.5062 H         1 UNK         0.0600 
    217 H217       -1.6112  -20.8823  -58.7108 H         1 UNK         0.0600 
    218 H218       -1.6511  -22.5048  -58.0444 H         1 UNK         0.0600 
    219 H219       -0.1383  -21.5975  -58.0762 H         1 UNK         0.0600 
    220 H220       -0.7461  -19.9015  -54.3242 H         1 UNK         0.3000 
    221 H221        0.5845  -17.5269  -55.4624 H         1 UNK         0.0600 
    222 H222        0.4054  -18.6305  -52.6156 H         1 UNK         0.0600 
    223 H223        1.7645  -18.8054  -53.7206 H         1 UNK         0.0600 
    224 H224        1.3412  -17.2193  -53.0903 H         1 UNK         0.0600 
    225 H225       -1.9945  -18.2998  -53.0859 H         1 UNK         0.3000 
    226 H226       -3.1737  -15.5623  -53.4116 H         1 UNK         0.0600 
    227 H227       -2.4925  -16.2229  -51.0797 H         1 UNK         0.0600 
    228 H228       -4.2250  -15.9787  -51.2358 H         1 UNK         0.0600 
    229 H229       -3.5758  -17.6110  -51.1668 H         1 UNK         0.0600 
    230 H230       -3.7675  -19.0994  -53.5146 H         1 UNK         0.3000 
    231 H231       -5.9506  -18.8000  -55.3764 H         1 UNK         0.0600 
    232 H232       -7.2428  -18.5734  -53.2550 H         1 UNK         0.0600 
    233 H233       -6.4177  -19.9649  -52.5617 H         1 UNK         0.0600 
    234 H234       -7.5252  -20.1770  -53.9141 H         1 UNK         0.0600 
    235 H235       -6.4065  -20.9169  -56.3349 H         1 UNK         0.3000 
    236 H236       -4.0910  -22.7748  -56.2023 H         1 UNK         0.0600 
    237 H237       -4.9299  -23.5561  -58.3818 H         1 UNK         0.0600 
    238 H238       -6.3481  -22.5207  -58.2514 H         1 UNK         0.0600 
    239 H239       -4.7400  -21.8126  -58.4088 H         1 UNK         0.0600 
    240 H240       -5.8993  -22.7661  -53.9864 H         1 UNK         0.3000 
    241 H241       -7.7611  -24.9664  -54.2403 H         1 UNK         0.0600 
    242 H242       -4.3492  -26.6515  -52.9704 H         1 UNK         0.3800 
    243 H243       -4.3218  -25.0385  -53.6319 H         1 UNK         0.3800 
    244 H244       -8.4873  -23.1808  -52.8577 H         1 UNK         0.0800 
    245 H245       -8.2040  -24.5293  -51.7967 H         1 UNK         0.0800 
    246 H246       -8.5222  -22.1009  -50.1645 H         1 UNK         0.0800 
    247 H247       -7.7694  -23.5366  -49.5047 H         1 UNK         0.0800 
@<TRIPOS>BOND
     1    1    2 1    
     2    1  127 1    
     3    1  128 1    
     4    1  129 1    
     5    2    3 2    
     6    2    4 am   BACKBONE|DICT|INTERRES
     7    4    5 1    
     8    4  130 1    
     9    5    6 1    
    10    5   65 1    
    11    5  131 1    
    12    6    7 1    
    13    6  132 1    
    14    6  133 1    
    15    7    8 1    
    16    8    9 1    
    17    8  134 1    
    18    8  135 1    
    19    9   10 ar   
    20    9   14 ar   
    21   10   11 ar   
    22   10  136 1    
    23   11   12 ar   
    24   11  126 1    
    25   12   13 ar   
    26   12  137 1    
    27   13   14 ar   
    28   13   15 1    
    29   14  138 1    
    30   15   16 1    
    31   15  139 1    
    32   15  140 1    
    33   16   17 1    
    34   17   18 1    
    35   17  141 1    
    36   17  142 1    
    37   18   19 1    
    38   18   67 1    
    39   18  143 1    
    40   19   20 am   BACKBONE|DICT|INTERRES
    41   19  144 1    
    42   20   21 2    
    43   20   22 1    
    44   22   23 1    
    45   22   24 1    
    46   22  145 1    
    47   23  146 1    
    48   23  147 1    
    49   23  148 1    
    50   24   25 am   BACKBONE|DICT|INTERRES
    51   24  149 1    
    52   25   26 2    
    53   25   27 1    
    54   27   28 1    
    55   27   29 1    
    56   27  150 1    
    57   28  151 1    
    58   28  152 1    
    59   28  153 1    
    60   29   30 am   BACKBONE|DICT|INTERRES
    61   29  154 1    
    62   30   31 2    
    63   30   32 1    
    64   32   33 1    
    65   32   34 1    
    66   32  155 1    
    67   33  156 1    
    68   33  157 1    
    69   33  158 1    
    70   34   35 am   BACKBONE|DICT|INTERRES
    71   34  159 1    
    72   35   36 2    
    73   35   37 1    
    74   37   38 1    
    75   37   39 1    
    76   37  160 1    
    77   38  161 1    
    78   38  162 1    
    79   38  163 1    
    80   39   40 am   BACKBONE|DICT|INTERRES
    81   39  164 1    
    82   40   41 2    
    83   40   42 1    
    84   42   43 1    
    85   42   44 1    
    86   42  165 1    
    87   43  166 1    
    88   43  167 1    
    89   43  168 1    
    90   44   45 am   BACKBONE|DICT|INTERRES
    91   44  169 1    
    92   45   46 2    
    93   45   47 1    
    94   47   48 1    
    95   47   49 1    
    96   47  170 1    
    97   48  171 1    
    98   48  172 1    
    99   48  173 1    
   100   49   50 am   BACKBONE|DICT|INTERRES
   101   49  174 1    
   102   50   51 2    
   103   50   52 1    
   104   52   53 1    
   105   52   54 1    
   106   52  175 1    
   107   53  176 1    
   108   53  177 1    
   109   53  178 1    
   110   54   55 am   BACKBONE|DICT|INTERRES
   111   54  179 1    
   112   55   56 2    
   113   55   57 1    
   114   57   58 1    
   115   57   59 1    
   116   57  180 1    
   117   58  181 1    
   118   58  182 1    
   119   58  183 1    
   120   59   60 am   BACKBONE|DICT|INTERRES
   121   59  184 1    
   122   60   61 2    
   123   60   62 1    
   124   62   63 1    
   125   62   64 1    
   126   62  185 1    
   127   63  186 1    
   128   63  187 1    
   129   63  188 1    
   130   64   65 am   BACKBONE|DICT|INTERRES
   131   64  189 1    
   132   65   66 2    
   133   67   68 2    
   134   67   69 am   BACKBONE|DICT|INTERRES
   135   69   70 1    
   136   69  190 1    
   137   70   71 1    
   138   70   72 1    
   139   70  191 1    
   140   71  192 1    
   141   71  193 1    
   142   71  194 1    
   143   72   73 2    
   144   72   74 am   BACKBONE|DICT|INTERRES
   145   74   75 1    
   146   74  195 1    
   147   75   76 1    
   148   75   77 1    
   149   75  196 1    
   150   76  197 1    
   151   76  198 1    
   152   76  199 1    
   153   77   78 2    
   154   77   79 am   BACKBONE|DICT|INTERRES
   155   79   80 1    
   156   79  200 1    
   157   80   81 1    
   158   80   82 1    
   159   80  201 1    
   160   81  202 1    
   161   81  203 1    
   162   81  204 1    
   163   82   83 2    
   164   82   84 am   BACKBONE|DICT|INTERRES
   165   84   85 1    
   166   84  205 1    
   167   85   86 1    
   168   85   87 1    
   169   85  206 1    
   170   86  207 1    
   171   86  208 1    
   172   86  209 1    
   173   87   88 2    
   174   87   89 am   BACKBONE|DICT|INTERRES
   175   89   90 1    
   176   89  210 1    
   177   90   91 1    
   178   90   92 1    
   179   90  211 1    
   180   91  212 1    
   181   91  213 1    
   182   91  214 1    
   183   92   93 2    
   184   92   94 am   BACKBONE|DICT|INTERRES
   185   94   95 1    
   186   94  215 1    
   187   95   96 1    
   188   95   97 1    
   189   95  216 1    
   190   96  217 1    
   191   96  218 1    
   192   96  219 1    
   193   97   98 2    
   194   97   99 am   BACKBONE|DICT|INTERRES
   195   99  100 1    
   196   99  220 1    
   197  100  101 1    
   198  100  102 1    
   199  100  221 1    
   200  101  222 1    
   201  101  223 1    
   202  101  224 1    
   203  102  103 2    
   204  102  104 am   BACKBONE|DICT|INTERRES
   205  104  105 1    
   206  104  225 1    
   207  105  106 1    
   208  105  107 1    
   209  105  226 1    
   210  106  227 1    
   211  106  228 1    
   212  106  229 1    
   213  107  108 2    
   214  107  109 am   BACKBONE|DICT|INTERRES
   215  109  110 1    
   216  109  230 1    
   217  110  111 1    
   218  110  112 1    
   219  110  231 1    
   220  111  232 1    
   221  111  233 1    
   222  111  234 1    
   223  112  113 2    
   224  112  114 am   BACKBONE|DICT|INTERRES
   225  114  115 1    
   226  114  235 1    
   227  115  116 1    
   228  115  117 1    
   229  115  236 1    
   230  116  237 1    
   231  116  238 1    
   232  116  239 1    
   233  117  118 2    
   234  117  119 am   BACKBONE|DICT|INTERRES
   235  119  120 1    
   236  119  240 1    
   237  120  121 1    
   238  120  124 1    
   239  120  241 1    
   240  121  122 am   BACKBONE|DICT|INTERRES
   241  121  123 2    
   242  122  242 1    
   243  122  243 1    
   244  124  125 1    
   245  124  244 1    
   246  124  245 1    
   247  125  126 1    
   248  126  246 1    
   249  126  247 1    
@<TRIPOS>SUBSTRUCTURE
     1 UNK         1 GROUP             0       ****    0 ROOT    
