@<TRIPOS>MOLECULE
3R540
247   249    1
SMALL
USER_CHARGES


@<TRIPOS>ATOM
      1 CA          0.5201  -10.2807  -48.1918 C.3       0 UNK        -0.1800 
      2 C           1.3353  -10.6010  -49.4370 C.2       0 UNK         0.5000 
      3 O           0.9598  -10.1960  -50.5371 O.2       0 UNK        -0.5000 
      4 N           2.4461  -11.3213  -49.2663 N.am      1 UNK        -0.5000 
      5 CA          3.3741  -11.7458  -50.3132 C.3       1 UNK         0.1400 
      6 C6          2.7620  -12.7810  -51.3016 C.3       23 UNK        -0.0398 
      7 S7          2.2513  -14.3446  -50.5094 S.3       23 UNK        -0.2404 
      8 C8          0.4493  -14.3196  -50.7844 C.3       23 UNK        -0.0205 
      9 C9         -0.2765  -15.4493  -50.0620 C.ar      23 UNK        -0.0193 
     10 C10        -1.4546  -15.1843  -49.3572 C.ar      23 UNK        -0.1150 
     11 C11        -2.1571  -16.2166  -48.7269 C.ar      23 UNK        -0.0193 
     12 C12        -1.6545  -17.5200  -48.7765 C.ar      23 UNK        -0.1150 
     13 C13        -0.4602  -17.7931  -49.4488 C.ar      23 UNK        -0.0193 
     14 C14         0.2066  -16.7608  -50.1111 C.ar      23 UNK        -0.1150 
     15 C15         0.1181  -19.1985  -49.4675 C.3       23 UNK        -0.0205 
     16 S16         1.3558  -19.4401  -48.1552 S.3       23 UNK        -0.2404 
     17 C17         0.3133  -19.6472  -46.6756 C.3       23 UNK        -0.0398 
     18 CA          0.0656  -21.1357  -46.3374 C.3       11 UNK         0.1400 
     19 N          -0.1003  -21.3455  -44.9014 N.am      11 UNK        -0.5000 
     20 C           0.0030  -22.5325  -44.2899 C.2       10 UNK         0.5000 
     21 O           0.3045  -23.5787  -44.8648 O.2       10 UNK        -0.5000 
     22 CA         -0.3234  -22.5493  -42.7855 C.3       10 UNK         0.1400 
     23 CB          0.9186  -22.1781  -41.9609 C.3       10 UNK        -0.1800 
     24 N          -1.4190  -21.6398  -42.4417 N.am      10 UNK        -0.5000 
     25 C          -2.6859  -21.7893  -42.8535 C.2       9 UNK         0.5000 
     26 O          -3.0756  -22.7293  -43.5467 O.2       9 UNK        -0.5000 
     27 CA         -3.6663  -20.6686  -42.4655 C.3       9 UNK         0.1400 
     28 CB         -4.1819  -20.8699  -41.0331 C.3       9 UNK        -0.1800 
     29 N          -3.0885  -19.3281  -42.5888 N.am      9 UNK        -0.5000 
     30 C          -2.6600  -18.7677  -43.7266 C.2       8 UNK         0.5000 
     31 O          -2.6382  -19.3519  -44.8075 O.2       8 UNK        -0.5000 
     32 CA         -2.1389  -17.3252  -43.6503 C.3       8 UNK         0.1400 
     33 CB         -3.2638  -16.3293  -43.3101 C.3       8 UNK        -0.1800 
     34 N          -0.9825  -17.1706  -42.7659 N.am      8 UNK        -0.5000 
     35 C          -0.9077  -17.2875  -41.4319 C.2       7 UNK         0.5000 
     36 O          -1.8518  -17.6003  -40.7055 O.2       7 UNK        -0.5000 
     37 CA          0.4663  -16.9870  -40.8100 C.3       7 UNK         0.1400 
     38 CB          1.3784  -18.2216  -40.8903 C.3       7 UNK        -0.1800 
     39 N           1.1065  -15.8565  -41.4851 N.am      7 UNK        -0.5000 
     40 C           0.8315  -14.5698  -41.2232 C.2       6 UNK         0.5000 
     41 O           0.1064  -14.1995  -40.2992 O.2       6 UNK        -0.5000 
     42 CA          1.4573  -13.5175  -42.1602 C.3       6 UNK         0.1400 
     43 CB          2.8514  -13.1095  -41.6601 C.3       6 UNK        -0.1800 
     44 N           1.5608  -13.9832  -43.5438 N.am      6 UNK        -0.5000 
     45 C           0.5196  -14.1842  -44.3653 C.2       5 UNK         0.5000 
     46 O          -0.6427  -13.9049  -44.0750 O.2       5 UNK        -0.5000 
     47 CA          0.8234  -14.8273  -45.7332 C.3       5 UNK         0.1400 
     48 CB          0.9096  -13.7501  -46.8232 C.3       5 UNK        -0.1800 
     49 N           2.0582  -15.6156  -45.7508 N.am      5 UNK        -0.5000 
     50 C           2.2957  -16.7252  -45.0420 C.2       4 UNK         0.5000 
     51 O           1.4706  -17.2019  -44.2600 O.2       4 UNK        -0.5000 
     52 CA          3.6875  -17.3851  -45.2029 C.3       4 UNK         0.1400 
     53 CB          3.7294  -18.8188  -44.6417 C.3       4 UNK        -0.1800 
     54 N           4.1991  -17.4046  -46.5793 N.am      4 UNK        -0.5000 
     55 C           4.6568  -16.3513  -47.2689 C.2       3 UNK         0.5000 
     56 O           4.6444  -15.2028  -46.8192 O.2       3 UNK        -0.5000 
     57 CA          5.1896  -16.6334  -48.6905 C.3       3 UNK         0.1400 
     58 CB          4.1591  -17.3953  -49.5417 C.3       3 UNK        -0.1800 
     59 N           5.5535  -15.3970  -49.3856 N.am      3 UNK        -0.5000 
     60 C           6.6974  -14.7220  -49.2029 C.2       2 UNK         0.5000 
     61 O           7.6189  -15.1262  -48.4915 O.2       2 UNK        -0.5000 
     62 CA          6.8579  -13.3774  -49.9456 C.3       2 UNK         0.1400 
     63 CB          7.8054  -13.5379  -51.1453 C.3       2 UNK        -0.1800 
     64 N           5.5944  -12.8038  -50.4195 N.am      2 UNK        -0.5000 
     65 C           4.6730  -12.2316  -49.6322 C.2       1 UNK         0.5000 
     66 O           4.8182  -12.0846  -48.4149 O.2       1 UNK        -0.5000 
     67 C          -1.1357  -21.7039  -47.1148 C.2       11 UNK         0.5000 
     68 O          -0.9420  -22.3965  -48.1113 O.2       11 UNK        -0.5000 
     69 N          -2.3550  -21.4317  -46.6296 N.am      12 UNK        -0.5000 
     70 CA         -3.6137  -21.8910  -47.2138 C.3       12 UNK         0.1400 
     71 CB         -4.7952  -21.2648  -46.4616 C.3       12 UNK        -0.1800 
     72 C          -3.7513  -23.4208  -47.2646 C.2       12 UNK         0.5000 
     73 O          -4.2836  -23.9452  -48.2439 O.2       12 UNK        -0.5000 
     74 N          -3.2351  -24.0968  -46.2286 N.am      13 UNK        -0.5000 
     75 CA         -3.1262  -25.5517  -46.1431 C.3       13 UNK         0.1400 
     76 CB         -2.6430  -25.9431  -44.7387 C.3       13 UNK        -0.1800 
     77 C          -2.1996  -26.1445  -47.2221 C.2       13 UNK         0.5000 
     78 O          -2.5239  -27.1858  -47.7927 O.2       13 UNK        -0.5000 
     79 N          -1.0782  -25.4635  -47.4963 N.am      14 UNK        -0.5000 
     80 CA         -0.1180  -25.8392  -48.5346 C.3       14 UNK         0.1400 
     81 CB          1.2241  -25.1411  -48.2659 C.3       14 UNK        -0.1800 
     82 C          -0.6312  -25.5167  -49.9502 C.2       14 UNK         0.5000 
     83 O          -0.4104  -26.3033  -50.8725 O.2       14 UNK        -0.5000 
     84 N          -1.3226  -24.3787  -50.0970 N.am      15 UNK        -0.5000 
     85 CA         -1.9150  -23.8755  -51.3363 C.3       15 UNK         0.1400 
     86 CB         -2.1552  -22.3654  -51.1907 C.3       15 UNK        -0.1800 
     87 C          -3.1950  -24.6433  -51.7252 C.2       15 UNK         0.5000 
     88 O          -4.2977  -24.0860  -51.6986 O.2       15 UNK        -0.5000 
     89 N          -3.0089  -25.9294  -52.0529 N.am      16 UNK        -0.5000 
     90 CA         -4.0029  -26.9143  -52.4992 C.3       16 UNK         0.1400 
     91 CB         -4.6291  -26.4725  -53.8388 C.3       16 UNK        -0.1800 
     92 C          -5.0789  -27.2544  -51.4457 C.2       16 UNK         0.5000 
     93 O          -6.1002  -27.8473  -51.7960 O.2       16 UNK        -0.5000 
     94 N          -4.8465  -26.8517  -50.1863 N.am      17 UNK        -0.5000 
     95 CA         -5.7829  -26.8707  -49.0563 C.3       17 UNK         0.1400 
     96 CB         -6.1064  -28.3172  -48.6296 C.3       17 UNK        -0.1800 
     97 C          -7.0458  -26.0146  -49.3032 C.2       17 UNK         0.5000 
     98 O          -8.0880  -26.2697  -48.6969 O.2       17 UNK        -0.5000 
     99 N          -6.9331  -25.0274  -50.2016 N.am      18 UNK        -0.5000 
    100 CA        -8.0396  -24.2205  -50.7126 C.3       18 UNK         0.1400 
    101 CB        -8.3943  -24.7282  -52.1218 C.3       18 UNK        -0.1800 
    102 C         -7.7075  -22.7191  -50.7361 C.2       18 UNK         0.5000 
    103 O         -8.5353  -21.9373  -51.2059 O.2       18 UNK        -0.5000 
    104 N         -6.5128  -22.3391  -50.2539 N.am      19 UNK        -0.5000 
    105 CA        -5.9535  -20.9830  -50.2850 C.3       19 UNK         0.1400 
    106 CB        -6.7730  -20.0203  -49.3989 C.3       19 UNK        -0.1800 
    107 C         -5.7516  -20.4553  -51.7194 C.2       19 UNK         0.5000 
    108 O         -5.9504  -19.2663  -51.9705 O.2       19 UNK        -0.5000 
    109 N         -5.3446  -21.3485  -52.6344 N.am      20 UNK        -0.5000 
    110 CA        -5.2141  -21.0899  -54.0731 C.3       20 UNK         0.1400 
    111 CB        -4.7945  -22.3918  -54.7730 C.3       20 UNK        -0.1800 
    112 C         -4.2453  -19.9439  -54.4312 C.2       20 UNK         0.5000 
    113 O         -4.4902  -19.2101  -55.3891 O.2       20 UNK        -0.5000 
    114 N         -3.1816  -19.7952  -53.6330 N.am      21 UNK        -0.5000 
    115 CA        -2.1746  -18.7407  -53.7538 C.3       21 UNK         0.1400 
    116 CB        -0.8923  -19.2227  -53.0616 C.3       21 UNK        -0.1800 
    117 C         -2.6268  -17.3892  -53.1637 C.2       21 UNK         0.5000 
    118 O         -2.0046  -16.3695  -53.4628 O.2       21 UNK        -0.5000 
    119 N         -3.6854  -17.3982  -52.3423 N.am      22 UNK        -0.5000 
    120 CA        -4.2617  -16.2076  -51.6992 C.3       22 UNK         0.1400 
    121 C         -5.2252  -15.3973  -52.6192 C.2       22 UNK         0.5000 
    122 N         -5.6000  -15.8924  -53.7936 N.am      22 UNK        -0.7600 
    123 O         -5.6293  -14.2907  -52.2741 O.2       22 UNK        -0.5000 
    124 C124       -4.9197  -16.5783  -50.3400 C.3       23 UNK        -0.0398 
    125 S125       -4.7558  -15.2613  -49.0843 S.3       23 UNK        -0.2404 
    126 C126       -3.4569  -15.9259  -47.9883 C.3       23 UNK        -0.0205 
    127 H127        0.3499   -9.2066  -48.1192 H         1 UNK         0.0600 
    128 H128       -0.4481  -10.7789  -48.2405 H         1 UNK         0.0600 
    129 H129        1.0254  -10.6057  -47.2820 H         1 UNK         0.0600 
    130 H130        2.7521  -11.5911  -48.3392 H         1 UNK         0.3000 
    131 H131        3.6488  -10.8560  -50.8831 H         1 UNK         0.0600 
    132 H132        1.9067  -12.3399  -51.8138 H         1 UNK         0.0800 
    133 H133        3.4663  -13.0181  -52.0996 H         1 UNK         0.0800 
    134 H134        0.0609  -13.3533  -50.4588 H         1 UNK         0.0800 
    135 H135        0.2456  -14.3987  -51.8531 H         1 UNK         0.0800 
    136 H136       -1.8428  -14.1764  -49.3161 H         1 UNK         0.1150 
    137 H137       -2.1893  -18.3205  -48.2852 H         1 UNK         0.1150 
    138 H138        1.1138  -16.9783  -50.6557 H         1 UNK         0.1150 
    139 H139       -0.6747  -19.9421  -49.3883 H         1 UNK         0.0800 
    140 H140        0.6095  -19.3788  -50.4240 H         1 UNK         0.0800 
    141 H141       -0.6134  -19.0804  -46.7581 H         1 UNK         0.0800 
    142 H142        0.8558  -19.1765  -45.8587 H         1 UNK         0.0800 
    143 H143        0.9472  -21.7073  -46.6377 H         1 UNK         0.0600 
    144 H144       -0.4002  -20.5498  -44.3585 H         1 UNK         0.3000 
    145 H145       -0.6259  -23.5644  -42.5194 H         1 UNK         0.0600 
    146 H146        0.7160  -22.2406  -40.8915 H         1 UNK         0.0600 
    147 H147        1.7449  -22.8574  -42.1744 H         1 UNK         0.0600 
    148 H148        1.2618  -21.1661  -42.1794 H         1 UNK         0.0600 
    149 H149       -1.1901  -20.8379  -41.8737 H         1 UNK         0.3000 
    150 H150       -4.5196  -20.7250  -43.1436 H         1 UNK         0.0600 
    151 H151       -4.6291  -21.8576  -40.9134 H         1 UNK         0.0600 
    152 H152       -4.9476  -20.1350  -40.7839 H         1 UNK         0.0600 
    153 H153       -3.3801  -20.7797  -40.2991 H         1 UNK         0.0600 
    154 H154       -2.9902  -18.7827  -41.7371 H         1 UNK         0.3000 
    155 H155       -1.7765  -17.0708  -44.6479 H         1 UNK         0.0600 
    156 H156       -4.0739  -16.3975  -44.0371 H         1 UNK         0.0600 
    157 H157       -2.8977  -15.3030  -43.3286 H         1 UNK         0.0600 
    158 H158       -3.6944  -16.5111  -42.3253 H         1 UNK         0.0600 
    159 H159       -0.1076  -17.0019  -43.2556 H         1 UNK         0.3000 
    160 H160        0.3178  -16.7428  -39.7558 H         1 UNK         0.0600 
    161 H161        2.3498  -18.0236  -40.4372 H         1 UNK         0.0600 
    162 H162        1.5478  -18.5377  -41.9198 H         1 UNK         0.0600 
    163 H163        0.9379  -19.0655  -40.3579 H         1 UNK         0.0600 
    164 H164        1.6780  -16.0772  -42.2884 H         1 UNK         0.3000 
    165 H165        0.8161  -12.6336  -42.1442 H         1 UNK         0.0600 
    166 H166        3.2743  -12.3152  -42.2755 H         1 UNK         0.0600 
    167 H167        2.8043  -12.7358  -40.6363 H         1 UNK         0.0600 
    168 H168        3.5465  -13.9500  -41.6711 H         1 UNK         0.0600 
    169 H169        2.4836  -14.2160  -43.8795 H         1 UNK         0.3000 
    170 H170       -0.0039  -15.4977  -45.9759 H         1 UNK         0.0600 
    171 H171       -0.0125  -13.1701  -46.8770 H         1 UNK         0.0600 
    172 H172        1.7304  -13.0562  -46.6390 H         1 UNK         0.0600 
    173 H173        1.0663  -14.1995  -47.8021 H         1 UNK         0.0600 
    174 H174        2.8190  -15.2654  -46.3263 H         1 UNK         0.3000 
    175 H175        4.3740  -16.7847  -44.6029 H         1 UNK         0.0600 
    176 H176        4.7416  -19.2222  -44.6734 H         1 UNK         0.0600 
    177 H177        3.4085  -18.8486  -43.5998 H         1 UNK         0.0600 
    178 H178        3.0856  -19.4940  -45.2052 H         1 UNK         0.0600 
    179 H179        4.1899  -18.3059  -47.0343 H         1 UNK         0.3000 
    180 H180        6.0812  -17.2566  -48.5961 H         1 UNK         0.0600 
    181 H181        4.0553  -18.4261  -49.2028 H         1 UNK         0.0600 
    182 H182        4.4547  -17.4345  -50.5903 H         1 UNK         0.0600 
    183 H183        3.1735  -16.9347  -49.4864 H         1 UNK         0.0600 
    184 H184        4.8304  -14.9698  -49.9453 H         1 UNK         0.3000 
    185 H185        7.3137  -12.6735  -49.2459 H         1 UNK         0.0600 
    186 H186        7.9886  -12.5813  -51.6350 H         1 UNK         0.0600 
    187 H187        8.7735  -13.9295  -50.8300 H         1 UNK         0.0600 
    188 H188        7.4001  -14.2253  -51.8888 H         1 UNK         0.0600 
    189 H189        5.4193  -12.8792  -51.4109 H         1 UNK         0.3000 
    190 H190       -2.4360  -20.8040  -45.8318 H         1 UNK         0.3000 
    191 H191       -3.6261  -21.5293  -48.2389 H         1 UNK         0.0600 
    192 H192       -4.7685  -21.5112  -45.4008 H         1 UNK         0.0600 
    193 H193       -5.7455  -21.6281  -46.8528 H         1 UNK         0.0600 
    194 H194       -4.7928  -20.1786  -46.5551 H         1 UNK         0.0600 
    195 H195       -2.8889  -23.5682  -45.4347 H         1 UNK         0.3000 
    196 H196       -4.1230  -25.9716  -46.2828 H         1 UNK         0.0600 
    197 H197       -1.6602  -25.5248  -44.5188 H         1 UNK         0.0600 
    198 H198       -2.5700  -27.0266  -44.6379 H         1 UNK         0.0600 
    199 H199       -3.3339  -25.5909  -43.9724 H         1 UNK         0.0600 
    200 H200       -0.8938  -24.6042  -46.9964 H         1 UNK         0.3000 
    201 H201        0.0473  -26.9173  -48.4780 H         1 UNK         0.0600 
    202 H202        1.1356  -24.0556  -48.3152 H         1 UNK         0.0600 
    203 H203        1.9730  -25.4419  -48.9995 H         1 UNK         0.0600 
    204 H204        1.6116  -25.3990  -47.2800 H         1 UNK         0.0600 
    205 H205       -1.3974  -23.7651  -49.2894 H         1 UNK         0.3000 
    206 H206       -1.1948  -24.0158  -52.1450 H         1 UNK         0.0600 
    207 H207       -1.2253  -21.8391  -50.9755 H         1 UNK         0.0600 
    208 H208       -2.5573  -21.9540  -52.1137 H         1 UNK         0.0600 
    209 H209       -2.8585  -22.1466  -50.3886 H         1 UNK         0.0600 
    210 H210       -2.0625  -26.2853  -51.9492 H         1 UNK         0.3000 
    211 H211       -3.4529  -27.8391  -52.6779 H         1 UNK         0.0600 
    212 H212       -5.2677  -25.5972  -53.7177 H         1 UNK         0.0600 
    213 H213       -5.2432  -27.2659  -54.2661 H         1 UNK         0.0600 
    214 H214       -3.8614  -26.2285  -54.5731 H         1 UNK         0.0600 
    215 H215       -3.9710  -26.3808  -50.0054 H         1 UNK         0.3000 
    216 H216       -5.2639  -26.3974  -48.2258 H         1 UNK         0.0600 
    217 H217       -5.1938  -28.8885  -48.4589 H         1 UNK         0.0600 
    218 H218       -6.6750  -28.3326  -47.6993 H         1 UNK         0.0600 
    219 H219       -6.6968  -28.8411  -49.3815 H         1 UNK         0.0600 
    220 H220       -6.0341  -24.8870  -50.6494 H         1 UNK         0.3000 
    221 H221       -8.9174  -24.3294  -50.0728 H         1 UNK         0.0600 
    222 H222       -7.5591  -24.6044  -52.8126 H         1 UNK         0.0600 
    223 H223       -8.6581  -25.7859  -52.1042 H         1 UNK         0.0600 
    224 H224       -9.2475  -24.1888  -52.5346 H         1 UNK         0.0600 
    225 H225       -5.9022  -23.0566  -49.8834 H         1 UNK         0.3000 
    226 H226       -4.9559  -21.0529  -49.8619 H         1 UNK         0.0600 
    227 H227       -6.9852  -20.4547  -48.4235 H         1 UNK         0.0600 
    228 H228       -6.2311  -19.0904  -49.2281 H         1 UNK         0.0600 
    229 H229       -7.7275  -19.7605  -49.8577 H         1 UNK         0.0600 
    230 H230       -5.1781  -22.3030  -52.3319 H         1 UNK         0.3000 
    231 H231       -6.2016  -20.8068  -54.4427 H         1 UNK         0.0600 
    232 H232       -5.5273  -23.1817  -54.6067 H         1 UNK         0.0600 
    233 H233       -3.8299  -22.7506  -54.4120 H         1 UNK         0.0600 
    234 H234       -4.7106  -22.2485  -55.8510 H         1 UNK         0.0600 
    235 H235       -3.0731  -20.4378  -52.8642 H         1 UNK         0.3000 
    236 H236       -1.9538  -18.5797  -54.8111 H         1 UNK         0.0600 
    237 H237       -0.1119  -18.4610  -53.0942 H         1 UNK         0.0600 
    238 H238       -1.0816  -19.4583  -52.0156 H         1 UNK         0.0600 
    239 H239       -0.4956  -20.1177  -53.5412 H         1 UNK         0.0600 
    240 H240       -4.2084  -18.2565  -52.2164 H         1 UNK         0.3000 
    241 H241       -3.4281  -15.5352  -51.4887 H         1 UNK         0.0600 
    242 H242       -5.2802  -16.8005  -54.0929 H         1 UNK         0.3800 
    243 H243       -6.2175  -15.3575  -54.3839 H         1 UNK         0.3800 
    244 H244       -5.9764  -16.8206  -50.4665 H         1 UNK         0.0800 
    245 H245       -4.4666  -17.4833  -49.9337 H         1 UNK         0.0800 
    246 H246       -3.8344  -16.8232  -47.4950 H         1 UNK         0.0800 
    247 H247       -3.2585  -15.2025  -47.1962 H         1 UNK         0.0800 
@<TRIPOS>BOND
     1    1    2 1    
     2    1  127 1    
     3    1  128 1    
     4    1  129 1    
     5    2    3 2    
     6    2    4 am   BACKBONE|DICT|INTERRES
     7    4    5 1    
     8    4  130 1    
     9    5    6 1    
    10    5   65 1    
    11    5  131 1    
    12    6    7 1    
    13    6  132 1    
    14    6  133 1    
    15    7    8 1    
    16    8    9 1    
    17    8  134 1    
    18    8  135 1    
    19    9   10 ar   
    20    9   14 ar   
    21   10   11 ar   
    22   10  136 1    
    23   11   12 ar   
    24   11  126 1    
    25   12   13 ar   
    26   12  137 1    
    27   13   14 ar   
    28   13   15 1    
    29   14  138 1    
    30   15   16 1    
    31   15  139 1    
    32   15  140 1    
    33   16   17 1    
    34   17   18 1    
    35   17  141 1    
    36   17  142 1    
    37   18   19 1    
    38   18   67 1    
    39   18  143 1    
    40   19   20 am   BACKBONE|DICT|INTERRES
    41   19  144 1    
    42   20   21 2    
    43   20   22 1    
    44   22   23 1    
    45   22   24 1    
    46   22  145 1    
    47   23  146 1    
    48   23  147 1    
    49   23  148 1    
    50   24   25 am   BACKBONE|DICT|INTERRES
    51   24  149 1    
    52   25   26 2    
    53   25   27 1    
    54   27   28 1    
    55   27   29 1    
    56   27  150 1    
    57   28  151 1    
    58   28  152 1    
    59   28  153 1    
    60   29   30 am   BACKBONE|DICT|INTERRES
    61   29  154 1    
    62   30   31 2    
    63   30   32 1    
    64   32   33 1    
    65   32   34 1    
    66   32  155 1    
    67   33  156 1    
    68   33  157 1    
    69   33  158 1    
    70   34   35 am   BACKBONE|DICT|INTERRES
    71   34  159 1    
    72   35   36 2    
    73   35   37 1    
    74   37   38 1    
    75   37   39 1    
    76   37  160 1    
    77   38  161 1    
    78   38  162 1    
    79   38  163 1    
    80   39   40 am   BACKBONE|DICT|INTERRES
    81   39  164 1    
    82   40   41 2    
    83   40   42 1    
    84   42   43 1    
    85   42   44 1    
    86   42  165 1    
    87   43  166 1    
    88   43  167 1    
    89   43  168 1    
    90   44   45 am   BACKBONE|DICT|INTERRES
    91   44  169 1    
    92   45   46 2    
    93   45   47 1    
    94   47   48 1    
    95   47   49 1    
    96   47  170 1    
    97   48  171 1    
    98   48  172 1    
    99   48  173 1    
   100   49   50 am   BACKBONE|DICT|INTERRES
   101   49  174 1    
   102   50   51 2    
   103   50   52 1    
   104   52   53 1    
   105   52   54 1    
   106   52  175 1    
   107   53  176 1    
   108   53  177 1    
   109   53  178 1    
   110   54   55 am   BACKBONE|DICT|INTERRES
   111   54  179 1    
   112   55   56 2    
   113   55   57 1    
   114   57   58 1    
   115   57   59 1    
   116   57  180 1    
   117   58  181 1    
   118   58  182 1    
   119   58  183 1    
   120   59   60 am   BACKBONE|DICT|INTERRES
   121   59  184 1    
   122   60   61 2    
   123   60   62 1    
   124   62   63 1    
   125   62   64 1    
   126   62  185 1    
   127   63  186 1    
   128   63  187 1    
   129   63  188 1    
   130   64   65 am   BACKBONE|DICT|INTERRES
   131   64  189 1    
   132   65   66 2    
   133   67   68 2    
   134   67   69 am   BACKBONE|DICT|INTERRES
   135   69   70 1    
   136   69  190 1    
   137   70   71 1    
   138   70   72 1    
   139   70  191 1    
   140   71  192 1    
   141   71  193 1    
   142   71  194 1    
   143   72   73 2    
   144   72   74 am   BACKBONE|DICT|INTERRES
   145   74   75 1    
   146   74  195 1    
   147   75   76 1    
   148   75   77 1    
   149   75  196 1    
   150   76  197 1    
   151   76  198 1    
   152   76  199 1    
   153   77   78 2    
   154   77   79 am   BACKBONE|DICT|INTERRES
   155   79   80 1    
   156   79  200 1    
   157   80   81 1    
   158   80   82 1    
   159   80  201 1    
   160   81  202 1    
   161   81  203 1    
   162   81  204 1    
   163   82   83 2    
   164   82   84 am   BACKBONE|DICT|INTERRES
   165   84   85 1    
   166   84  205 1    
   167   85   86 1    
   168   85   87 1    
   169   85  206 1    
   170   86  207 1    
   171   86  208 1    
   172   86  209 1    
   173   87   88 2    
   174   87   89 am   BACKBONE|DICT|INTERRES
   175   89   90 1    
   176   89  210 1    
   177   90   91 1    
   178   90   92 1    
   179   90  211 1    
   180   91  212 1    
   181   91  213 1    
   182   91  214 1    
   183   92   93 2    
   184   92   94 am   BACKBONE|DICT|INTERRES
   185   94   95 1    
   186   94  215 1    
   187   95   96 1    
   188   95   97 1    
   189   95  216 1    
   190   96  217 1    
   191   96  218 1    
   192   96  219 1    
   193   97   98 2    
   194   97   99 am   BACKBONE|DICT|INTERRES
   195   99  100 1    
   196   99  220 1    
   197  100  101 1    
   198  100  102 1    
   199  100  221 1    
   200  101  222 1    
   201  101  223 1    
   202  101  224 1    
   203  102  103 2    
   204  102  104 am   BACKBONE|DICT|INTERRES
   205  104  105 1    
   206  104  225 1    
   207  105  106 1    
   208  105  107 1    
   209  105  226 1    
   210  106  227 1    
   211  106  228 1    
   212  106  229 1    
   213  107  108 2    
   214  107  109 am   BACKBONE|DICT|INTERRES
   215  109  110 1    
   216  109  230 1    
   217  110  111 1    
   218  110  112 1    
   219  110  231 1    
   220  111  232 1    
   221  111  233 1    
   222  111  234 1    
   223  112  113 2    
   224  112  114 am   BACKBONE|DICT|INTERRES
   225  114  115 1    
   226  114  235 1    
   227  115  116 1    
   228  115  117 1    
   229  115  236 1    
   230  116  237 1    
   231  116  238 1    
   232  116  239 1    
   233  117  118 2    
   234  117  119 am   BACKBONE|DICT|INTERRES
   235  119  120 1    
   236  119  240 1    
   237  120  121 1    
   238  120  124 1    
   239  120  241 1    
   240  121  122 am   BACKBONE|DICT|INTERRES
   241  121  123 2    
   242  122  242 1    
   243  122  243 1    
   244  124  125 1    
   245  124  244 1    
   246  124  245 1    
   247  125  126 1    
   248  126  246 1    
   249  126  247 1    
@<TRIPOS>SUBSTRUCTURE
     1 UNK         1 GROUP             0       ****    0 ROOT    
