@<TRIPOS>MOLECULE
3R540
247   249    1
SMALL
USER_CHARGES


@<TRIPOS>ATOM
      1 CA         -4.3310  -12.7442  -49.8267 C.3       0 UNK        -0.1800 
      2 C          -2.9662  -12.1916  -50.2082 C.2       0 UNK         0.5000 
      3 O          -2.4587  -11.2964  -49.5335 O.2       0 UNK        -0.5000 
      4 N          -2.3775  -12.7220  -51.2877 N.am      1 UNK        -0.5000 
      5 CA         -1.1063  -12.2968  -51.8878 C.3       1 UNK         0.1400 
      6 C6         -0.8231  -12.9815  -53.2578 C.3       23 UNK        -0.0398 
      7 S7         -1.4480  -14.6884  -53.4871 S.3       23 UNK        -0.2404 
      8 C8         -0.3955  -15.6845  -52.3805 C.3       23 UNK        -0.0205 
      9 C9         -1.0840  -16.2208  -51.1209 C.ar      23 UNK        -0.0193 
     10 C10        -2.4614  -16.1022  -50.8746 C.ar      23 UNK        -0.1150 
     11 C11        -3.0370  -16.6315  -49.7106 C.ar      23 UNK        -0.0193 
     12 C12        -2.2113  -17.2607  -48.7745 C.ar      23 UNK        -0.1150 
     13 C13        -0.8402  -17.3880  -49.0036 C.ar      23 UNK        -0.0193 
     14 C14        -0.2907  -16.8802  -50.1808 C.ar      23 UNK        -0.1150 
     15 C15         0.0600  -18.0555  -47.9784 C.3       23 UNK        -0.0205 
     16 S16         0.2807  -19.8265  -48.3280 S.3       23 UNK        -0.2404 
     17 C17        -1.2485  -20.5400  -47.6354 C.3       23 UNK        -0.0398 
     18 CA         -0.9891  -21.9238  -46.9954 C.3       11 UNK         0.1400 
     19 N          -0.1470  -21.8640  -45.7958 N.am      11 UNK        -0.5000 
     20 C           0.3931  -22.9398  -45.2045 C.2       10 UNK         0.5000 
     21 O           0.2700  -24.0858  -45.6352 O.2       10 UNK        -0.5000 
     22 CA          1.1450  -22.7128  -43.8807 C.3       10 UNK         0.1400 
     23 CB          2.5621  -22.1755  -44.1302 C.3       10 UNK        -0.1800 
     24 N           0.4218  -21.8201  -42.9750 N.am      10 UNK        -0.5000 
     25 C          -0.7760  -22.0944  -42.4391 C.2       9 UNK         0.5000 
     26 O          -1.3725  -23.1567  -42.6090 O.2       9 UNK        -0.5000 
     27 CA         -1.4458  -20.9806  -41.6158 C.3       9 UNK         0.1400 
     28 CB         -0.9247  -20.9691  -40.1710 C.3       9 UNK        -0.1800 
     29 N          -1.2673  -19.6606  -42.2196 N.am      9 UNK        -0.5000 
     30 C          -1.8163  -19.2785  -43.3816 C.2       8 UNK         0.5000 
     31 O          -2.5568  -19.9903  -44.0595 O.2       8 UNK        -0.5000 
     32 CA         -1.4303  -17.8796  -43.8943 C.3       8 UNK         0.1400 
     33 CB         -2.2758  -16.8040  -43.1972 C.3       8 UNK        -0.1800 
     34 N          -0.0077  -17.5819  -43.7120 N.am      8 UNK        -0.5000 
     35 C           0.9928  -18.2959  -44.2488 C.2       7 UNK         0.5000 
     36 O           0.8173  -19.2632  -44.9873 O.2       7 UNK        -0.5000 
     37 CA          2.4244  -17.9098  -43.8405 C.3       7 UNK         0.1400 
     38 CB          2.9046  -16.6826  -44.6271 C.3       7 UNK        -0.1800 
     39 N           2.5504  -17.6598  -42.4036 N.am      7 UNK        -0.5000 
     40 C           2.3409  -18.5674  -41.4409 C.2       6 UNK         0.5000 
     41 O           2.0341  -19.7358  -41.6760 O.2       6 UNK        -0.5000 
     42 CA          2.4422  -18.1049  -39.9713 C.3       6 UNK         0.1400 
     43 CB          3.8726  -18.2795  -39.4268 C.3       6 UNK        -0.1800 
     44 N           1.9176  -16.7533  -39.7225 N.am      6 UNK        -0.5000 
     45 C           2.4119  -15.5772  -40.1300 C.2       5 UNK         0.5000 
     46 O           3.4778  -15.4452  -40.7360 O.2       5 UNK        -0.5000 
     47 CA          1.5252  -14.3419  -39.8786 C.3       5 UNK         0.1400 
     48 CB          2.0891  -13.4923  -38.7299 C.3       5 UNK        -0.1800 
     49 N           1.4052  -13.5125  -41.0809 N.am      5 UNK        -0.5000 
     50 C           0.9504  -13.9443  -42.2653 C.2       4 UNK         0.5000 
     51 O           0.4956  -15.0781  -42.4465 O.2       4 UNK        -0.5000 
     52 CA          1.0623  -12.9539  -43.4408 C.3       4 UNK         0.1400 
     53 CB          2.5345  -12.6566  -43.7744 C.3       4 UNK        -0.1800 
     54 N           0.4217  -13.4837  -44.6418 N.am      4 UNK        -0.5000 
     55 C          -0.8913  -13.4785  -44.8900 C.2       3 UNK         0.5000 
     56 O          -1.7164  -12.9058  -44.1758 O.2       3 UNK        -0.5000 
     57 CA         -1.3406  -14.2319  -46.1614 C.3       3 UNK         0.1400 
     58 CB         -2.8553  -14.1405  -46.4056 C.3       3 UNK        -0.1800 
     59 N          -0.6391  -13.7585  -47.3570 N.am      3 UNK        -0.5000 
     60 C           0.6044  -14.1113  -47.7100 C.2       2 UNK         0.5000 
     61 O           1.2928  -14.8933  -47.0530 O.2       2 UNK        -0.5000 
     62 CA          1.1670  -13.4706  -48.9883 C.3       2 UNK         0.1400 
     63 CB          2.3683  -14.2369  -49.5775 C.3       2 UNK        -0.1800 
     64 N           0.1130  -13.3054  -49.9896 N.am      2 UNK        -0.5000 
     65 C           0.1165  -12.3695  -50.9459 C.2       1 UNK         0.5000 
     66 O           1.0345  -11.5623  -51.1008 O.2       1 UNK        -0.5000 
     67 C          -2.3094  -22.6756  -46.7366 C.2       11 UNK         0.5000 
     68 O          -2.7171  -23.4675  -47.5859 O.2       11 UNK        -0.5000 
     69 N          -2.9314  -22.4636  -45.5676 N.am      12 UNK        -0.5000 
     70 CA         -4.1268  -23.1891  -45.1318 C.3       12 UNK         0.1400 
     71 CB         -4.6912  -22.5549  -43.8521 C.3       12 UNK        -0.1800 
     72 C          -3.8669  -24.6945  -44.9362 C.2       12 UNK         0.5000 
     73 O          -4.6557  -25.5097  -45.4148 O.2       12 UNK        -0.5000 
     74 N          -2.7429  -25.0407  -44.2914 N.am      13 UNK        -0.5000 
     75 CA         -2.2760  -26.4179  -44.1018 C.3       13 UNK         0.1400 
     76 CB         -1.0615  -26.4236  -43.1616 C.3       13 UNK        -0.1800 
     77 C          -1.9430  -27.1309  -45.4272 C.2       13 UNK         0.5000 
     78 O          -2.1976  -28.3286  -45.5555 O.2       13 UNK        -0.5000 
     79 N          -1.4266  -26.3716  -46.4024 N.am      14 UNK        -0.5000 
     80 CA         -1.1741  -26.8086  -47.7763 C.3       14 UNK         0.1400 
     81 CB         -0.1335  -25.8693  -48.4114 C.3       14 UNK        -0.1800 
     82 C          -2.4455  -26.8751  -48.6501 C.2       14 UNK         0.5000 
     83 O          -2.3333  -27.2069  -49.8295 O.2       14 UNK        -0.5000 
     84 N          -3.6185  -26.5279  -48.0961 N.am      15 UNK        -0.5000 
     85 CA         -4.9258  -26.4632  -48.7620 C.3       15 UNK         0.1400 
     86 CB         -5.4135  -27.8756  -49.1460 C.3       15 UNK        -0.1800 
     87 C          -4.9414  -25.4725  -49.9465 C.2       15 UNK         0.5000 
     88 O          -5.5598  -25.7412  -50.9775 O.2       15 UNK        -0.5000 
     89 N          -4.2269  -24.3523  -49.7698 N.am      16 UNK        -0.5000 
     90 CA         -3.9946  -23.2597  -50.7153 C.3       16 UNK         0.1400 
     91 CB         -5.3150  -22.5824  -51.1325 C.3       16 UNK        -0.1800 
     92 C          -3.1082  -23.6316  -51.9222 C.2       16 UNK         0.5000 
     93 O          -2.9723  -22.8142  -52.8304 O.2       16 UNK        -0.5000 
     94 N          -2.4595  -24.8077  -51.9106 N.am      17 UNK        -0.5000 
     95 CA         -1.5292  -25.2342  -52.9651 C.3       17 UNK         0.1400 
     96 CB         -1.1925  -26.7216  -52.7863 C.3       17 UNK        -0.1800 
     97 C          -0.2365  -24.3936  -53.0136 C.2       17 UNK         0.5000 
     98 O           0.3885  -24.2978  -54.0701 O.2       17 UNK        -0.5000 
     99 N           0.1306  -23.7941  -51.8731 N.am      18 UNK        -0.5000 
    100 CA         1.2625  -22.8784  -51.7321 C.3       18 UNK         0.1400 
    101 CB         1.7461  -22.9268  -50.2739 C.3       18 UNK        -0.1800 
    102 C          0.9261  -21.4289  -52.1435 C.2       18 UNK         0.5000 
    103 O          1.8472  -20.6267  -52.3037 O.2       18 UNK        -0.5000 
    104 N         -0.3662  -21.1077  -52.2935 N.am      19 UNK        -0.5000 
    105 CA        -0.8537  -19.7870  -52.6837 C.3       19 UNK         0.1400 
    106 CB        -2.2062  -19.5402  -52.0015 C.3       19 UNK        -0.1800 
    107 C         -0.9890  -19.6663  -54.2126 C.2       19 UNK         0.5000 
    108 O         -0.9733  -20.6761  -54.9211 O.2       19 UNK        -0.5000 
    109 N         -1.1300  -18.4228  -54.6881 N.am      20 UNK        -0.5000 
    110 CA        -1.3331  -18.0901  -56.0970 C.3       20 UNK         0.1400 
    111 CB        -0.3363  -16.9970  -56.5206 C.3       20 UNK        -0.1800 
    112 C         -2.7870  -17.6556  -56.3382 C.2       20 UNK         0.5000 
    113 O         -3.4896  -18.3018  -57.1162 O.2       20 UNK        -0.5000 
    114 N         -3.2135  -16.5701  -55.6751 N.am      21 UNK        -0.5000 
    115 CA        -4.5553  -16.0002  -55.8216 C.3       21 UNK         0.1400 
    116 CB        -4.5396  -14.5312  -55.3695 C.3       21 UNK        -0.1800 
    117 C         -5.6256  -16.7859  -55.0443 C.2       21 UNK         0.5000 
    118 O         -6.7522  -16.9135  -55.5262 O.2       21 UNK        -0.5000 
    119 N         -5.2608  -17.2793  -53.8549 N.am      22 UNK        -0.5000 
    120 CA        -6.1374  -18.0727  -52.9806 C.3       22 UNK         0.1400 
    121 C         -6.2981  -19.5371  -53.4738 C.2       22 UNK         0.5000 
    122 N         -7.4017  -20.1904  -53.1353 N.am      22 UNK        -0.7600 
    123 O         -5.4248  -20.0986  -54.1301 O.2       22 UNK        -0.5000 
    124 C124       -5.6764  -18.0293  -51.5011 C.3       23 UNK        -0.0398 
    125 S125       -5.6333  -16.3279  -50.8460 S.3       23 UNK        -0.2404 
    126 C126       -4.5320  -16.5132  -49.4017 C.3       23 UNK        -0.0205 
    127 H127       -4.2931  -13.1989  -48.8383 H         1 UNK         0.0600 
    128 H128       -4.6745  -13.4956  -50.5370 H         1 UNK         0.0600 
    129 H129       -5.0669  -11.9407  -49.8037 H         1 UNK         0.0600 
    130 H130       -2.8466  -13.4607  -51.7911 H         1 UNK         0.3000 
    131 H131       -1.2284  -11.2312  -52.0947 H         1 UNK         0.0600 
    132 H132        0.2376  -12.9560  -53.5158 H         1 UNK         0.0800 
    133 H133       -1.3063  -12.3881  -54.0351 H         1 UNK         0.0800 
    134 H134        0.4845  -15.1061  -52.0986 H         1 UNK         0.0800 
    135 H135       -0.0104  -16.5305  -52.9482 H         1 UNK         0.0800 
    136 H136       -3.0987  -15.6075  -51.5892 H         1 UNK         0.1150 
    137 H137       -2.6372  -17.6532  -47.8620 H         1 UNK         0.1150 
    138 H138        0.7672  -17.0020  -50.3635 H         1 UNK         0.1150 
    139 H139        1.0395  -17.5749  -47.9828 H         1 UNK         0.0800 
    140 H140       -0.3358  -17.9095  -46.9745 H         1 UNK         0.0800 
    141 H141       -1.9688  -20.6141  -48.4523 H         1 UNK         0.0800 
    142 H142       -1.6817  -19.8606  -46.8997 H         1 UNK         0.0800 
    143 H143       -0.4459  -22.5223  -47.7281 H         1 UNK         0.0600 
    144 H144        0.0533  -20.9404  -45.4186 H         1 UNK         0.3000 
    145 H145        1.2375  -23.6806  -43.3835 H         1 UNK         0.0600 
    146 H146        3.1074  -22.0527  -43.1943 H         1 UNK         0.0600 
    147 H147        3.1338  -22.8642  -44.7533 H         1 UNK         0.0600 
    148 H148        2.5487  -21.2116  -44.6376 H         1 UNK         0.0600 
    149 H149        0.8708  -20.9388  -42.7469 H         1 UNK         0.3000 
    150 H150       -2.5169  -21.1907  -41.5835 H         1 UNK         0.0600 
    151 H151       -1.0996  -21.9319  -39.6892 H         1 UNK         0.0600 
    152 H152       -1.4320  -20.2111  -39.5741 H         1 UNK         0.0600 
    153 H153        0.1461  -20.7725  -40.1249 H         1 UNK         0.0600 
    154 H154       -0.6354  -19.0265  -41.7550 H         1 UNK         0.3000 
    155 H155       -1.6473  -17.8454  -44.9632 H         1 UNK         0.0600 
    156 H156       -2.0750  -16.7652  -42.1258 H         1 UNK         0.0600 
    157 H157       -3.3413  -16.9977  -43.3272 H         1 UNK         0.0600 
    158 H158       -2.0751  -15.8155  -43.6056 H         1 UNK         0.0600 
    159 H159        0.2213  -16.7713  -43.1391 H         1 UNK         0.3000 
    160 H160        3.0783  -18.7482  -44.0885 H         1 UNK         0.0600 
    161 H161        2.2789  -15.8124  -44.4337 H         1 UNK         0.0600 
    162 H162        2.8729  -16.8726  -45.7009 H         1 UNK         0.0600 
    163 H163        3.9318  -16.4230  -44.3712 H         1 UNK         0.0600 
    164 H164        2.8110  -16.7229  -42.1158 H         1 UNK         0.3000 
    165 H165        1.7979  -18.7729  -39.3974 H         1 UNK         0.0600 
    166 H166        4.6001  -17.6889  -39.9838 H         1 UNK         0.0600 
    167 H167        3.9342  -17.9886  -38.3783 H         1 UNK         0.0600 
    168 H168        4.1858  -19.3221  -39.4940 H         1 UNK         0.0600 
    169 H169        1.0214  -16.7377  -39.2555 H         1 UNK         0.3000 
    170 H170        0.5214  -14.6730  -39.6047 H         1 UNK         0.0600 
    171 H171        3.0835  -13.1094  -38.9634 H         1 UNK         0.0600 
    172 H172        1.4431  -12.6412  -38.5133 H         1 UNK         0.0600 
    173 H173        2.1702  -14.0792  -37.8140 H         1 UNK         0.0600 
    174 H174        1.7878  -12.5808  -41.0173 H         1 UNK         0.3000 
    175 H175        0.5703  -12.0225  -43.1532 H         1 UNK         0.0600 
    176 H176        3.0459  -12.1864  -42.9339 H         1 UNK         0.0600 
    177 H177        2.6156  -11.9740  -44.6206 H         1 UNK         0.0600 
    178 H178        3.0845  -13.5643  -44.0247 H         1 UNK         0.0600 
    179 H179        1.0111  -14.0061  -45.2812 H         1 UNK         0.3000 
    180 H180       -1.0992  -15.2862  -46.0080 H         1 UNK         0.0600 
    181 H181       -3.1415  -14.7289  -47.2751 H         1 UNK         0.0600 
    182 H182       -3.1756  -13.1114  -46.5721 H         1 UNK         0.0600 
    183 H183       -3.4156  -14.5291  -45.5543 H         1 UNK         0.0600 
    184 H184       -1.1128  -13.0532  -47.9040 H         1 UNK         0.3000 
    185 H185        1.5172  -12.4815  -48.6861 H         1 UNK         0.0600 
    186 H186        2.7692  -13.7349  -50.4578 H         1 UNK         0.0600 
    187 H187        3.1803  -14.3083  -48.8528 H         1 UNK         0.0600 
    188 H188        2.0988  -15.2509  -49.8655 H         1 UNK         0.0600 
    189 H189       -0.6710  -13.9410  -49.9268 H         1 UNK         0.3000 
    190 H190       -2.5728  -21.7546  -44.9349 H         1 UNK         0.3000 
    191 H191       -4.8797  -23.0846  -45.9160 H         1 UNK         0.0600 
    192 H192       -5.6015  -23.0642  -43.5335 H         1 UNK         0.0600 
    193 H193       -4.9439  -21.5065  -44.0105 H         1 UNK         0.0600 
    194 H194       -3.9814  -22.6067  -43.0272 H         1 UNK         0.0600 
    195 H195       -2.1679  -24.3082  -43.8820 H         1 UNK         0.3000 
    196 H196       -3.0807  -26.9772  -43.6203 H         1 UNK         0.0600 
    197 H197       -0.2298  -25.8529  -43.5754 H         1 UNK         0.0600 
    198 H198       -1.3120  -25.9932  -42.1919 H         1 UNK         0.0600 
    199 H199       -0.7078  -27.4401  -42.9851 H         1 UNK         0.0600 
    200 H200       -1.1785  -25.4120  -46.1843 H         1 UNK         0.3000 
    201 H201       -0.7499  -27.8141  -47.7484 H         1 UNK         0.0600 
    202 H202        0.1433  -26.2032  -49.4121 H         1 UNK         0.0600 
    203 H203       -0.5121  -24.8513  -48.4986 H         1 UNK         0.0600 
    204 H204        0.7813  -25.8356  -47.8195 H         1 UNK         0.0600 
    205 H205       -3.6191  -26.2357  -47.1261 H         1 UNK         0.3000 
    206 H206       -5.6236  -26.0634  -48.0251 H         1 UNK         0.0600 
    207 H207       -5.3981  -28.5444  -48.2854 H         1 UNK         0.0600 
    208 H208       -6.4391  -27.8477  -49.5158 H         1 UNK         0.0600 
    209 H209       -4.7966  -28.3201  -49.9276 H         1 UNK         0.0600 
    210 H210       -3.7379  -24.2379  -48.8828 H         1 UNK         0.3000 
    211 H211       -3.4214  -22.5174  -50.1581 H         1 UNK         0.0600 
    212 H212       -5.1195  -21.6617  -51.6820 H         1 UNK         0.0600 
    213 H213       -5.9166  -22.3168  -50.2634 H         1 UNK         0.0600 
    214 H214       -5.9161  -23.2232  -51.7776 H         1 UNK         0.0600 
    215 H215       -2.6137  -25.4571  -51.1483 H         1 UNK         0.3000 
    216 H216       -2.0348  -25.1158  -53.9258 H         1 UNK         0.0600 
    217 H217       -0.6312  -26.8992  -51.8685 H         1 UNK         0.0600 
    218 H218       -0.5844  -27.0852  -53.6155 H         1 UNK         0.0600 
    219 H219       -2.0954  -27.3317  -52.7527 H         1 UNK         0.0600 
    220 H220       -0.4393  -23.9418  -51.0543 H         1 UNK         0.3000 
    221 H221        2.0797  -23.2191  -52.3713 H         1 UNK         0.0600 
    222 H222        2.0410  -23.9364  -49.9871 H         1 UNK         0.0600 
    223 H223        0.9707  -22.5948  -49.5846 H         1 UNK         0.0600 
    224 H224        2.6124  -22.2808  -50.1258 H         1 UNK         0.0600 
    225 H225       -1.0593  -21.8440  -52.2796 H         1 UNK         0.3000 
    226 H226       -0.1536  -19.0240  -52.3375 H         1 UNK         0.0600 
    227 H227       -2.1213  -19.6039  -50.9165 H         1 UNK         0.0600 
    228 H228       -2.5766  -18.5448  -52.2407 H         1 UNK         0.0600 
    229 H229       -2.9645  -20.2519  -52.3269 H         1 UNK         0.0600 
    230 H230       -1.1621  -17.6534  -54.0375 H         1 UNK         0.3000 
    231 H231       -1.1445  -18.9612  -56.7282 H         1 UNK         0.0600 
    232 H232       -0.4298  -16.0932  -55.9193 H         1 UNK         0.0600 
    233 H233       -0.4886  -16.7143  -57.5630 H         1 UNK         0.0600 
    234 H234        0.6908  -17.3502  -56.4280 H         1 UNK         0.0600 
    235 H235       -2.5746  -16.0661  -55.0759 H         1 UNK         0.3000 
    236 H236       -4.8273  -16.0206  -56.8793 H         1 UNK         0.0600 
    237 H237       -3.7873  -13.9570  -55.9106 H         1 UNK         0.0600 
    238 H238       -5.5048  -14.0585  -55.5553 H         1 UNK         0.0600 
    239 H239       -4.3330  -14.4375  -54.3029 H         1 UNK         0.0600 
    240 H240       -4.3111  -17.1518  -53.5456 H         1 UNK         0.3000 
    241 H241       -7.1295  -17.6178  -53.0208 H         1 UNK         0.0600 
    242 H242       -7.5150  -21.1435  -53.4426 H         1 UNK         0.3800 
    243 H243       -8.1363  -19.7542  -52.5999 H         1 UNK         0.3800 
    244 H244       -4.6955  -18.4864  -51.3855 H         1 UNK         0.0800 
    245 H245       -6.3552  -18.6076  -50.8720 H         1 UNK         0.0800 
    246 H246       -4.8629  -17.3801  -48.8275 H         1 UNK         0.0800 
    247 H247       -4.6810  -15.6483  -48.7569 H         1 UNK         0.0800 
@<TRIPOS>BOND
     1    1    2 1    
     2    1  127 1    
     3    1  128 1    
     4    1  129 1    
     5    2    3 2    
     6    2    4 am   BACKBONE|DICT|INTERRES
     7    4    5 1    
     8    4  130 1    
     9    5    6 1    
    10    5   65 1    
    11    5  131 1    
    12    6    7 1    
    13    6  132 1    
    14    6  133 1    
    15    7    8 1    
    16    8    9 1    
    17    8  134 1    
    18    8  135 1    
    19    9   10 ar   
    20    9   14 ar   
    21   10   11 ar   
    22   10  136 1    
    23   11   12 ar   
    24   11  126 1    
    25   12   13 ar   
    26   12  137 1    
    27   13   14 ar   
    28   13   15 1    
    29   14  138 1    
    30   15   16 1    
    31   15  139 1    
    32   15  140 1    
    33   16   17 1    
    34   17   18 1    
    35   17  141 1    
    36   17  142 1    
    37   18   19 1    
    38   18   67 1    
    39   18  143 1    
    40   19   20 am   BACKBONE|DICT|INTERRES
    41   19  144 1    
    42   20   21 2    
    43   20   22 1    
    44   22   23 1    
    45   22   24 1    
    46   22  145 1    
    47   23  146 1    
    48   23  147 1    
    49   23  148 1    
    50   24   25 am   BACKBONE|DICT|INTERRES
    51   24  149 1    
    52   25   26 2    
    53   25   27 1    
    54   27   28 1    
    55   27   29 1    
    56   27  150 1    
    57   28  151 1    
    58   28  152 1    
    59   28  153 1    
    60   29   30 am   BACKBONE|DICT|INTERRES
    61   29  154 1    
    62   30   31 2    
    63   30   32 1    
    64   32   33 1    
    65   32   34 1    
    66   32  155 1    
    67   33  156 1    
    68   33  157 1    
    69   33  158 1    
    70   34   35 am   BACKBONE|DICT|INTERRES
    71   34  159 1    
    72   35   36 2    
    73   35   37 1    
    74   37   38 1    
    75   37   39 1    
    76   37  160 1    
    77   38  161 1    
    78   38  162 1    
    79   38  163 1    
    80   39   40 am   BACKBONE|DICT|INTERRES
    81   39  164 1    
    82   40   41 2    
    83   40   42 1    
    84   42   43 1    
    85   42   44 1    
    86   42  165 1    
    87   43  166 1    
    88   43  167 1    
    89   43  168 1    
    90   44   45 am   BACKBONE|DICT|INTERRES
    91   44  169 1    
    92   45   46 2    
    93   45   47 1    
    94   47   48 1    
    95   47   49 1    
    96   47  170 1    
    97   48  171 1    
    98   48  172 1    
    99   48  173 1    
   100   49   50 am   BACKBONE|DICT|INTERRES
   101   49  174 1    
   102   50   51 2    
   103   50   52 1    
   104   52   53 1    
   105   52   54 1    
   106   52  175 1    
   107   53  176 1    
   108   53  177 1    
   109   53  178 1    
   110   54   55 am   BACKBONE|DICT|INTERRES
   111   54  179 1    
   112   55   56 2    
   113   55   57 1    
   114   57   58 1    
   115   57   59 1    
   116   57  180 1    
   117   58  181 1    
   118   58  182 1    
   119   58  183 1    
   120   59   60 am   BACKBONE|DICT|INTERRES
   121   59  184 1    
   122   60   61 2    
   123   60   62 1    
   124   62   63 1    
   125   62   64 1    
   126   62  185 1    
   127   63  186 1    
   128   63  187 1    
   129   63  188 1    
   130   64   65 am   BACKBONE|DICT|INTERRES
   131   64  189 1    
   132   65   66 2    
   133   67   68 2    
   134   67   69 am   BACKBONE|DICT|INTERRES
   135   69   70 1    
   136   69  190 1    
   137   70   71 1    
   138   70   72 1    
   139   70  191 1    
   140   71  192 1    
   141   71  193 1    
   142   71  194 1    
   143   72   73 2    
   144   72   74 am   BACKBONE|DICT|INTERRES
   145   74   75 1    
   146   74  195 1    
   147   75   76 1    
   148   75   77 1    
   149   75  196 1    
   150   76  197 1    
   151   76  198 1    
   152   76  199 1    
   153   77   78 2    
   154   77   79 am   BACKBONE|DICT|INTERRES
   155   79   80 1    
   156   79  200 1    
   157   80   81 1    
   158   80   82 1    
   159   80  201 1    
   160   81  202 1    
   161   81  203 1    
   162   81  204 1    
   163   82   83 2    
   164   82   84 am   BACKBONE|DICT|INTERRES
   165   84   85 1    
   166   84  205 1    
   167   85   86 1    
   168   85   87 1    
   169   85  206 1    
   170   86  207 1    
   171   86  208 1    
   172   86  209 1    
   173   87   88 2    
   174   87   89 am   BACKBONE|DICT|INTERRES
   175   89   90 1    
   176   89  210 1    
   177   90   91 1    
   178   90   92 1    
   179   90  211 1    
   180   91  212 1    
   181   91  213 1    
   182   91  214 1    
   183   92   93 2    
   184   92   94 am   BACKBONE|DICT|INTERRES
   185   94   95 1    
   186   94  215 1    
   187   95   96 1    
   188   95   97 1    
   189   95  216 1    
   190   96  217 1    
   191   96  218 1    
   192   96  219 1    
   193   97   98 2    
   194   97   99 am   BACKBONE|DICT|INTERRES
   195   99  100 1    
   196   99  220 1    
   197  100  101 1    
   198  100  102 1    
   199  100  221 1    
   200  101  222 1    
   201  101  223 1    
   202  101  224 1    
   203  102  103 2    
   204  102  104 am   BACKBONE|DICT|INTERRES
   205  104  105 1    
   206  104  225 1    
   207  105  106 1    
   208  105  107 1    
   209  105  226 1    
   210  106  227 1    
   211  106  228 1    
   212  106  229 1    
   213  107  108 2    
   214  107  109 am   BACKBONE|DICT|INTERRES
   215  109  110 1    
   216  109  230 1    
   217  110  111 1    
   218  110  112 1    
   219  110  231 1    
   220  111  232 1    
   221  111  233 1    
   222  111  234 1    
   223  112  113 2    
   224  112  114 am   BACKBONE|DICT|INTERRES
   225  114  115 1    
   226  114  235 1    
   227  115  116 1    
   228  115  117 1    
   229  115  236 1    
   230  116  237 1    
   231  116  238 1    
   232  116  239 1    
   233  117  118 2    
   234  117  119 am   BACKBONE|DICT|INTERRES
   235  119  120 1    
   236  119  240 1    
   237  120  121 1    
   238  120  124 1    
   239  120  241 1    
   240  121  122 am   BACKBONE|DICT|INTERRES
   241  121  123 2    
   242  122  242 1    
   243  122  243 1    
   244  124  125 1    
   245  124  244 1    
   246  124  245 1    
   247  125  126 1    
   248  126  246 1    
   249  126  247 1    
@<TRIPOS>SUBSTRUCTURE
     1 UNK         1 GROUP             0       ****    0 ROOT    
