@<TRIPOS>MOLECULE
3R540
247   249    1
SMALL
USER_CHARGES


@<TRIPOS>ATOM
      1 CA          4.3380  -16.0598  -48.0564 C.3       0 UNK        -0.1800 
      2 C           3.6236  -14.9874  -47.2484 C.2       0 UNK         0.5000 
      3 O           3.8717  -14.8544  -46.0518 O.2       0 UNK        -0.5000 
      4 N           2.7469  -14.2096  -47.8967 N.am      1 UNK        -0.5000 
      5 CA          1.8678  -13.2062  -47.2748 C.3       1 UNK         0.1400 
      6 C6          0.8299  -12.6363  -48.2785 C.3       23 UNK        -0.0398 
      7 S7         -0.0487  -13.8883  -49.2862 S.3       23 UNK        -0.2404 
      8 C8         -0.6734  -15.0261  -48.0127 C.3       23 UNK        -0.0205 
      9 C9         -1.3881  -16.2268  -48.6104 C.ar      23 UNK        -0.0193 
     10 C10        -2.7708  -16.3689  -48.4720 C.ar      23 UNK        -0.1150 
     11 C11        -3.4237  -17.5097  -48.9494 C.ar      23 UNK        -0.0193 
     12 C12        -2.6681  -18.5208  -49.5548 C.ar      23 UNK        -0.1150 
     13 C13        -1.2866  -18.3855  -49.7198 C.ar      23 UNK        -0.0193 
     14 C14        -0.6554  -17.2266  -49.2549 C.ar      23 UNK        -0.1150 
     15 C15        -0.5032  -19.5019  -50.4066 C.3       23 UNK        -0.0205 
     16 S16         1.1301  -19.8740  -49.6734 S.3       23 UNK        -0.2404 
     17 C17         0.7662  -20.0159  -47.8897 C.3       23 UNK        -0.0398 
     18 CA          0.4871  -21.4542  -47.4010 C.3       11 UNK         0.1400 
     19 N           0.6175  -21.5409  -45.9454 N.am      11 UNK        -0.5000 
     20 C           0.5566  -22.6622  -45.2166 C.2       10 UNK         0.5000 
     21 O           0.4163  -23.7845  -45.6986 O.2       10 UNK        -0.5000 
     22 CA          0.6006  -22.4918  -43.6873 C.3       10 UNK         0.1400 
     23 CB          2.0349  -22.2452  -43.1966 C.3       10 UNK        -0.1800 
     24 N          -0.2741  -21.4109  -43.2301 N.am      10 UNK        -0.5000 
     25 C          -1.6100  -21.4283  -43.3471 C.2       9 UNK         0.5000 
     26 O          -2.2433  -22.3848  -43.7956 O.2       9 UNK        -0.5000 
     27 CA         -2.3604  -20.1495  -42.9324 C.3       9 UNK         0.1400 
     28 CB         -2.5582  -20.1054  -41.4101 C.3       9 UNK        -0.1800 
     29 N          -1.6887  -18.9266  -43.3759 N.am      9 UNK        -0.5000 
     30 C          -1.4989  -18.5846  -44.6584 C.2       8 UNK         0.5000 
     31 O          -1.9031  -19.2510  -45.6081 O.2       8 UNK        -0.5000 
     32 CA         -0.6679  -17.3184  -44.9309 C.3       8 UNK         0.1400 
     33 CB         -1.5237  -16.0565  -44.7557 C.3       8 UNK        -0.1800 
     34 N           0.5235  -17.2354  -44.0852 N.am      8 UNK        -0.5000 
     35 C           1.5159  -18.1372  -44.0874 C.2       7 UNK         0.5000 
     36 O           1.5524  -19.1094  -44.8391 O.2       7 UNK        -0.5000 
     37 CA          2.6281  -17.9605  -43.0441 C.3       7 UNK         0.1400 
     38 CB          3.6988  -16.9893  -43.5428 C.3       7 UNK        -0.1800 
     39 N           2.1054  -17.4918  -41.7649 N.am      7 UNK        -0.5000 
     40 C           1.4102  -18.2584  -40.9154 C.2       6 UNK         0.5000 
     41 O           1.1705  -19.4517  -41.1059 O.2       6 UNK        -0.5000 
     42 CA          0.8532  -17.5517  -39.6669 C.3       6 UNK         0.1400 
     43 CB          1.9450  -17.3871  -38.5990 C.3       6 UNK        -0.1800 
     44 N           0.2751  -16.2427  -39.9790 N.am      6 UNK        -0.5000 
     45 C          -0.8115  -16.0671  -40.7427 C.2       5 UNK         0.5000 
     46 O          -1.4441  -16.9913  -41.2517 O.2       5 UNK        -0.5000 
     47 CA         -1.2609  -14.6199  -41.0040 C.3       5 UNK         0.1400 
     48 CB         -2.2083  -14.1475  -39.8910 C.3       5 UNK        -0.1800 
     49 N          -0.1740  -13.6494  -41.1518 N.am      5 UNK        -0.5000 
     50 C           0.8182  -13.6919  -42.0528 C.2       4 UNK         0.5000 
     51 O           1.0193  -14.6479  -42.8054 O.2       4 UNK        -0.5000 
     52 CA          1.6745  -12.4121  -42.1633 C.3       4 UNK         0.1400 
     53 CB          1.8759  -11.6880  -40.8118 C.3       4 UNK        -0.1800 
     54 N           2.9588  -12.6012  -42.8414 N.am      4 UNK        -0.5000 
     55 C           4.0260  -13.2906  -42.4107 C.2       3 UNK         0.5000 
     56 O           4.0259  -13.9806  -41.3896 O.2       3 UNK        -0.5000 
     57 CA          5.3292  -13.1369  -43.2297 C.3       3 UNK         0.1400 
     58 CB          6.1199  -14.4483  -43.3718 C.3       3 UNK        -0.1800 
     59 N           5.0910  -12.5793  -44.5628 N.am      3 UNK        -0.5000 
     60 C           5.2114  -11.2857  -44.8958 C.2       2 UNK         0.5000 
     61 O           5.5988  -10.4151  -44.1160 O.2       2 UNK        -0.5000 
     62 CA          4.8096  -10.8822  -46.3311 C.3       2 UNK         0.1400 
     63 CB          6.0564  -10.7412  -47.2175 C.3       2 UNK        -0.1800 
     64 N           3.8799  -11.8173  -46.9689 N.am      2 UNK        -0.5000 
     65 C           2.6261  -12.0637  -46.5626 C.2       1 UNK         0.5000 
     66 O           2.0848  -11.4629  -45.6334 O.2       1 UNK        -0.5000 
     67 C          -0.8844  -21.9662  -47.8876 C.2       11 UNK         0.5000 
     68 O          -0.9370  -22.7397  -48.8441 O.2       11 UNK        -0.5000 
     69 N          -1.9659  -21.5653  -47.2055 N.am      12 UNK        -0.5000 
     70 CA         -3.3345  -22.0093  -47.4693 C.3       12 UNK         0.1400 
     71 CB         -4.3066  -21.2567  -46.5496 C.3       12 UNK        -0.1800 
     72 C          -3.5149  -23.5314  -47.3223 C.2       12 UNK         0.5000 
     73 O          -4.2170  -24.1384  -48.1295 O.2       12 UNK        -0.5000 
     74 N          -2.8550  -24.1213  -46.3177 N.am      13 UNK        -0.5000 
     75 CA         -2.8352  -25.5632  -46.0902 C.3       13 UNK         0.1400 
     76 CB         -2.3721  -25.8446  -44.6520 C.3       13 UNK        -0.1800 
     77 C          -1.9548  -26.3119  -47.1091 C.2       13 UNK         0.5000 
     78 O          -2.3896  -27.3278  -47.6532 O.2       13 UNK        -0.5000 
     79 N          -0.7270  -25.8208  -47.3234 N.am      14 UNK        -0.5000 
     80 CA          0.3015  -26.4992  -48.1111 C.3       14 UNK         0.1400 
     81 CB          1.6869  -25.9875  -47.6851 C.3       14 UNK        -0.1800 
     82 C           0.1239  -26.3497  -49.6310 C.2       14 UNK         0.5000 
     83 O           0.2451  -27.3428  -50.3500 O.2       14 UNK        -0.5000 
     84 N          -0.1130  -25.1171  -50.0950 N.am      15 UNK        -0.5000 
     85 CA         -0.1193  -24.7529  -51.5128 C.3       15 UNK         0.1400 
     86 CB          0.8445  -23.5734  -51.7266 C.3       15 UNK        -0.1800 
     87 C          -1.5212  -24.3831  -52.0179 C.2       15 UNK         0.5000 
     88 O          -1.8222  -24.6525  -53.1797 O.2       15 UNK        -0.5000 
     89 N          -2.3339  -23.7540  -51.1543 N.am      16 UNK        -0.5000 
     90 CA         -3.6931  -23.2484  -51.4075 C.3       16 UNK         0.1400 
     91 CB         -4.6441  -24.3824  -51.8445 C.3       16 UNK        -0.1800 
     92 C          -3.7598  -22.0341  -52.3602 C.2       16 UNK         0.5000 
     93 O          -4.8610  -21.6307  -52.7373 O.2       16 UNK        -0.5000 
     94 N          -2.5956  -21.4578  -52.6956 N.am      17 UNK        -0.5000 
     95 CA         -2.3480  -20.4258  -53.7108 C.3       17 UNK         0.1400 
     96 CB         -3.2225  -19.1737  -53.4864 C.3       17 UNK        -0.1800 
     97 C          -2.4835  -20.9736  -55.1469 C.2       17 UNK         0.5000 
     98 O          -3.0143  -22.0653  -55.3583 O.2       17 UNK        -0.5000 
     99 N          -1.9896  -20.2030  -56.1258 N.am      18 UNK        -0.5000 
    100 CA        -1.9139  -20.5889  -57.5421 C.3       18 UNK         0.1400 
    101 CB        -1.1691  -19.4936  -58.3205 C.3       18 UNK        -0.1800 
    102 C         -3.2773  -20.8840  -58.2007 C.2       18 UNK         0.5000 
    103 O         -3.3475  -21.7097  -59.1117 O.2       18 UNK        -0.5000 
    104 N         -4.3324  -20.2193  -57.7144 N.am      19 UNK        -0.5000 
    105 CA        -5.7169  -20.4150  -58.1459 C.3       19 UNK         0.1400 
    106 CB        -6.4649  -19.0821  -57.9716 C.3       19 UNK        -0.1800 
    107 C         -6.4417  -21.5397  -57.3759 C.2       19 UNK         0.5000 
    108 O         -7.5853  -21.8452  -57.7147 O.2       19 UNK        -0.5000 
    109 N         -5.8036  -22.0929  -56.3297 N.am      20 UNK        -0.5000 
    110 CA        -6.3467  -23.0369  -55.3394 C.3       20 UNK         0.1400 
    111 CB        -6.7562  -24.3690  -56.0001 C.3       20 UNK        -0.1800 
    112 C         -7.4751  -22.4379  -54.4651 C.2       20 UNK         0.5000 
    113 O         -8.1983  -23.1788  -53.7962 O.2       20 UNK        -0.5000 
    114 N         -7.6037  -21.1037  -54.4800 N.am      21 UNK        -0.5000 
    115 CA        -8.6767  -20.3337  -53.8531 C.3       21 UNK         0.1400 
    116 CB        -8.6051  -18.8870  -54.3661 C.3       21 UNK        -0.1800 
    117 C         -8.6605  -20.3602  -52.3149 C.2       21 UNK         0.5000 
    118 O         -9.7152  -20.1812  -51.7038 O.2       21 UNK        -0.5000 
    119 N         -7.4835  -20.5829  -51.7190 N.am      22 UNK        -0.5000 
    120 CA        -7.2983  -20.6866  -50.2633 C.3       22 UNK         0.1400 
    121 C         -7.5065  -22.1284  -49.7119 C.2       22 UNK         0.5000 
    122 N         -7.8454  -23.1193  -50.5292 N.am      22 UNK        -0.7600 
    123 O         -7.3828  -22.3486  -48.5110 O.2       22 UNK        -0.5000 
    124 C124       -5.9437  -20.0830  -49.8134 C.3       23 UNK        -0.0398 
    125 S125       -5.7989  -18.3099  -50.2333 S.3       23 UNK        -0.2404 
    126 C126       -4.9357  -17.6336  -48.7719 C.3       23 UNK        -0.0205 
    127 H127        5.4157  -15.9010  -48.0204 H         1 UNK         0.0600 
    128 H128        4.0259  -16.0559  -49.1010 H         1 UNK         0.0600 
    129 H129        4.1226  -17.0442  -47.6407 H         1 UNK         0.0600 
    130 H130        2.5910  -14.3600  -48.8836 H         1 UNK         0.3000 
    131 H131        1.3224  -13.7184  -46.4801 H         1 UNK         0.0600 
    132 H132        0.0814  -12.0447  -47.7482 H         1 UNK         0.0800 
    133 H133        1.3169  -11.9507  -48.9745 H         1 UNK         0.0800 
    134 H134       -1.3325  -14.4772  -47.3388 H         1 UNK         0.0800 
    135 H135        0.1532  -15.4003  -47.4096 H         1 UNK         0.0800 
    136 H136       -3.3390  -15.5941  -47.9768 H         1 UNK         0.1150 
    137 H137       -3.1562  -19.4147  -49.9111 H         1 UNK         0.1150 
    138 H138        0.4130  -17.1107  -49.3694 H         1 UNK         0.1150 
    139 H139       -1.0886  -20.4215  -50.4167 H         1 UNK         0.0800 
    140 H140       -0.3554  -19.2231  -51.4500 H         1 UNK         0.0800 
    141 H141       -0.0361  -19.3421  -47.5914 H         1 UNK         0.0800 
    142 H142        1.6567  -19.6360  -47.3882 H         1 UNK         0.0800 
    143 H143        1.2495  -22.1123  -47.8233 H         1 UNK         0.0600 
    144 H144        0.7776  -20.6603  -45.4605 H         1 UNK         0.3000 
    145 H145        0.2458  -23.4224  -43.2392 H         1 UNK         0.0600 
    146 H146        2.0719  -22.1728  -42.1094 H         1 UNK         0.0600 
    147 H147        2.6927  -23.0635  -43.4916 H         1 UNK         0.0600 
    148 H148        2.4525  -21.3256  -43.6058 H         1 UNK         0.0600 
    149 H149        0.1722  -20.5958  -42.8285 H         1 UNK         0.3000 
    150 H150       -3.3457  -20.1768  -43.4021 H         1 UNK         0.0600 
    151 H151       -3.0589  -21.0065  -41.0537 H         1 UNK         0.0600 
    152 H152       -3.1738  -19.2543  -41.1184 H         1 UNK         0.0600 
    153 H153       -1.6070  -20.0252  -40.8825 H         1 UNK         0.0600 
    154 H154       -1.3721  -18.2933  -42.6463 H         1 UNK         0.3000 
    155 H155       -0.3293  -17.3607  -45.9676 H         1 UNK         0.0600 
    156 H156       -1.9638  -16.0060  -43.7614 H         1 UNK         0.0600 
    157 H157       -2.3454  -16.0447  -45.4723 H         1 UNK         0.0600 
    158 H158       -0.9368  -15.1511  -44.9109 H         1 UNK         0.0600 
    159 H159        0.6011  -16.4283  -43.4728 H         1 UNK         0.3000 
    160 H160        3.1011  -18.9329  -42.8911 H         1 UNK         0.0600 
    161 H161        3.2933  -15.9867  -43.6805 H         1 UNK         0.0600 
    162 H162        4.1099  -17.3130  -44.4999 H         1 UNK         0.0600 
    163 H163        4.5248  -16.9253  -42.8348 H         1 UNK         0.0600 
    164 H164        2.2094  -16.5064  -41.5652 H         1 UNK         0.3000 
    165 H165        0.0627  -18.1819  -39.2534 H         1 UNK         0.0600 
    166 H166        1.5378  -16.9616  -37.6817 H         1 UNK         0.0600 
    167 H167        2.3865  -18.3507  -38.3412 H         1 UNK         0.0600 
    168 H168        2.7512  -16.7372  -38.9418 H         1 UNK         0.0600 
    169 H169        0.7445  -15.4289  -39.6098 H         1 UNK         0.3000 
    170 H170       -1.8207  -14.6156  -41.9399 H         1 UNK         0.0600 
    171 H171       -3.0448  -14.8374  -39.7703 H         1 UNK         0.0600 
    172 H172       -1.6978  -14.0792  -38.9295 H         1 UNK         0.0600 
    173 H173       -2.6291  -13.1679  -40.1189 H         1 UNK         0.0600 
    174 H174       -0.2471  -12.8235  -40.5759 H         1 UNK         0.3000 
    175 H175        1.1095  -11.7395  -42.8101 H         1 UNK         0.0600 
    176 H176        2.3107  -12.3465  -40.0588 H         1 UNK         0.0600 
    177 H177        2.5378  -10.8288  -40.9224 H         1 UNK         0.0600 
    178 H178        0.9344  -11.3075  -40.4148 H         1 UNK         0.0600 
    179 H179        3.0393  -12.1237  -43.7300 H         1 UNK         0.3000 
    180 H180        5.9555  -12.4535  -42.6532 H         1 UNK         0.0600 
    181 H181        5.6336  -15.1405  -44.0563 H         1 UNK         0.0600 
    182 H182        6.2431  -14.9532  -42.4131 H         1 UNK         0.0600 
    183 H183        7.1188  -14.2549  -43.7627 H         1 UNK         0.0600 
    184 H184        4.7275  -13.2356  -45.2482 H         1 UNK         0.3000 
    185 H185        4.3185   -9.9087  -46.2717 H         1 UNK         0.0600 
    186 H186        6.7618  -10.0274  -46.7898 H         1 UNK         0.0600 
    187 H187        6.5790  -11.6920  -47.3300 H         1 UNK         0.0600 
    188 H188        5.7952  -10.3806  -48.2126 H         1 UNK         0.0600 
    189 H189        4.2474  -12.3714  -47.7289 H         1 UNK         0.3000 
    190 H190       -1.8546  -20.8685  -46.4714 H         1 UNK         0.3000 
    191 H191       -3.5695  -21.7402  -48.4993 H         1 UNK         0.0600 
    192 H192       -4.0965  -21.4484  -45.4979 H         1 UNK         0.0600 
    193 H193       -5.3372  -21.5605  -46.7358 H         1 UNK         0.0600 
    194 H194       -4.2474  -20.1806  -46.7100 H         1 UNK         0.0600 
    195 H195       -2.3243  -23.5452  -45.6748 H         1 UNK         0.3000 
    196 H196       -3.8552  -25.9407  -46.1906 H         1 UNK         0.0600 
    197 H197       -2.3646  -26.9156  -44.4463 H         1 UNK         0.0600 
    198 H198       -3.0387  -25.3779  -43.9265 H         1 UNK         0.0600 
    199 H199       -1.3657  -25.4672  -44.4682 H         1 UNK         0.0600 
    200 H200       -0.4294  -24.9959  -46.8066 H         1 UNK         0.3000 
    201 H201        0.2615  -27.5658  -47.8786 H         1 UNK         0.0600 
    202 H202        1.8626  -26.1646  -46.6238 H         1 UNK         0.0600 
    203 H203        1.7954  -24.9175  -47.8669 H         1 UNK         0.0600 
    204 H204        2.4792  -26.4967  -48.2353 H         1 UNK         0.0600 
    205 H205       -0.2593  -24.3566  -49.4365 H         1 UNK         0.3000 
    206 H206        0.2364  -25.5851  -52.1240 H         1 UNK         0.0600 
    207 H207        1.8601  -23.8392  -51.4331 H         1 UNK         0.0600 
    208 H208        0.8771  -23.2790  -52.7764 H         1 UNK         0.0600 
    209 H209        0.5505  -22.6970  -51.1482 H         1 UNK         0.0600 
    210 H210       -1.9570  -23.5407  -50.2347 H         1 UNK         0.3000 
    211 H211       -4.0593  -22.8808  -50.4511 H         1 UNK         0.0600 
    212 H212       -4.3852  -24.7825  -52.8244 H         1 UNK         0.0600 
    213 H213       -5.6723  -24.0291  -51.9098 H         1 UNK         0.0600 
    214 H214       -4.6301  -25.2035  -51.1278 H         1 UNK         0.0600 
    215 H215       -1.7664  -21.9063  -52.3374 H         1 UNK         0.3000 
    216 H216       -1.3051  -20.1332  -53.5826 H         1 UNK         0.0600 
    217 H217       -2.8754  -18.3397  -54.0966 H         1 UNK         0.0600 
    218 H218       -3.1877  -18.8468  -52.4476 H         1 UNK         0.0600 
    219 H219       -4.2669  -19.3475  -53.7464 H         1 UNK         0.0600 
    220 H220       -1.5741  -19.3144  -55.8854 H         1 UNK         0.3000 
    221 H221       -1.3245  -21.5064  -57.5997 H         1 UNK         0.0600 
    222 H222       -1.6924  -18.5379  -58.2703 H         1 UNK         0.0600 
    223 H223       -0.1616  -19.3470  -57.9307 H         1 UNK         0.0600 
    224 H224       -1.0718  -19.7595  -59.3741 H         1 UNK         0.0600 
    225 H225       -4.1758  -19.5538  -56.9717 H         1 UNK         0.3000 
    226 H226       -5.7360  -20.6793  -59.2053 H         1 UNK         0.0600 
    227 H227       -7.4990  -19.1629  -58.3094 H         1 UNK         0.0600 
    228 H228       -6.4845  -18.7631  -56.9288 H         1 UNK         0.0600 
    229 H229       -5.9972  -18.2894  -58.5558 H         1 UNK         0.0600 
    230 H230       -4.8424  -21.8187  -56.1524 H         1 UNK         0.3000 
    231 H231       -5.5235  -23.2607  -54.6615 H         1 UNK         0.0600 
    232 H232       -5.9501  -24.7672  -56.6163 H         1 UNK         0.0600 
    233 H233       -7.6392  -24.2583  -56.6296 H         1 UNK         0.0600 
    234 H234       -6.9881  -25.1219  -55.2459 H         1 UNK         0.0600 
    235 H235       -6.9337  -20.5810  -55.0219 H         1 UNK         0.3000 
    236 H236       -9.6266  -20.7645  -54.1761 H         1 UNK         0.0600 
    237 H237       -9.4067  -18.2811  -53.9417 H         1 UNK         0.0600 
    238 H238       -7.6593  -18.4130  -54.0998 H         1 UNK         0.0600 
    239 H239       -8.7093  -18.8467  -55.4506 H         1 UNK         0.0600 
    240 H240       -6.6624  -20.7670  -52.2870 H         1 UNK         0.3000 
    241 H241       -8.0739  -20.0920  -49.7768 H         1 UNK         0.0600 
    242 H242       -7.9725  -22.9586  -51.5192 H         1 UNK         0.3800 
    243 H243       -7.9883  -24.0414  -50.1497 H         1 UNK         0.3800 
    244 H244       -5.8294  -20.1964  -48.7362 H         1 UNK         0.0800 
    245 H245       -5.1138  -20.6206  -50.2657 H         1 UNK         0.0800 
    246 H246       -5.3616  -16.6478  -48.5795 H         1 UNK         0.0800 
    247 H247       -5.1477  -18.2259  -47.8821 H         1 UNK         0.0800 
@<TRIPOS>BOND
     1    1    2 1    
     2    1  127 1    
     3    1  128 1    
     4    1  129 1    
     5    2    3 2    
     6    2    4 am   BACKBONE|DICT|INTERRES
     7    4    5 1    
     8    4  130 1    
     9    5    6 1    
    10    5   65 1    
    11    5  131 1    
    12    6    7 1    
    13    6  132 1    
    14    6  133 1    
    15    7    8 1    
    16    8    9 1    
    17    8  134 1    
    18    8  135 1    
    19    9   10 ar   
    20    9   14 ar   
    21   10   11 ar   
    22   10  136 1    
    23   11   12 ar   
    24   11  126 1    
    25   12   13 ar   
    26   12  137 1    
    27   13   14 ar   
    28   13   15 1    
    29   14  138 1    
    30   15   16 1    
    31   15  139 1    
    32   15  140 1    
    33   16   17 1    
    34   17   18 1    
    35   17  141 1    
    36   17  142 1    
    37   18   19 1    
    38   18   67 1    
    39   18  143 1    
    40   19   20 am   BACKBONE|DICT|INTERRES
    41   19  144 1    
    42   20   21 2    
    43   20   22 1    
    44   22   23 1    
    45   22   24 1    
    46   22  145 1    
    47   23  146 1    
    48   23  147 1    
    49   23  148 1    
    50   24   25 am   BACKBONE|DICT|INTERRES
    51   24  149 1    
    52   25   26 2    
    53   25   27 1    
    54   27   28 1    
    55   27   29 1    
    56   27  150 1    
    57   28  151 1    
    58   28  152 1    
    59   28  153 1    
    60   29   30 am   BACKBONE|DICT|INTERRES
    61   29  154 1    
    62   30   31 2    
    63   30   32 1    
    64   32   33 1    
    65   32   34 1    
    66   32  155 1    
    67   33  156 1    
    68   33  157 1    
    69   33  158 1    
    70   34   35 am   BACKBONE|DICT|INTERRES
    71   34  159 1    
    72   35   36 2    
    73   35   37 1    
    74   37   38 1    
    75   37   39 1    
    76   37  160 1    
    77   38  161 1    
    78   38  162 1    
    79   38  163 1    
    80   39   40 am   BACKBONE|DICT|INTERRES
    81   39  164 1    
    82   40   41 2    
    83   40   42 1    
    84   42   43 1    
    85   42   44 1    
    86   42  165 1    
    87   43  166 1    
    88   43  167 1    
    89   43  168 1    
    90   44   45 am   BACKBONE|DICT|INTERRES
    91   44  169 1    
    92   45   46 2    
    93   45   47 1    
    94   47   48 1    
    95   47   49 1    
    96   47  170 1    
    97   48  171 1    
    98   48  172 1    
    99   48  173 1    
   100   49   50 am   BACKBONE|DICT|INTERRES
   101   49  174 1    
   102   50   51 2    
   103   50   52 1    
   104   52   53 1    
   105   52   54 1    
   106   52  175 1    
   107   53  176 1    
   108   53  177 1    
   109   53  178 1    
   110   54   55 am   BACKBONE|DICT|INTERRES
   111   54  179 1    
   112   55   56 2    
   113   55   57 1    
   114   57   58 1    
   115   57   59 1    
   116   57  180 1    
   117   58  181 1    
   118   58  182 1    
   119   58  183 1    
   120   59   60 am   BACKBONE|DICT|INTERRES
   121   59  184 1    
   122   60   61 2    
   123   60   62 1    
   124   62   63 1    
   125   62   64 1    
   126   62  185 1    
   127   63  186 1    
   128   63  187 1    
   129   63  188 1    
   130   64   65 am   BACKBONE|DICT|INTERRES
   131   64  189 1    
   132   65   66 2    
   133   67   68 2    
   134   67   69 am   BACKBONE|DICT|INTERRES
   135   69   70 1    
   136   69  190 1    
   137   70   71 1    
   138   70   72 1    
   139   70  191 1    
   140   71  192 1    
   141   71  193 1    
   142   71  194 1    
   143   72   73 2    
   144   72   74 am   BACKBONE|DICT|INTERRES
   145   74   75 1    
   146   74  195 1    
   147   75   76 1    
   148   75   77 1    
   149   75  196 1    
   150   76  197 1    
   151   76  198 1    
   152   76  199 1    
   153   77   78 2    
   154   77   79 am   BACKBONE|DICT|INTERRES
   155   79   80 1    
   156   79  200 1    
   157   80   81 1    
   158   80   82 1    
   159   80  201 1    
   160   81  202 1    
   161   81  203 1    
   162   81  204 1    
   163   82   83 2    
   164   82   84 am   BACKBONE|DICT|INTERRES
   165   84   85 1    
   166   84  205 1    
   167   85   86 1    
   168   85   87 1    
   169   85  206 1    
   170   86  207 1    
   171   86  208 1    
   172   86  209 1    
   173   87   88 2    
   174   87   89 am   BACKBONE|DICT|INTERRES
   175   89   90 1    
   176   89  210 1    
   177   90   91 1    
   178   90   92 1    
   179   90  211 1    
   180   91  212 1    
   181   91  213 1    
   182   91  214 1    
   183   92   93 2    
   184   92   94 am   BACKBONE|DICT|INTERRES
   185   94   95 1    
   186   94  215 1    
   187   95   96 1    
   188   95   97 1    
   189   95  216 1    
   190   96  217 1    
   191   96  218 1    
   192   96  219 1    
   193   97   98 2    
   194   97   99 am   BACKBONE|DICT|INTERRES
   195   99  100 1    
   196   99  220 1    
   197  100  101 1    
   198  100  102 1    
   199  100  221 1    
   200  101  222 1    
   201  101  223 1    
   202  101  224 1    
   203  102  103 2    
   204  102  104 am   BACKBONE|DICT|INTERRES
   205  104  105 1    
   206  104  225 1    
   207  105  106 1    
   208  105  107 1    
   209  105  226 1    
   210  106  227 1    
   211  106  228 1    
   212  106  229 1    
   213  107  108 2    
   214  107  109 am   BACKBONE|DICT|INTERRES
   215  109  110 1    
   216  109  230 1    
   217  110  111 1    
   218  110  112 1    
   219  110  231 1    
   220  111  232 1    
   221  111  233 1    
   222  111  234 1    
   223  112  113 2    
   224  112  114 am   BACKBONE|DICT|INTERRES
   225  114  115 1    
   226  114  235 1    
   227  115  116 1    
   228  115  117 1    
   229  115  236 1    
   230  116  237 1    
   231  116  238 1    
   232  116  239 1    
   233  117  118 2    
   234  117  119 am   BACKBONE|DICT|INTERRES
   235  119  120 1    
   236  119  240 1    
   237  120  121 1    
   238  120  124 1    
   239  120  241 1    
   240  121  122 am   BACKBONE|DICT|INTERRES
   241  121  123 2    
   242  122  242 1    
   243  122  243 1    
   244  124  125 1    
   245  124  244 1    
   246  124  245 1    
   247  125  126 1    
   248  126  246 1    
   249  126  247 1    
@<TRIPOS>SUBSTRUCTURE
     1 UNK         1 GROUP             0       ****    0 ROOT    
