@<TRIPOS>MOLECULE
3R540
247   249    1
SMALL
USER_CHARGES


@<TRIPOS>ATOM
      1 CA         -1.7399  -14.5854  -51.4299 C.3       0 UNK        -0.1800 
      2 C          -0.3838  -13.9404  -51.1863 C.2       0 UNK         0.5000 
      3 O          -0.3346  -12.7883  -50.7552 O.2       0 UNK        -0.5000 
      4 N           0.7156  -14.6685  -51.4405 N.am      1 UNK        -0.5000 
      5 CA          2.0849  -14.2019  -51.1678 C.3       1 UNK         0.1400 
      6 C6          3.1587  -14.9859  -51.9798 C.3       23 UNK        -0.0398 
      7 S7          3.8234  -16.5201  -51.2248 S.3       23 UNK        -0.2404 
      8 C8          3.1913  -17.8263  -52.3202 C.3       23 UNK        -0.0205 
      9 C9          1.6851  -17.9864  -52.2053 C.ar      23 UNK        -0.0193 
     10 C10         0.8599  -17.6487  -53.2780 C.ar      23 UNK        -0.1150 
     11 C11        -0.5278  -17.7810  -53.1794 C.ar      23 UNK        -0.0193 
     12 C12        -1.0873  -18.2860  -51.9991 C.ar      23 UNK        -0.1150 
     13 C13        -0.2688  -18.6385  -50.9191 C.ar      23 UNK        -0.0193 
     14 C14         1.1154  -18.4776  -51.0286 C.ar      23 UNK        -0.1150 
     15 C15        -0.8681  -19.1515  -49.6161 C.3       23 UNK        -0.0205 
     16 S16        -0.2706  -20.8215  -49.1881 S.3       23 UNK        -0.2404 
     17 C17        -0.3390  -20.7387  -47.3664 C.3       23 UNK        -0.0398 
     18 CA         -0.3037  -22.1266  -46.6775 C.3       11 UNK         0.1400 
     19 N           0.1239  -22.0294  -45.2783 N.am      11 UNK        -0.5000 
     20 C           0.3503  -23.0661  -44.4586 C.2       10 UNK         0.5000 
     21 O           0.2789  -24.2428  -44.8085 O.2       10 UNK        -0.5000 
     22 CA          0.6470  -22.7395  -42.9834 C.3       10 UNK         0.1400 
     23 CB          2.1169  -22.3409  -42.7876 C.3       10 UNK        -0.1800 
     24 N          -0.2328  -21.6957  -42.4543 N.am      10 UNK        -0.5000 
     25 C          -1.5624  -21.8255  -42.3316 C.2       9 UNK         0.5000 
     26 O          -2.1731  -22.8606  -42.5972 O.2       9 UNK        -0.5000 
     27 CA         -2.3496  -20.5791  -41.8882 C.3       9 UNK         0.1400 
     28 CB         -2.2781  -20.3987  -40.3648 C.3       9 UNK        -0.1800 
     29 N          -1.8911  -19.3592  -42.5531 N.am      9 UNK        -0.5000 
     30 C          -1.9563  -19.1421  -43.8748 C.2       8 UNK         0.5000 
     31 O          -2.4694  -19.9256  -44.6731 O.2       8 UNK        -0.5000 
     32 CA         -1.2742  -17.8684  -44.4030 C.3       8 UNK         0.1400 
     33 CB         -2.1753  -16.6391  -44.2229 C.3       8 UNK        -0.1800 
     34 N           0.0214  -17.6306  -43.7675 N.am      8 UNK        -0.5000 
     35 C           1.0806  -18.4447  -43.8780 C.2       7 UNK         0.5000 
     36 O           1.0862  -19.4651  -44.5632 O.2       7 UNK        -0.5000 
     37 CA          2.3301  -18.0765  -43.0625 C.3       7 UNK         0.1400 
     38 CB          3.1750  -17.0193  -43.7898 C.3       7 UNK        -0.1800 
     39 N           1.9802  -17.6027  -41.7249 N.am      7 UNK        -0.5000 
     40 C           1.4695  -18.3832  -40.7619 C.2       6 UNK         0.5000 
     41 O           1.2863  -19.5942  -40.8876 O.2       6 UNK        -0.5000 
     42 CA          1.0538  -17.6796  -39.4576 C.3       6 UNK         0.1400 
     43 CB          2.2649  -17.4912  -38.5321 C.3       6 UNK        -0.1800 
     44 N           0.4205  -16.3820  -39.7011 N.am      6 UNK        -0.5000 
     45 C          -0.7684  -16.2236  -40.2998 C.2       5 UNK         0.5000 
     46 O          -1.4703  -17.1591  -40.6824 O.2       5 UNK        -0.5000 
     47 CA         -1.2282  -14.7762  -40.5542 C.3       5 UNK         0.1400 
     48 CB         -1.9436  -14.2118  -39.3179 C.3       5 UNK        -0.1800 
     49 N          -0.1374  -13.8754  -40.9404 N.am      5 UNK        -0.5000 
     50 C           0.5999  -14.0092  -42.0504 C.2       4 UNK         0.5000 
     51 O           0.4816  -14.9472  -42.8410 O.2       4 UNK        -0.5000 
     52 CA          1.6879  -12.9504  -42.2895 C.3       4 UNK         0.1400 
     53 CB          3.0495  -13.4615  -41.7936 C.3       4 UNK        -0.1800 
     54 N           1.7882  -12.6212  -43.7104 N.am      4 UNK        -0.5000 
     55 C           0.9432  -11.8101  -44.3614 C.2       3 UNK         0.5000 
     56 O           0.0256  -11.1979  -43.8129 O.2       3 UNK        -0.5000 
     57 CA          1.1632  -11.6441  -45.8780 C.3       3 UNK         0.1400 
     58 CB          2.0944  -10.4551  -46.1603 C.3       3 UNK        -0.1800 
     59 N           1.7123  -12.8421  -46.5162 N.am      3 UNK        -0.5000 
     60 C           1.0151  -13.9612  -46.7459 C.2       2 UNK         0.5000 
     61 O          -0.1794  -14.0912  -46.4739 O.2       2 UNK        -0.5000 
     62 CA          1.7779  -15.1086  -47.4323 C.3       2 UNK         0.1400 
     63 CB          1.2251  -16.4851  -47.0365 C.3       2 UNK        -0.1800 
     64 N           1.6918  -14.9894  -48.8800 N.am      2 UNK        -0.5000 
     65 C           2.3829  -14.1392  -49.6500 C.2       1 UNK         0.5000 
     66 O           3.2171  -13.3425  -49.2165 O.2       1 UNK        -0.5000 
     67 C          -1.6529  -22.8620  -46.8051 C.2       11 UNK         0.5000 
     68 O          -1.7655  -23.7928  -47.6034 O.2       11 UNK        -0.5000 
     69 N          -2.6399  -22.4651  -45.9898 N.am      12 UNK        -0.5000 
     70 CA         -3.9622  -23.0880  -45.9153 C.3       12 UNK         0.1400 
     71 CB         -4.8585  -22.2836  -44.9628 C.3       12 UNK        -0.1800 
     72 C          -3.9145  -24.5715  -45.5061 C.2       12 UNK         0.5000 
     73 O          -4.6556  -25.3764  -46.0694 O.2       12 UNK        -0.5000 
     74 N          -3.0372  -24.9057  -44.5524 N.am      13 UNK        -0.5000 
     75 CA         -2.8363  -26.2636  -44.0574 C.3       13 UNK         0.1400 
     76 CB         -2.1165  -26.2098  -42.6999 C.3       13 UNK        -0.1800 
     77 C          -2.0718  -27.1592  -45.0491 C.2       13 UNK         0.5000 
     78 O          -2.5614  -28.2354  -45.3944 O.2       13 UNK        -0.5000 
     79 N          -0.8714  -26.7260  -45.4556 N.am      14 UNK        -0.5000 
     80 CA          0.0935  -27.5638  -46.1691 C.3       14 UNK         0.1400 
     81 CB          1.5172  -27.1224  -45.7949 C.3       14 UNK        -0.1800 
     82 C          -0.0794  -27.5426  -47.6950 C.2       14 UNK         0.5000 
     83 O           0.1383  -28.5729  -48.3341 O.2       14 UNK        -0.5000 
     84 N          -0.4389  -26.3815  -48.2560 N.am      15 UNK        -0.5000 
     85 CA         -0.5129  -26.1521  -49.7021 C.3       15 UNK         0.1400 
     86 CB          0.3128  -24.8986  -50.0469 C.3       15 UNK        -0.1800 
     87 C          -1.9600  -26.0063  -50.2026 C.2       15 UNK         0.5000 
     88 O          -2.1533  -25.7208  -51.3844 O.2       15 UNK        -0.5000 
     89 N          -2.9486  -26.1537  -49.3060 N.am      16 UNK        -0.5000 
     90 CA         -4.3843  -25.9357  -49.5358 C.3       16 UNK         0.1400 
     91 CB         -4.9541  -27.0082  -50.4876 C.3       16 UNK        -0.1800 
     92 C          -4.7018  -24.4933  -49.9943 C.2       16 UNK         0.5000 
     93 O          -5.6215  -24.2825  -50.7855 O.2       16 UNK        -0.5000 
     94 N          -3.8993  -23.5362  -49.5038 N.am      17 UNK        -0.5000 
     95 CA         -3.8596  -22.1132  -49.8551 C.3       17 UNK         0.1400 
     96 CB         -5.2035  -21.4148  -49.5623 C.3       17 UNK        -0.1800 
     97 C          -3.3384  -21.8402  -51.2822 C.2       17 UNK         0.5000 
     98 O          -3.5161  -20.7292  -51.7834 O.2       17 UNK        -0.5000 
     99 N          -2.6911  -22.8373  -51.9064 N.am      18 UNK        -0.5000 
    100 CA        -2.1304  -22.8251  -53.2581 C.3       18 UNK         0.1400 
    101 CB        -0.8997  -21.8929  -53.3251 C.3       18 UNK        -0.1800 
    102 C         -3.2190  -22.5227  -54.3080 C.2       18 UNK         0.5000 
    103 O         -4.0820  -23.3699  -54.5419 O.2       18 UNK        -0.5000 
    104 N         -3.1795  -21.3231  -54.9008 N.am      19 UNK        -0.5000 
    105 CA        -4.1783  -20.8237  -55.8480 C.3       19 UNK         0.1400 
    106 CB        -3.5257  -19.7349  -56.7148 C.3       19 UNK        -0.1800 
    107 C         -5.4550  -20.2817  -55.1680 C.2       19 UNK         0.5000 
    108 O         -6.3951  -19.9183  -55.8743 O.2       19 UNK        -0.5000 
    109 N         -5.4582  -20.1901  -53.8288 N.am      20 UNK        -0.5000 
    110 CA        -6.4848  -19.6434  -52.9287 C.3       20 UNK         0.1400 
    111 CB        -7.8654  -20.2898  -53.1500 C.3       20 UNK        -0.1800 
    112 C         -6.5620  -18.1049  -52.9315 C.2       20 UNK         0.5000 
    113 O         -6.8217  -17.5125  -51.8835 O.2       20 UNK        -0.5000 
    114 N         -6.2931  -17.4830  -54.0808 N.am      21 UNK        -0.5000 
    115 CA        -6.1043  -16.0524  -54.2650 C.3       21 UNK         0.1400 
    116 CB        -7.4520  -15.3779  -54.5694 C.3       21 UNK        -0.1800 
    117 C         -5.1109  -15.8673  -55.4178 C.2       21 UNK         0.5000 
    118 O         -5.1085  -16.6698  -56.3548 O.2       21 UNK        -0.5000 
    119 N         -4.2905  -14.8200  -55.3358 N.am      22 UNK        -0.5000 
    120 CA        -3.2690  -14.4681  -56.3275 C.3       22 UNK         0.1400 
    121 C         -2.8220  -12.9882  -56.1707 C.2       22 UNK         0.5000 
    122 N         -2.0854  -12.4490  -57.1328 N.am      22 UNK        -0.7600 
    123 O         -3.1387  -12.3180  -55.1889 O.2       22 UNK        -0.5000 
    124 C124       -2.0786  -15.4706  -56.3567 C.3       23 UNK        -0.0398 
    125 S125       -1.1745  -15.6126  -54.7749 S.3       23 UNK        -0.2404 
    126 C126       -1.4054  -17.3718  -54.3546 C.3       23 UNK        -0.0205 
    127 H127       -1.6486  -15.6401  -51.6767 H         1 UNK         0.0600 
    128 H128       -2.2518  -14.0847  -52.2518 H         1 UNK         0.0600 
    129 H129       -2.3613  -14.5023  -50.5384 H         1 UNK         0.0600 
    130 H130        0.6271  -15.6057  -51.8109 H         1 UNK         0.3000 
    131 H131        2.1330  -13.1701  -51.5236 H         1 UNK         0.0600 
    132 H132        2.7909  -15.1976  -52.9846 H         1 UNK         0.0800 
    133 H133        4.0183  -14.3310  -52.1302 H         1 UNK         0.0800 
    134 H134        3.6679  -18.7703  -52.0526 H         1 UNK         0.0800 
    135 H135        3.4896  -17.6144  -53.3481 H         1 UNK         0.0800 
    136 H136        1.2947  -17.2667  -54.1913 H         1 UNK         0.1150 
    137 H137       -2.1596  -18.3964  -51.9173 H         1 UNK         0.1150 
    138 H138        1.7527  -18.7372  -50.1946 H         1 UNK         0.1150 
    139 H139       -0.6052  -18.4510  -48.8229 H         1 UNK         0.0800 
    140 H140       -1.9578  -19.1683  -49.6676 H         1 UNK         0.0800 
    141 H141       -1.2150  -20.1670  -47.0560 H         1 UNK         0.0800 
    142 H142        0.5260  -20.1514  -47.0558 H         1 UNK         0.0800 
    143 H143        0.4476  -22.7367  -47.1837 H         1 UNK         0.0600 
    144 H144        0.2681  -21.0900  -44.9151 H         1 UNK         0.3000 
    145 H145        0.4674  -23.6470  -42.4032 H         1 UNK         0.0600 
    146 H146        2.3405  -22.1658  -41.7351 H         1 UNK         0.0600 
    147 H147        2.7833  -23.1313  -43.1351 H         1 UNK         0.0600 
    148 H148        2.3698  -21.4351  -43.3375 H         1 UNK         0.0600 
    149 H149        0.2056  -20.8258  -42.1725 H         1 UNK         0.3000 
    150 H150       -3.3953  -20.7330  -42.1621 H         1 UNK         0.0600 
    151 H151       -2.6309  -21.2923  -39.8486 H         1 UNK         0.0600 
    152 H152       -2.9015  -19.5664  -40.0378 H         1 UNK         0.0600 
    153 H153       -1.2595  -20.2045  -40.0283 H         1 UNK         0.0600 
    154 H154       -1.5017  -18.6347  -41.9568 H         1 UNK         0.3000 
    155 H155       -1.0993  -18.0045  -45.4721 H         1 UNK         0.0600 
    156 H156       -2.3919  -16.4475  -43.1723 H         1 UNK         0.0600 
    157 H157       -3.1280  -16.7761  -44.7356 H         1 UNK         0.0600 
    158 H158       -1.7075  -15.7452  -44.6366 H         1 UNK         0.0600 
    159 H159        0.1204  -16.7663  -43.2412 H         1 UNK         0.3000 
    160 H160        2.9372  -18.9779  -42.9564 H         1 UNK         0.0600 
    161 H161        2.6254  -16.0903  -43.9398 H         1 UNK         0.0600 
    162 H162        3.4827  -17.3785  -44.7727 H         1 UNK         0.0600 
    163 H163        4.0819  -16.7871  -43.2314 H         1 UNK         0.0600 
    164 H164        2.0485  -16.6101  -41.5598 H         1 UNK         0.3000 
    165 H165        0.3312  -18.3214  -38.9489 H         1 UNK         0.0600 
    166 H166        1.9666  -17.0624  -37.5753 H         1 UNK         0.0600 
    167 H167        2.7473  -18.4469  -38.3224 H         1 UNK         0.0600 
    168 H168        3.0149  -16.8350  -38.9754 H         1 UNK         0.0600 
    169 H169        0.9315  -15.5596  -39.4162 H         1 UNK         0.3000 
    170 H170       -1.9443  -14.7997  -41.3780 H         1 UNK         0.0600 
    171 H171       -2.7734  -14.8543  -39.0200 H         1 UNK         0.0600 
    172 H172       -1.2700  -14.1285  -38.4641 H         1 UNK         0.0600 
    173 H173       -2.3566  -13.2230  -39.5182 H         1 UNK         0.0600 
    174 H174        0.0289  -13.0858  -40.3330 H         1 UNK         0.3000 
    175 H175        1.4351  -12.0456  -41.7325 H         1 UNK         0.0600 
    176 H176        3.3660  -14.3580  -42.3268 H         1 UNK         0.0600 
    177 H177        3.8238  -12.7052  -41.9242 H         1 UNK         0.0600 
    178 H178        3.0131  -13.7067  -40.7314 H         1 UNK         0.0600 
    179 H179        2.4859  -13.1166  -44.2440 H         1 UNK         0.3000 
    180 H180        0.1929  -11.4279  -46.3305 H         1 UNK         0.0600 
    181 H181        3.0904  -10.6155  -45.7458 H         1 UNK         0.0600 
    182 H182        1.7000   -9.5374  -45.7220 H         1 UNK         0.0600 
    183 H183        2.1999  -10.2831  -47.2318 H         1 UNK         0.0600 
    184 H184        2.6678  -12.7891  -46.8423 H         1 UNK         0.3000 
    185 H185        2.8260  -15.0646  -47.1285 H         1 UNK         0.0600 
    186 H186        1.2419  -16.5923  -45.9561 H         1 UNK         0.0600 
    187 H187        0.1932  -16.6210  -47.3617 H         1 UNK         0.0600 
    188 H188        1.8226  -17.2940  -47.4578 H         1 UNK         0.0600 
    189 H189        1.0119  -15.5793  -49.3353 H         1 UNK         0.3000 
    190 H190       -2.4836  -21.6649  -45.3811 H         1 UNK         0.3000 
    191 H191       -4.4097  -23.0375  -46.9073 H         1 UNK         0.0600 
    192 H192       -4.4582  -22.2673  -43.9493 H         1 UNK         0.0600 
    193 H193       -5.8604  -22.7119  -44.9139 H         1 UNK         0.0600 
    194 H194       -4.9620  -21.2514  -45.2978 H         1 UNK         0.0600 
    195 H195       -2.5036  -24.1702  -44.1000 H         1 UNK         0.3000 
    196 H196       -3.8171  -26.7150  -43.8924 H         1 UNK         0.0600 
    197 H197       -1.9492  -27.2125  -42.3047 H         1 UNK         0.0600 
    198 H198       -2.7078  -25.6645  -41.9641 H         1 UNK         0.0600 
    199 H199       -1.1458  -25.7185  -42.7747 H         1 UNK         0.0600 
    200 H200       -0.5391  -25.8107  -45.1545 H         1 UNK         0.3000 
    201 H201       -0.0236  -28.5984  -45.8388 H         1 UNK         0.0600 
    202 H202        1.6714  -27.1583  -44.7163 H         1 UNK         0.0600 
    203 H203        1.7259  -26.1055  -46.1293 H         1 UNK         0.0600 
    204 H204        2.2612  -27.7758  -46.2523 H         1 UNK         0.0600 
    205 H205       -0.6486  -25.5823  -47.6681 H         1 UNK         0.3000 
    206 H206       -0.0784  -26.9918  -50.2477 H         1 UNK         0.0600 
    207 H207        1.3387  -24.9922  -49.6911 H         1 UNK         0.0600 
    208 H208        0.3588  -24.7426  -51.1254 H         1 UNK         0.0600 
    209 H209       -0.1116  -23.9957  -49.6086 H         1 UNK         0.0600 
    210 H210       -2.6826  -26.3615  -48.3537 H         1 UNK         0.3000 
    211 H211       -4.8761  -26.0641  -48.5722 H         1 UNK         0.0600 
    212 H212       -4.5662  -26.9005  -51.5009 H         1 UNK         0.0600 
    213 H213       -6.0410  -26.9404  -50.5461 H         1 UNK         0.0600 
    214 H214       -4.7115  -28.0123  -50.1400 H         1 UNK         0.0600 
    215 H215       -3.1586  -23.8303  -48.8707 H         1 UNK         0.3000 
    216 H216       -3.1229  -21.6688  -49.1868 H         1 UNK         0.0600 
    217 H217       -5.1084  -20.3326  -49.6583 H         1 UNK         0.0600 
    218 H218       -5.5437  -21.6174  -48.5472 H         1 UNK         0.0600 
    219 H219       -5.9870  -21.7347  -50.2491 H         1 UNK         0.0600 
    220 H220       -2.6398  -23.7378  -51.4436 H         1 UNK         0.3000 
    221 H221       -1.7841  -23.8399  -53.4586 H         1 UNK         0.0600 
    222 H222       -1.1484  -20.8579  -53.0952 H         1 UNK         0.0600 
    223 H223       -0.1372  -22.2075  -52.6122 H         1 UNK         0.0600 
    224 H224       -0.4428  -21.9141  -54.3151 H         1 UNK         0.0600 
    225 H225       -2.4499  -20.6808  -54.6286 H         1 UNK         0.3000 
    226 H226       -4.4818  -21.6418  -56.5045 H         1 UNK         0.0600 
    227 H227       -2.6280  -20.1047  -57.2105 H         1 UNK         0.0600 
    228 H228       -4.2085  -19.3935  -57.4940 H         1 UNK         0.0600 
    229 H229       -3.2513  -18.8627  -56.1226 H         1 UNK         0.0600 
    230 H230       -4.6134  -20.4770  -53.3410 H         1 UNK         0.3000 
    231 H231       -6.1600  -19.9239  -51.9270 H         1 UNK         0.0600 
    232 H232       -7.8007  -21.3775  -53.1203 H         1 UNK         0.0600 
    233 H233       -8.3059  -20.0025  -54.1048 H         1 UNK         0.0600 
    234 H234       -8.5628  -19.9840  -52.3693 H         1 UNK         0.0600 
    235 H235       -6.1045  -18.0428  -54.9065 H         1 UNK         0.3000 
    236 H236       -5.6740  -15.6208  -53.3586 H         1 UNK         0.0600 
    237 H237       -7.3259  -14.3057  -54.7236 H         1 UNK         0.0600 
    238 H238       -7.9118  -15.7892  -55.4689 H         1 UNK         0.0600 
    239 H239       -8.1535  -15.5081  -53.7452 H         1 UNK         0.0600 
    240 H240       -4.3558  -14.1704  -54.5630 H         1 UNK         0.3000 
    241 H241       -3.7601  -14.5120  -57.3017 H         1 UNK         0.0600 
    242 H242       -1.7909  -11.4890  -57.0405 H         1 UNK         0.3800 
    243 H243       -1.8192  -12.9683  -57.9550 H         1 UNK         0.3800 
    244 H244       -2.4375  -16.4556  -56.6558 H         1 UNK         0.0800 
    245 H245       -1.3621  -15.1869  -57.1284 H         1 UNK         0.0800 
    246 H246       -1.1439  -17.9890  -55.2150 H         1 UNK         0.0800 
    247 H247       -2.4594  -17.5525  -54.1375 H         1 UNK         0.0800 
@<TRIPOS>BOND
     1    1    2 1    
     2    1  127 1    
     3    1  128 1    
     4    1  129 1    
     5    2    3 2    
     6    2    4 am   BACKBONE|DICT|INTERRES
     7    4    5 1    
     8    4  130 1    
     9    5    6 1    
    10    5   65 1    
    11    5  131 1    
    12    6    7 1    
    13    6  132 1    
    14    6  133 1    
    15    7    8 1    
    16    8    9 1    
    17    8  134 1    
    18    8  135 1    
    19    9   10 ar   
    20    9   14 ar   
    21   10   11 ar   
    22   10  136 1    
    23   11   12 ar   
    24   11  126 1    
    25   12   13 ar   
    26   12  137 1    
    27   13   14 ar   
    28   13   15 1    
    29   14  138 1    
    30   15   16 1    
    31   15  139 1    
    32   15  140 1    
    33   16   17 1    
    34   17   18 1    
    35   17  141 1    
    36   17  142 1    
    37   18   19 1    
    38   18   67 1    
    39   18  143 1    
    40   19   20 am   BACKBONE|DICT|INTERRES
    41   19  144 1    
    42   20   21 2    
    43   20   22 1    
    44   22   23 1    
    45   22   24 1    
    46   22  145 1    
    47   23  146 1    
    48   23  147 1    
    49   23  148 1    
    50   24   25 am   BACKBONE|DICT|INTERRES
    51   24  149 1    
    52   25   26 2    
    53   25   27 1    
    54   27   28 1    
    55   27   29 1    
    56   27  150 1    
    57   28  151 1    
    58   28  152 1    
    59   28  153 1    
    60   29   30 am   BACKBONE|DICT|INTERRES
    61   29  154 1    
    62   30   31 2    
    63   30   32 1    
    64   32   33 1    
    65   32   34 1    
    66   32  155 1    
    67   33  156 1    
    68   33  157 1    
    69   33  158 1    
    70   34   35 am   BACKBONE|DICT|INTERRES
    71   34  159 1    
    72   35   36 2    
    73   35   37 1    
    74   37   38 1    
    75   37   39 1    
    76   37  160 1    
    77   38  161 1    
    78   38  162 1    
    79   38  163 1    
    80   39   40 am   BACKBONE|DICT|INTERRES
    81   39  164 1    
    82   40   41 2    
    83   40   42 1    
    84   42   43 1    
    85   42   44 1    
    86   42  165 1    
    87   43  166 1    
    88   43  167 1    
    89   43  168 1    
    90   44   45 am   BACKBONE|DICT|INTERRES
    91   44  169 1    
    92   45   46 2    
    93   45   47 1    
    94   47   48 1    
    95   47   49 1    
    96   47  170 1    
    97   48  171 1    
    98   48  172 1    
    99   48  173 1    
   100   49   50 am   BACKBONE|DICT|INTERRES
   101   49  174 1    
   102   50   51 2    
   103   50   52 1    
   104   52   53 1    
   105   52   54 1    
   106   52  175 1    
   107   53  176 1    
   108   53  177 1    
   109   53  178 1    
   110   54   55 am   BACKBONE|DICT|INTERRES
   111   54  179 1    
   112   55   56 2    
   113   55   57 1    
   114   57   58 1    
   115   57   59 1    
   116   57  180 1    
   117   58  181 1    
   118   58  182 1    
   119   58  183 1    
   120   59   60 am   BACKBONE|DICT|INTERRES
   121   59  184 1    
   122   60   61 2    
   123   60   62 1    
   124   62   63 1    
   125   62   64 1    
   126   62  185 1    
   127   63  186 1    
   128   63  187 1    
   129   63  188 1    
   130   64   65 am   BACKBONE|DICT|INTERRES
   131   64  189 1    
   132   65   66 2    
   133   67   68 2    
   134   67   69 am   BACKBONE|DICT|INTERRES
   135   69   70 1    
   136   69  190 1    
   137   70   71 1    
   138   70   72 1    
   139   70  191 1    
   140   71  192 1    
   141   71  193 1    
   142   71  194 1    
   143   72   73 2    
   144   72   74 am   BACKBONE|DICT|INTERRES
   145   74   75 1    
   146   74  195 1    
   147   75   76 1    
   148   75   77 1    
   149   75  196 1    
   150   76  197 1    
   151   76  198 1    
   152   76  199 1    
   153   77   78 2    
   154   77   79 am   BACKBONE|DICT|INTERRES
   155   79   80 1    
   156   79  200 1    
   157   80   81 1    
   158   80   82 1    
   159   80  201 1    
   160   81  202 1    
   161   81  203 1    
   162   81  204 1    
   163   82   83 2    
   164   82   84 am   BACKBONE|DICT|INTERRES
   165   84   85 1    
   166   84  205 1    
   167   85   86 1    
   168   85   87 1    
   169   85  206 1    
   170   86  207 1    
   171   86  208 1    
   172   86  209 1    
   173   87   88 2    
   174   87   89 am   BACKBONE|DICT|INTERRES
   175   89   90 1    
   176   89  210 1    
   177   90   91 1    
   178   90   92 1    
   179   90  211 1    
   180   91  212 1    
   181   91  213 1    
   182   91  214 1    
   183   92   93 2    
   184   92   94 am   BACKBONE|DICT|INTERRES
   185   94   95 1    
   186   94  215 1    
   187   95   96 1    
   188   95   97 1    
   189   95  216 1    
   190   96  217 1    
   191   96  218 1    
   192   96  219 1    
   193   97   98 2    
   194   97   99 am   BACKBONE|DICT|INTERRES
   195   99  100 1    
   196   99  220 1    
   197  100  101 1    
   198  100  102 1    
   199  100  221 1    
   200  101  222 1    
   201  101  223 1    
   202  101  224 1    
   203  102  103 2    
   204  102  104 am   BACKBONE|DICT|INTERRES
   205  104  105 1    
   206  104  225 1    
   207  105  106 1    
   208  105  107 1    
   209  105  226 1    
   210  106  227 1    
   211  106  228 1    
   212  106  229 1    
   213  107  108 2    
   214  107  109 am   BACKBONE|DICT|INTERRES
   215  109  110 1    
   216  109  230 1    
   217  110  111 1    
   218  110  112 1    
   219  110  231 1    
   220  111  232 1    
   221  111  233 1    
   222  111  234 1    
   223  112  113 2    
   224  112  114 am   BACKBONE|DICT|INTERRES
   225  114  115 1    
   226  114  235 1    
   227  115  116 1    
   228  115  117 1    
   229  115  236 1    
   230  116  237 1    
   231  116  238 1    
   232  116  239 1    
   233  117  118 2    
   234  117  119 am   BACKBONE|DICT|INTERRES
   235  119  120 1    
   236  119  240 1    
   237  120  121 1    
   238  120  124 1    
   239  120  241 1    
   240  121  122 am   BACKBONE|DICT|INTERRES
   241  121  123 2    
   242  122  242 1    
   243  122  243 1    
   244  124  125 1    
   245  124  244 1    
   246  124  245 1    
   247  125  126 1    
   248  126  246 1    
   249  126  247 1    
@<TRIPOS>SUBSTRUCTURE
     1 UNK         1 GROUP             0       ****    0 ROOT    
