@<TRIPOS>MOLECULE
3R540
247   249    1
SMALL
USER_CHARGES


@<TRIPOS>ATOM
      1 CA          5.7873  -17.8123  -48.0198 C.3       0 UNK        -0.1800 
      2 C           4.7424  -17.1110  -47.1651 C.2       0 UNK         0.5000 
      3 O           4.3531  -17.6329  -46.1219 O.2       0 UNK        -0.5000 
      4 N           4.2918  -15.9243  -47.5914 N.am      1 UNK        -0.5000 
      5 CA          3.2544  -15.1117  -46.9443 C.3       1 UNK         0.1400 
      6 C6          2.5679  -14.1782  -47.9756 C.3       23 UNK        -0.0398 
      7 S7          0.8995  -13.6203  -47.4805 S.3       23 UNK        -0.2404 
      8 C8         -0.0896  -15.1501  -47.5447 C.3       23 UNK        -0.0205 
      9 C9          0.0333  -15.8781  -48.8730 C.ar      23 UNK        -0.0193 
     10 C10        -0.5832  -15.3595  -50.0146 C.ar      23 UNK        -0.1150 
     11 C11        -0.4374  -15.9947  -51.2505 C.ar      23 UNK        -0.0193 
     12 C12         0.3240  -17.1638  -51.3342 C.ar      23 UNK        -0.1150 
     13 C13         0.9291  -17.7038  -50.1951 C.ar      23 UNK        -0.0193 
     14 C14         0.7792  -17.0574  -48.9653 C.ar      23 UNK        -0.1150 
     15 C15         1.7607  -18.9740  -50.3006 C.3       23 UNK        -0.0205 
     16 S16         0.7300  -20.4274  -50.6689 S.3       23 UNK        -0.2404 
     17 C17        -0.2298  -20.5931  -49.1280 C.3       23 UNK        -0.0398 
     18 CA         -0.3030  -22.0624  -48.6610 C.3       11 UNK         0.1400 
     19 N           1.0002  -22.6144  -48.2878 N.am      11 UNK        -0.5000 
     20 C           1.2392  -23.9226  -48.1176 C.2       10 UNK         0.5000 
     21 O           0.3772  -24.7915  -48.2489 O.2       10 UNK        -0.5000 
     22 CA          2.6644  -24.3304  -47.6992 C.3       10 UNK         0.1400 
     23 CB          3.5005  -24.6937  -48.9350 C.3       10 UNK        -0.1800 
     24 N           3.3636  -23.2960  -46.9336 N.am      10 UNK        -0.5000 
     25 C           2.9882  -22.8572  -45.7249 C.2       9 UNK         0.5000 
     26 O           2.0203  -23.3138  -45.1122 O.2       9 UNK        -0.5000 
     27 CA          3.8080  -21.7078  -45.0975 C.3       9 UNK         0.1400 
     28 CB          4.8106  -21.0423  -46.0682 C.3       9 UNK        -0.1800 
     29 N           2.9432  -20.6936  -44.4853 N.am      9 UNK        -0.5000 
     30 C           1.9867  -19.9828  -45.0981 C.2       8 UNK         0.5000 
     31 O           1.7002  -20.0881  -46.2952 O.2       8 UNK        -0.5000 
     32 CA          1.1982  -19.0089  -44.2107 C.3       8 UNK         0.1400 
     33 CB          2.0539  -17.8193  -43.7424 C.3       8 UNK        -0.1800 
     34 N           0.0467  -18.5165  -44.9575 N.am      8 UNK        -0.5000 
     35 C          -1.0967  -18.0833  -44.4233 C.2       7 UNK         0.5000 
     36 O          -1.3349  -18.0878  -43.2133 O.2       7 UNK        -0.5000 
     37 CA         -2.1624  -17.5847  -45.4193 C.3       7 UNK         0.1400 
     38 CB         -3.0580  -18.7431  -45.8813 C.3       7 UNK        -0.1800 
     39 N          -2.9996  -16.5281  -44.8486 N.am      7 UNK        -0.5000 
     40 C          -2.5542  -15.3226  -44.4714 C.2       6 UNK         0.5000 
     41 O          -1.3970  -14.9300  -44.6433 O.2       6 UNK        -0.5000 
     42 CA         -3.5726  -14.4083  -43.7764 C.3       6 UNK         0.1400 
     43 CB         -3.9398  -14.9394  -42.3789 C.3       6 UNK        -0.1800 
     44 N          -2.9932  -13.0775  -43.6470 N.am      6 UNK        -0.5000 
     45 C          -3.6616  -11.9205  -43.6402 C.2       5 UNK         0.5000 
     46 O          -4.8872  -11.8440  -43.7384 O.2       5 UNK        -0.5000 
     47 CA         -2.8343  -10.6291  -43.4807 C.3       5 UNK         0.1400 
     48 CB         -3.1459   -9.9532  -42.1357 C.3       5 UNK        -0.1800 
     49 N          -1.3904  -10.8591  -43.5546 N.am      5 UNK        -0.5000 
     50 C          -0.6617  -10.9101  -44.6737 C.2       4 UNK         0.5000 
     51 O          -1.1377  -10.7652  -45.7997 O.2       4 UNK        -0.5000 
     52 CA          0.8529  -11.1557  -44.5114 C.3       4 UNK         0.1400 
     53 CB          1.5729   -9.8813  -44.0320 C.3       4 UNK        -0.1800 
     54 N           1.2157  -12.3119  -43.6787 N.am      4 UNK        -0.5000 
     55 C           1.0073  -12.5255  -42.3698 C.2       3 UNK         0.5000 
     56 O           0.4037  -11.7455  -41.6321 O.2       3 UNK        -0.5000 
     57 CA          1.5668  -13.8321  -41.7734 C.3       3 UNK         0.1400 
     58 CB          0.4548  -14.8795  -41.6100 C.3       3 UNK        -0.1800 
     59 N           2.6588  -14.4058  -42.5640 N.am      3 UNK        -0.5000 
     60 C           3.9220  -13.9573  -42.5438 C.2       2 UNK         0.5000 
     61 O           4.3082  -13.0341  -41.8261 O.2       2 UNK        -0.5000 
     62 CA          4.9225  -14.6495  -43.4900 C.3       2 UNK         0.1400 
     63 CB          5.6120  -15.8237  -42.7790 C.3       2 UNK        -0.1800 
     64 N           4.3218  -15.1364  -44.7336 N.am      2 UNK        -0.5000 
     65 C           3.7882  -14.3712  -45.6941 C.2       1 UNK         0.5000 
     66 O           3.7218  -13.1439  -45.6161 O.2       1 UNK        -0.5000 
     67 C          -1.3492  -22.2425  -47.5457 C.2       11 UNK         0.5000 
     68 O          -2.5152  -22.4718  -47.8604 O.2       11 UNK        -0.5000 
     69 N          -0.9308  -22.1901  -46.2719 N.am      12 UNK        -0.5000 
     70 CA         -1.8049  -22.4564  -45.1249 C.3       12 UNK         0.1400 
     71 CB         -1.0770  -22.1351  -43.8133 C.3       12 UNK        -0.1800 
     72 C          -2.3432  -23.8982  -45.1156 C.2       12 UNK         0.5000 
     73 O          -3.5295  -24.1004  -44.8539 O.2       12 UNK        -0.5000 
     74 N          -1.4726  -24.8606  -45.4528 N.am      13 UNK        -0.5000 
     75 CA         -1.8262  -26.2699  -45.6238 C.3       13 UNK         0.1400 
     76 CB         -0.5463  -27.1163  -45.6971 C.3       13 UNK        -0.1800 
     77 C          -2.7141  -26.5022  -46.8606 C.2       13 UNK         0.5000 
     78 O          -3.6584  -27.2898  -46.7927 O.2       13 UNK        -0.5000 
     79 N          -2.4310  -25.7806  -47.9535 N.am      14 UNK        -0.5000 
     80 CA         -3.1721  -25.8011  -49.2168 C.3       14 UNK         0.1400 
     81 CB         -2.2434  -25.3169  -50.3410 C.3       14 UNK        -0.1800 
     82 C          -4.4936  -25.0005  -49.1582 C.2       14 UNK         0.5000 
     83 O          -4.7547  -24.1663  -50.0299 O.2       14 UNK        -0.5000 
     84 N          -5.3152  -25.2960  -48.1418 N.am      15 UNK        -0.5000 
     85 CA         -6.6699  -24.7869  -47.9072 C.3       15 UNK         0.1400 
     86 CB         -7.6371  -25.3553  -48.9673 C.3       15 UNK        -0.1800 
     87 C          -6.7418  -23.2497  -47.7949 C.2       15 UNK         0.5000 
     88 O          -7.6573  -22.6369  -48.3445 O.2       15 UNK        -0.5000 
     89 N          -5.7634  -22.6541  -47.0965 N.am      16 UNK        -0.5000 
     90 CA         -5.5810  -21.2089  -46.9121 C.3       16 UNK         0.1400 
     91 CB         -6.6894  -20.6193  -46.0162 C.3       16 UNK        -0.1800 
     92 C          -5.4233  -20.4703  -48.2585 C.2       16 UNK         0.5000 
     93 O          -6.1649  -19.5345  -48.5596 O.2       16 UNK        -0.5000 
     94 N          -4.4591  -20.9575  -49.0474 N.am      17 UNK        -0.5000 
     95 CA         -4.0330  -20.5351  -50.3824 C.3       17 UNK         0.1400 
     96 CB         -3.6776  -19.0347  -50.4127 C.3       17 UNK        -0.1800 
     97 C          -4.9978  -20.9104  -51.5219 C.2       17 UNK         0.5000 
     98 O          -4.6321  -20.7173  -52.6820 O.2       17 UNK        -0.5000 
     99 N          -6.1842  -21.4488  -51.2069 N.am      18 UNK        -0.5000 
    100 CA        -7.2304  -21.7653  -52.1788 C.3       18 UNK         0.1400 
    101 CB        -8.5532  -22.0416  -51.4507 C.3       18 UNK        -0.1800 
    102 C         -6.8702  -22.9365  -53.1072 C.2       18 UNK         0.5000 
    103 O         -7.1454  -22.8550  -54.3045 O.2       18 UNK        -0.5000 
    104 N         -6.2432  -23.9894  -52.5614 N.am      19 UNK        -0.5000 
    105 CA        -5.8174  -25.1591  -53.3378 C.3       19 UNK         0.1400 
    106 CB        -5.7149  -26.3901  -52.4250 C.3       19 UNK        -0.1800 
    107 C         -4.4925  -24.9058  -54.0795 C.2       19 UNK         0.5000 
    108 O         -4.2494  -25.5233  -55.1165 O.2       19 UNK        -0.5000 
    109 N         -3.6767  -23.9806  -53.5547 N.am      20 UNK        -0.5000 
    110 CA        -2.4554  -23.4892  -54.1951 C.3       20 UNK         0.1400 
    111 CB        -1.5477  -22.8580  -53.1251 C.3       20 UNK        -0.1800 
    112 C         -2.7363  -22.4662  -55.3130 C.2       20 UNK         0.5000 
    113 O         -1.8308  -22.1703  -56.0934 O.2       20 UNK        -0.5000 
    114 N         -3.9528  -21.8975  -55.3318 N.am      21 UNK        -0.5000 
    115 CA        -4.4029  -20.7753  -56.1657 C.3       21 UNK         0.1400 
    116 CB        -4.5308  -21.2123  -57.6391 C.3       21 UNK        -0.1800 
    117 C         -3.5237  -19.5174  -55.9802 C.2       21 UNK         0.5000 
    118 O         -3.2755  -18.7823  -56.9376 O.2       21 UNK        -0.5000 
    119 N         -3.0358  -19.3258  -54.7466 N.am      22 UNK        -0.5000 
    120 CA        -2.0117  -18.3459  -54.3491 C.3       22 UNK         0.1400 
    121 C         -0.6059  -18.5537  -55.0022 C.2       22 UNK         0.5000 
    122 N         -0.3064  -19.6938  -55.6143 N.am      22 UNK        -0.7600 
    123 O          0.2504  -17.6773  -54.9307 O.2       22 UNK        -0.5000 
    124 C124       -2.5248  -16.8737  -54.4339 C.3       23 UNK        -0.0398 
    125 S125       -2.7321  -16.1085  -52.7900 S.3       23 UNK        -0.2404 
    126 C126       -1.0808  -15.4010  -52.4942 C.3       23 UNK        -0.0205 
    127 H127        6.6702  -18.0380  -47.4220 H         1 UNK         0.0600 
    128 H128        5.3859  -18.7498  -48.4043 H         1 UNK         0.0600 
    129 H129        6.0960  -17.2000  -48.8673 H         1 UNK         0.0600 
    130 H130        4.6858  -15.5308  -48.4341 H         1 UNK         0.3000 
    131 H131        2.4992  -15.8088  -46.5805 H         1 UNK         0.0600 
    132 H132        2.4725  -14.6826  -48.9377 H         1 UNK         0.0800 
    133 H133        3.1836  -13.3006  -48.1798 H         1 UNK         0.0800 
    134 H134       -1.1358  -14.8931  -47.3738 H         1 UNK         0.0800 
    135 H135        0.2023  -15.7970  -46.7175 H         1 UNK         0.0800 
    136 H136       -1.1601  -14.4480  -49.9428 H         1 UNK         0.1150 
    137 H137        0.4477  -17.6583  -52.2864 H         1 UNK         0.1150 
    138 H138        1.2599  -17.4631  -48.0860 H         1 UNK         0.1150 
    139 H139        2.4963  -18.8525  -51.0969 H         1 UNK         0.0800 
    140 H140        2.3269  -19.1517  -49.3844 H         1 UNK         0.0800 
    141 H141        0.1944  -19.9604  -48.3495 H         1 UNK         0.0800 
    142 H142       -1.2255  -20.1986  -49.3252 H         1 UNK         0.0800 
    143 H143       -0.6601  -22.6443  -49.5114 H         1 UNK         0.0600 
    144 H144        1.7443  -21.9505  -48.1263 H         1 UNK         0.3000 
    145 H145        2.5794  -25.2179  -47.0686 H         1 UNK         0.0600 
    146 H146        4.4871  -25.0602  -48.6509 H         1 UNK         0.0600 
    147 H147        3.0174  -25.4814  -49.5149 H         1 UNK         0.0600 
    148 H148        3.6365  -23.8364  -49.5955 H         1 UNK         0.0600 
    149 H149        4.1649  -22.8692  -47.3752 H         1 UNK         0.3000 
    150 H150        4.3813  -22.1554  -44.2846 H         1 UNK         0.0600 
    151 H151        5.5581  -21.7531  -46.4220 H         1 UNK         0.0600 
    152 H152        5.3521  -20.2363  -45.5728 H         1 UNK         0.0600 
    153 H153        4.3136  -20.6130  -46.9390 H         1 UNK         0.0600 
    154 H154        3.0758  -20.5613  -43.4931 H         1 UNK         0.3000 
    155 H155        0.8612  -19.5665  -43.3351 H         1 UNK         0.0600 
    156 H156        1.5354  -17.2529  -42.9704 H         1 UNK         0.0600 
    157 H157        2.2696  -17.1415  -44.5662 H         1 UNK         0.0600 
    158 H158        3.0050  -18.1447  -43.3202 H         1 UNK         0.0600 
    159 H159        0.1580  -18.5824  -45.9605 H         1 UNK         0.3000 
    160 H160       -1.6600  -17.1771  -46.2968 H         1 UNK         0.0600 
    161 H161       -3.5841  -19.2026  -45.0435 H         1 UNK         0.0600 
    162 H162       -2.4698  -19.5203  -46.3703 H         1 UNK         0.0600 
    163 H163       -3.8017  -18.4013  -46.6014 H         1 UNK         0.0600 
    164 H164       -3.9547  -16.7796  -44.6418 H         1 UNK         0.3000 
    165 H165       -4.4665  -14.3625  -44.4019 H         1 UNK         0.0600 
    166 H166       -3.0602  -15.0204  -41.7389 H         1 UNK         0.0600 
    167 H167       -4.6553  -14.2837  -41.8824 H         1 UNK         0.0600 
    168 H168       -4.3955  -15.9283  -42.4372 H         1 UNK         0.0600 
    169 H169       -1.9816  -13.0615  -43.6518 H         1 UNK         0.3000 
    170 H170       -3.1311   -9.9490  -44.2816 H         1 UNK         0.0600 
    171 H171       -4.2092   -9.7275  -42.0454 H         1 UNK         0.0600 
    172 H172       -2.8716  -10.5902  -41.2939 H         1 UNK         0.0600 
    173 H173       -2.6059   -9.0117  -42.0337 H         1 UNK         0.0600 
    174 H174       -0.9028  -11.0241  -42.6762 H         1 UNK         0.3000 
    175 H175        1.2387  -11.3830  -45.5059 H         1 UNK         0.0600 
    176 H176        1.2523   -9.5793  -43.0347 H         1 UNK         0.0600 
    177 H177        2.6529  -10.0281  -44.0067 H         1 UNK         0.0600 
    178 H178        1.3740   -9.0462  -44.7047 H         1 UNK         0.0600 
    179 H179        1.7311  -13.0247  -44.1752 H         1 UNK         0.3000 
    180 H180        1.9447  -13.5923  -40.7771 H         1 UNK         0.0600 
    181 H181       -0.4015  -14.4676  -41.0743 H         1 UNK         0.0600 
    182 H182        0.0967  -15.2418  -42.5724 H         1 UNK         0.0600 
    183 H183        0.8073  -15.7402  -41.0417 H         1 UNK         0.0600 
    184 H184        2.4290  -15.1729  -43.1769 H         1 UNK         0.3000 
    185 H185        5.6855  -13.9147  -43.7549 H         1 UNK         0.0600 
    186 H186        6.1023  -15.4927  -41.8626 H         1 UNK         0.0600 
    187 H187        4.9001  -16.6040  -42.5075 H         1 UNK         0.0600 
    188 H188        6.3771  -16.2738  -43.4120 H         1 UNK         0.0600 
    189 H189        4.3754  -16.1357  -44.9134 H         1 UNK         0.3000 
    190 H190        0.0511  -22.0355  -46.0840 H         1 UNK         0.3000 
    191 H191       -2.6653  -21.7892  -45.1966 H         1 UNK         0.0600 
    192 H192       -1.7020  -22.3724  -42.9515 H         1 UNK         0.0600 
    193 H193       -0.8400  -21.0758  -43.7509 H         1 UNK         0.0600 
    194 H194       -0.1503  -22.6996  -43.7110 H         1 UNK         0.0600 
    195 H195       -0.5219  -24.5980  -45.6715 H         1 UNK         0.3000 
    196 H196       -2.3912  -26.5869  -44.7446 H         1 UNK         0.0600 
    197 H197       -0.7861  -28.1766  -45.7859 H         1 UNK         0.0600 
    198 H198        0.0590  -26.9944  -44.7987 H         1 UNK         0.0600 
    199 H199        0.0702  -26.8478  -46.5552 H         1 UNK         0.0600 
    200 H200       -1.6142  -25.1801  -47.9293 H         1 UNK         0.3000 
    201 H201       -3.4390  -26.8364  -49.4380 H         1 UNK         0.0600 
    202 H202       -1.2975  -25.8587  -50.3398 H         1 UNK         0.0600 
    203 H203       -2.0247  -24.2558  -50.2394 H         1 UNK         0.0600 
    204 H204       -2.6984  -25.4661  -51.3195 H         1 UNK         0.0600 
    205 H205       -4.9861  -25.9960  -47.4839 H         1 UNK         0.3000 
    206 H206       -6.9797  -25.1751  -46.9361 H         1 UNK         0.0600 
    207 H207       -7.5913  -26.4438  -48.9992 H         1 UNK         0.0600 
    208 H208       -8.6692  -25.0819  -48.7451 H         1 UNK         0.0600 
    209 H209       -7.4075  -24.9826  -49.9654 H         1 UNK         0.0600 
    210 H210       -5.0361  -23.2416  -46.7095 H         1 UNK         0.3000 
    211 H211       -4.6364  -21.0897  -46.3827 H         1 UNK         0.0600 
    212 H212       -7.6706  -20.6783  -46.4880 H         1 UNK         0.0600 
    213 H213       -6.4945  -19.5684  -45.7992 H         1 UNK         0.0600 
    214 H214       -6.7438  -21.1431  -45.0620 H         1 UNK         0.0600 
    215 H215       -3.9153  -21.7330  -48.6696 H         1 UNK         0.3000 
    216 H216       -3.1171  -21.0941  -50.5762 H         1 UNK         0.0600 
    217 H217       -4.5683  -18.4066  -50.3857 H         1 UNK         0.0600 
    218 H218       -3.1356  -18.7850  -51.3240 H         1 UNK         0.0600 
    219 H219       -3.0455  -18.7495  -49.5722 H         1 UNK         0.0600 
    220 H220       -6.4031  -21.6028  -50.2317 H         1 UNK         0.3000 
    221 H221       -7.3741  -20.8816  -52.8043 H         1 UNK         0.0600 
    222 H222       -8.5001  -22.9479  -50.8478 H         1 UNK         0.0600 
    223 H223       -8.8238  -21.2159  -50.7923 H         1 UNK         0.0600 
    224 H224       -9.3689  -22.1722  -52.1628 H         1 UNK         0.0600 
    225 H225       -5.9794  -23.9656  -51.5801 H         1 UNK         0.3000 
    226 H226       -6.5789  -25.3754  -54.0904 H         1 UNK         0.0600 
    227 H227       -6.6393  -26.5517  -51.8704 H         1 UNK         0.0600 
    228 H228       -5.5267  -27.2898  -53.0118 H         1 UNK         0.0600 
    229 H229       -4.9022  -26.2993  -51.7080 H         1 UNK         0.0600 
    230 H230       -3.9569  -23.5314  -52.6948 H         1 UNK         0.3000 
    231 H231       -1.9230  -24.3304  -54.6439 H         1 UNK         0.0600 
    232 H232       -2.0471  -22.0460  -52.5965 H         1 UNK         0.0600 
    233 H233       -1.2294  -23.5963  -52.3911 H         1 UNK         0.0600 
    234 H234       -0.6414  -22.4451  -53.5707 H         1 UNK         0.0600 
    235 H235       -4.6038  -22.1774  -54.6112 H         1 UNK         0.3000 
    236 H236       -5.3985  -20.5083  -55.8084 H         1 UNK         0.0600 
    237 H237       -5.1600  -22.0974  -57.7330 H         1 UNK         0.0600 
    238 H238       -4.9859  -20.4260  -58.2423 H         1 UNK         0.0600 
    239 H239       -3.5601  -21.4422  -58.0793 H         1 UNK         0.0600 
    240 H240       -3.3638  -19.9474  -54.0137 H         1 UNK         0.3000 
    241 H241       -1.8210  -18.5828  -53.3025 H         1 UNK         0.0600 
    242 H242       -0.9811  -20.4446  -55.7155 H         1 UNK         0.3800 
    243 H243        0.6108  -19.8011  -56.0164 H         1 UNK         0.3800 
    244 H244       -3.4991  -16.8304  -54.9217 H         1 UNK         0.0800 
    245 H245       -1.8877  -16.2383  -55.0508 H         1 UNK         0.0800 
    246 H246       -0.4282  -15.5574  -53.3537 H         1 UNK         0.0800 
    247 H247       -1.1770  -14.3197  -52.3857 H         1 UNK         0.0800 
@<TRIPOS>BOND
     1    1    2 1    
     2    1  127 1    
     3    1  128 1    
     4    1  129 1    
     5    2    3 2    
     6    2    4 am   BACKBONE|DICT|INTERRES
     7    4    5 1    
     8    4  130 1    
     9    5    6 1    
    10    5   65 1    
    11    5  131 1    
    12    6    7 1    
    13    6  132 1    
    14    6  133 1    
    15    7    8 1    
    16    8    9 1    
    17    8  134 1    
    18    8  135 1    
    19    9   10 ar   
    20    9   14 ar   
    21   10   11 ar   
    22   10  136 1    
    23   11   12 ar   
    24   11  126 1    
    25   12   13 ar   
    26   12  137 1    
    27   13   14 ar   
    28   13   15 1    
    29   14  138 1    
    30   15   16 1    
    31   15  139 1    
    32   15  140 1    
    33   16   17 1    
    34   17   18 1    
    35   17  141 1    
    36   17  142 1    
    37   18   19 1    
    38   18   67 1    
    39   18  143 1    
    40   19   20 am   BACKBONE|DICT|INTERRES
    41   19  144 1    
    42   20   21 2    
    43   20   22 1    
    44   22   23 1    
    45   22   24 1    
    46   22  145 1    
    47   23  146 1    
    48   23  147 1    
    49   23  148 1    
    50   24   25 am   BACKBONE|DICT|INTERRES
    51   24  149 1    
    52   25   26 2    
    53   25   27 1    
    54   27   28 1    
    55   27   29 1    
    56   27  150 1    
    57   28  151 1    
    58   28  152 1    
    59   28  153 1    
    60   29   30 am   BACKBONE|DICT|INTERRES
    61   29  154 1    
    62   30   31 2    
    63   30   32 1    
    64   32   33 1    
    65   32   34 1    
    66   32  155 1    
    67   33  156 1    
    68   33  157 1    
    69   33  158 1    
    70   34   35 am   BACKBONE|DICT|INTERRES
    71   34  159 1    
    72   35   36 2    
    73   35   37 1    
    74   37   38 1    
    75   37   39 1    
    76   37  160 1    
    77   38  161 1    
    78   38  162 1    
    79   38  163 1    
    80   39   40 am   BACKBONE|DICT|INTERRES
    81   39  164 1    
    82   40   41 2    
    83   40   42 1    
    84   42   43 1    
    85   42   44 1    
    86   42  165 1    
    87   43  166 1    
    88   43  167 1    
    89   43  168 1    
    90   44   45 am   BACKBONE|DICT|INTERRES
    91   44  169 1    
    92   45   46 2    
    93   45   47 1    
    94   47   48 1    
    95   47   49 1    
    96   47  170 1    
    97   48  171 1    
    98   48  172 1    
    99   48  173 1    
   100   49   50 am   BACKBONE|DICT|INTERRES
   101   49  174 1    
   102   50   51 2    
   103   50   52 1    
   104   52   53 1    
   105   52   54 1    
   106   52  175 1    
   107   53  176 1    
   108   53  177 1    
   109   53  178 1    
   110   54   55 am   BACKBONE|DICT|INTERRES
   111   54  179 1    
   112   55   56 2    
   113   55   57 1    
   114   57   58 1    
   115   57   59 1    
   116   57  180 1    
   117   58  181 1    
   118   58  182 1    
   119   58  183 1    
   120   59   60 am   BACKBONE|DICT|INTERRES
   121   59  184 1    
   122   60   61 2    
   123   60   62 1    
   124   62   63 1    
   125   62   64 1    
   126   62  185 1    
   127   63  186 1    
   128   63  187 1    
   129   63  188 1    
   130   64   65 am   BACKBONE|DICT|INTERRES
   131   64  189 1    
   132   65   66 2    
   133   67   68 2    
   134   67   69 am   BACKBONE|DICT|INTERRES
   135   69   70 1    
   136   69  190 1    
   137   70   71 1    
   138   70   72 1    
   139   70  191 1    
   140   71  192 1    
   141   71  193 1    
   142   71  194 1    
   143   72   73 2    
   144   72   74 am   BACKBONE|DICT|INTERRES
   145   74   75 1    
   146   74  195 1    
   147   75   76 1    
   148   75   77 1    
   149   75  196 1    
   150   76  197 1    
   151   76  198 1    
   152   76  199 1    
   153   77   78 2    
   154   77   79 am   BACKBONE|DICT|INTERRES
   155   79   80 1    
   156   79  200 1    
   157   80   81 1    
   158   80   82 1    
   159   80  201 1    
   160   81  202 1    
   161   81  203 1    
   162   81  204 1    
   163   82   83 2    
   164   82   84 am   BACKBONE|DICT|INTERRES
   165   84   85 1    
   166   84  205 1    
   167   85   86 1    
   168   85   87 1    
   169   85  206 1    
   170   86  207 1    
   171   86  208 1    
   172   86  209 1    
   173   87   88 2    
   174   87   89 am   BACKBONE|DICT|INTERRES
   175   89   90 1    
   176   89  210 1    
   177   90   91 1    
   178   90   92 1    
   179   90  211 1    
   180   91  212 1    
   181   91  213 1    
   182   91  214 1    
   183   92   93 2    
   184   92   94 am   BACKBONE|DICT|INTERRES
   185   94   95 1    
   186   94  215 1    
   187   95   96 1    
   188   95   97 1    
   189   95  216 1    
   190   96  217 1    
   191   96  218 1    
   192   96  219 1    
   193   97   98 2    
   194   97   99 am   BACKBONE|DICT|INTERRES
   195   99  100 1    
   196   99  220 1    
   197  100  101 1    
   198  100  102 1    
   199  100  221 1    
   200  101  222 1    
   201  101  223 1    
   202  101  224 1    
   203  102  103 2    
   204  102  104 am   BACKBONE|DICT|INTERRES
   205  104  105 1    
   206  104  225 1    
   207  105  106 1    
   208  105  107 1    
   209  105  226 1    
   210  106  227 1    
   211  106  228 1    
   212  106  229 1    
   213  107  108 2    
   214  107  109 am   BACKBONE|DICT|INTERRES
   215  109  110 1    
   216  109  230 1    
   217  110  111 1    
   218  110  112 1    
   219  110  231 1    
   220  111  232 1    
   221  111  233 1    
   222  111  234 1    
   223  112  113 2    
   224  112  114 am   BACKBONE|DICT|INTERRES
   225  114  115 1    
   226  114  235 1    
   227  115  116 1    
   228  115  117 1    
   229  115  236 1    
   230  116  237 1    
   231  116  238 1    
   232  116  239 1    
   233  117  118 2    
   234  117  119 am   BACKBONE|DICT|INTERRES
   235  119  120 1    
   236  119  240 1    
   237  120  121 1    
   238  120  124 1    
   239  120  241 1    
   240  121  122 am   BACKBONE|DICT|INTERRES
   241  121  123 2    
   242  122  242 1    
   243  122  243 1    
   244  124  125 1    
   245  124  244 1    
   246  124  245 1    
   247  125  126 1    
   248  126  246 1    
   249  126  247 1    
@<TRIPOS>SUBSTRUCTURE
     1 UNK         1 GROUP             0       ****    0 ROOT    
