@<TRIPOS>MOLECULE
3R540
247   249    1
SMALL
USER_CHARGES


@<TRIPOS>ATOM
      1 CA          0.7746  -11.6820  -46.6139 C.3       0 UNK        -0.1800 
      2 C           2.1403  -11.8896  -47.2522 C.2       0 UNK         0.5000 
      3 O           3.0611  -11.1171  -46.9898 O.2       0 UNK        -0.5000 
      4 N           2.2738  -12.9262  -48.0895 N.am      1 UNK        -0.5000 
      5 CA          3.5229  -13.3045  -48.7648 C.3       1 UNK         0.1400 
      6 C6          3.2500  -14.1114  -50.0580 C.3       23 UNK        -0.0398 
      7 S7          2.3124  -15.6622  -49.8041 S.3       23 UNK        -0.2404 
      8 C8          3.4709  -16.8758  -50.5085 C.3       23 UNK        -0.0205 
      9 C9          2.8330  -18.2505  -50.6322 C.ar      23 UNK        -0.0193 
     10 C10         1.8685  -18.4830  -51.6169 C.ar      23 UNK        -0.1150 
     11 C11         1.2775  -19.7415  -51.7504 C.ar      23 UNK        -0.0193 
     12 C12         1.6635  -20.7739  -50.8908 C.ar      23 UNK        -0.1150 
     13 C13         2.6443  -20.5650  -49.9158 C.ar      23 UNK        -0.0193 
     14 C14         3.2244  -19.2967  -49.7910 C.ar      23 UNK        -0.1150 
     15 C15         3.1017  -21.7391  -49.0538 C.3       23 UNK        -0.0205 
     16 S16         3.3530  -21.3531  -47.2874 S.3       23 UNK        -0.2404 
     17 C17         1.7540  -20.6372  -46.7855 C.3       23 UNK        -0.0398 
     18 CA          0.6789  -21.6981  -46.4280 C.3       11 UNK         0.1400 
     19 N          -0.1622  -21.2747  -45.3038 N.am      11 UNK        -0.5000 
     20 C          -1.1147  -22.0164  -44.7199 C.2       10 UNK         0.5000 
     21 O          -1.3516  -23.1864  -45.0186 O.2       10 UNK        -0.5000 
     22 CA         -1.9905  -21.3156  -43.6641 C.3       10 UNK         0.1400 
     23 CB         -1.2926  -21.2824  -42.2965 C.3       10 UNK        -0.1800 
     24 N          -2.3685  -19.9593  -44.0658 N.am      10 UNK        -0.5000 
     25 C          -3.1444  -19.6794  -45.1235 C.2       9 UNK         0.5000 
     26 O          -3.6784  -20.5407  -45.8221 O.2       9 UNK        -0.5000 
     27 CA         -3.3150  -18.1946  -45.4946 C.3       9 UNK         0.1400 
     28 CB         -4.3956  -17.5343  -44.6260 C.3       9 UNK        -0.1800 
     29 N          -2.0668  -17.4371  -45.3919 N.am      9 UNK        -0.5000 
     30 C          -0.9715  -17.6726  -46.1288 C.2       8 UNK         0.5000 
     31 O          -0.9109  -18.5284  -47.0090 O.2       8 UNK        -0.5000 
     32 CA          0.2901  -16.8647  -45.7806 C.3       8 UNK         0.1400 
     33 CB          0.2346  -15.4587  -46.3935 C.3       8 UNK        -0.1800 
     34 N           0.5050  -16.7657  -44.3371 N.am      8 UNK        -0.5000 
     35 C           0.7455  -17.8086  -43.5296 C.2       7 UNK         0.5000 
     36 O           0.8477  -18.9681  -43.9236 O.2       7 UNK        -0.5000 
     37 CA          0.8338  -17.5159  -42.0231 C.3       7 UNK         0.1400 
     38 CB          2.2282  -16.9982  -41.6371 C.3       7 UNK        -0.1800 
     39 N          -0.1903  -16.5630  -41.5976 N.am      7 UNK        -0.5000 
     40 C          -1.5044  -16.8299  -41.5769 C.2       6 UNK         0.5000 
     41 O          -1.9854  -17.9258  -41.8658 O.2       6 UNK        -0.5000 
     42 CA         -2.4364  -15.6588  -41.2163 C.3       6 UNK         0.1400 
     43 CB         -2.5467  -15.5024  -39.6924 C.3       6 UNK        -0.1800 
     44 N          -1.9923  -14.3933  -41.8042 N.am      6 UNK        -0.5000 
     45 C          -1.9854  -14.1330  -43.1194 C.2       5 UNK         0.5000 
     46 O          -2.3967  -14.9180  -43.9725 O.2       5 UNK        -0.5000 
     47 CA         -1.3610  -12.7949  -43.5570 C.3       5 UNK         0.1400 
     48 CB         -2.4019  -11.6671  -43.5139 C.3       5 UNK        -0.1800 
     49 N          -0.1952  -12.4174  -42.7514 N.am      5 UNK        -0.5000 
     50 C           0.9463  -13.1153  -42.7067 C.2       4 UNK         0.5000 
     51 O           1.1474  -14.1377  -43.3691 O.2       4 UNK        -0.5000 
     52 CA          2.0172  -12.6232  -41.7243 C.3       4 UNK         0.1400 
     53 CB          1.6069  -12.9332  -40.2719 C.3       4 UNK        -0.1800 
     54 N           3.2680  -13.3001  -42.0404 N.am      4 UNK        -0.5000 
     55 C           4.4964  -12.9243  -41.6705 C.2       3 UNK         0.5000 
     56 O           4.7278  -11.9299  -40.9814 O.2       3 UNK        -0.5000 
     57 CA          5.6695  -13.8103  -42.1419 C.3       3 UNK         0.1400 
     58 CB          6.1276  -14.7343  -41.0025 C.3       3 UNK        -0.1800 
     59 N           5.3605  -14.6335  -43.3163 N.am      3 UNK        -0.5000 
     60 C           5.1572  -14.1594  -44.5531 C.2       2 UNK         0.5000 
     61 O           5.2416  -12.9621  -44.8340 O.2       2 UNK        -0.5000 
     62 CA          4.8005  -15.1921  -45.6450 C.3       2 UNK         0.1400 
     63 CB          3.9889  -16.3829  -45.1002 C.3       2 UNK        -0.1800 
     64 N           4.0237  -14.5582  -46.7070 N.am      2 UNK        -0.5000 
     65 C           4.5216  -14.0283  -47.8315 C.2       1 UNK         0.5000 
     66 O           5.7103  -14.0902  -48.1503 O.2       1 UNK        -0.5000 
     67 C          -0.1734  -22.0601  -47.6609 C.2       11 UNK         0.5000 
     68 O          -0.0098  -23.1432  -48.2208 O.2       11 UNK        -0.5000 
     69 N          -1.0985  -21.1629  -48.0258 N.am      12 UNK        -0.5000 
     70 CA         -2.0428  -21.3202  -49.1288 C.3       12 UNK         0.1400 
     71 CB         -2.8616  -20.0292  -49.2718 C.3       12 UNK        -0.1800 
     72 C          -2.9652  -22.5393  -48.9598 C.2       12 UNK         0.5000 
     73 O          -3.1839  -23.2693  -49.9247 O.2       12 UNK        -0.5000 
     74 N          -3.4590  -22.7576  -47.7332 N.am      13 UNK        -0.5000 
     75 CA         -4.2578  -23.9232  -47.3598 C.3       13 UNK         0.1400 
     76 CB         -4.8547  -23.7137  -45.9605 C.3       13 UNK        -0.1800 
     77 C          -3.4574  -25.2364  -47.4307 C.2       13 UNK         0.5000 
     78 O          -3.9591  -26.2171  -47.9803 O.2       13 UNK        -0.5000 
     79 N          -2.2213  -25.2287  -46.9102 N.am      14 UNK        -0.5000 
     80 CA         -1.2978  -26.3672  -46.9368 C.3       14 UNK         0.1400 
     81 CB         -0.0744  -26.0578  -46.0606 C.3       14 UNK        -0.1800 
     82 C          -0.8619  -26.7583  -48.3618 C.2       14 UNK         0.5000 
     83 O          -0.7535  -27.9475  -48.6624 O.2       14 UNK        -0.5000 
     84 N          -0.6549  -25.7521  -49.2204 N.am      15 UNK        -0.5000 
     85 CA         -0.3381  -25.9028  -50.6414 C.3       15 UNK         0.1400 
     86 CB          0.2710  -24.5837  -51.1453 C.3       15 UNK        -0.1800 
     87 C          -1.5521  -26.2941  -51.5100 C.2       15 UNK         0.5000 
     88 O          -1.3694  -26.5827  -52.6940 O.2       15 UNK        -0.5000 
     89 N          -2.7633  -26.2557  -50.9348 N.am      16 UNK        -0.5000 
     90 CA         -4.0899  -26.4055  -51.5451 C.3       16 UNK         0.1400 
     91 CB         -4.2593  -27.7576  -52.2635 C.3       16 UNK        -0.1800 
     92 C          -4.4601  -25.2178  -52.4513 C.2       16 UNK         0.5000 
     93 O          -5.5021  -24.6020  -52.2303 O.2       16 UNK        -0.5000 
     94 N          -3.5864  -24.9132  -53.4222 N.am      17 UNK        -0.5000 
     95 CA         -3.4896  -23.6926  -54.2299 C.3       17 UNK         0.1400 
     96 CB         -2.6985  -22.6351  -53.4382 C.3       17 UNK        -0.1800 
     97 C          -4.8292  -23.1454  -54.7637 C.2       17 UNK         0.5000 
     98 O          -5.1349  -21.9697  -54.5611 O.2       17 UNK        -0.5000 
     99 N          -5.6134  -24.0195  -55.4122 N.am      18 UNK        -0.5000 
    100 CA        -6.9294  -23.7372  -56.0031 C.3       18 UNK         0.1400 
    101 CB        -6.7801  -22.8217  -57.2370 C.3       18 UNK        -0.1800 
    102 C         -7.9473  -23.1992  -54.9719 C.2       18 UNK         0.5000 
    103 O         -8.6241  -22.2019  -55.2279 O.2       18 UNK        -0.5000 
    104 N         -8.0089  -23.8763  -53.8161 N.am      19 UNK        -0.5000 
    105 CA        -8.7802  -23.5285  -52.6181 C.3       19 UNK         0.1400 
    106 CB       -10.2977  -23.4935  -52.9011 C.3       19 UNK        -0.1800 
    107 C         -8.2425  -22.2496  -51.9446 C.2       19 UNK         0.5000 
    108 O         -9.0088  -21.3364  -51.6320 O.2       19 UNK        -0.5000 
    109 N         -6.9195  -22.2356  -51.7288 N.am      20 UNK        -0.5000 
    110 CA        -6.1242  -21.2053  -51.0592 C.3       20 UNK         0.1400 
    111 CB        -6.4506  -21.1765  -49.5509 C.3       20 UNK        -0.1800 
    112 C         -6.2282  -19.8179  -51.7265 C.2       20 UNK         0.5000 
    113 O         -6.3692  -18.8076  -51.0343 O.2       20 UNK        -0.5000 
    114 N         -6.1425  -19.7843  -53.0639 N.am      21 UNK        -0.5000 
    115 CA        -6.2786  -18.5776  -53.8871 C.3       21 UNK         0.1400 
    116 CB        -6.2984  -18.9772  -55.3702 C.3       21 UNK        -0.1800 
    117 C         -5.1921  -17.5154  -53.6245 C.2       21 UNK         0.5000 
    118 O         -5.4575  -16.3232  -53.7837 O.2       21 UNK        -0.5000 
    119 N         -4.0049  -17.9648  -53.2018 N.am      22 UNK        -0.5000 
    120 CA        -2.8999  -17.1269  -52.7107 C.3       22 UNK         0.1400 
    121 C         -3.0716  -16.6098  -51.2489 C.2       22 UNK         0.5000 
    122 N         -4.1186  -16.9742  -50.5165 N.am      22 UNK        -0.7600 
    123 O         -2.2481  -15.8321  -50.7756 O.2       22 UNK        -0.5000 
    124 C124       -1.5200  -17.8001  -52.9446 C.3       23 UNK        -0.0398 
    125 S125       -1.4235  -19.5196  -52.3387 S.3       23 UNK        -0.2404 
    126 C126        0.2538  -20.0019  -52.8456 C.3       23 UNK        -0.0205 
    127 H127        0.0664  -12.4577  -46.9052 H         1 UNK         0.0600 
    128 H128        0.3637  -10.7172  -46.9110 H         1 UNK         0.0600 
    129 H129        0.8682  -11.6929  -45.5285 H         1 UNK         0.0600 
    130 H130        1.4791  -13.5158  -48.2936 H         1 UNK         0.3000 
    131 H131        4.0196  -12.3819  -49.0734 H         1 UNK         0.0600 
    132 H132        4.1895  -14.3215  -50.5722 H         1 UNK         0.0800 
    133 H133        2.6777  -13.4936  -50.7512 H         1 UNK         0.0800 
    134 H134        3.7905  -16.5449  -51.4979 H         1 UNK         0.0800 
    135 H135        4.3680  -16.9177  -49.8885 H         1 UNK         0.0800 
    136 H136        1.5818  -17.6805  -52.2812 H         1 UNK         0.1150 
    137 H137        1.2141  -21.7508  -50.9984 H         1 UNK         0.1150 
    138 H138        3.9885  -19.1270  -49.0457 H         1 UNK         0.1150 
    139 H139        2.4000  -22.5697  -49.1309 H         1 UNK         0.0800 
    140 H140        4.0445  -22.1084  -49.4588 H         1 UNK         0.0800 
    141 H141        1.4047  -19.9194  -47.5297 H         1 UNK         0.0800 
    142 H142        1.9867  -20.0354  -45.9085 H         1 UNK         0.0800 
    143 H143        1.1815  -22.6098  -46.0985 H         1 UNK         0.0600 
    144 H144        0.0002  -20.3365  -44.9483 H         1 UNK         0.3000 
    145 H145       -2.9082  -21.8977  -43.5577 H         1 UNK         0.0600 
    146 H146       -1.9366  -20.8391  -41.5368 H         1 UNK         0.0600 
    147 H147       -1.0417  -22.2902  -41.9635 H         1 UNK         0.0600 
    148 H148       -0.3675  -20.7076  -42.3258 H         1 UNK         0.0600 
    149 H149       -2.0033  -19.1958  -43.5068 H         1 UNK         0.3000 
    150 H150       -3.6435  -18.1497  -46.5348 H         1 UNK         0.0600 
    151 H151       -4.5785  -16.5064  -44.9394 H         1 UNK         0.0600 
    152 H152       -5.3414  -18.0718  -44.7038 H         1 UNK         0.0600 
    153 H153       -4.1125  -17.5170  -43.5734 H         1 UNK         0.0600 
    154 H154       -2.0518  -16.6730  -44.7225 H         1 UNK         0.3000 
    155 H155        1.1479  -17.3866  -46.2098 H         1 UNK         0.0600 
    156 H156       -0.6243  -14.8942  -46.0320 H         1 UNK         0.0600 
    157 H157        0.1573  -15.5127  -47.4800 H         1 UNK         0.0600 
    158 H158        1.1319  -14.8906  -46.1530 H         1 UNK         0.0600 
    159 H159        0.4875  -15.8324  -43.9366 H         1 UNK         0.3000 
    160 H160        0.6647  -18.4547  -41.4914 H         1 UNK         0.0600 
    161 H161        2.4655  -16.0579  -42.1309 H         1 UNK         0.0600 
    162 H162        2.9998  -17.7166  -41.9167 H         1 UNK         0.0600 
    163 H163        2.3065  -16.8398  -40.5615 H         1 UNK         0.0600 
    164 H164        0.1169  -15.6269  -41.3855 H         1 UNK         0.3000 
    165 H165       -3.4289  -15.8886  -41.6098 H         1 UNK         0.0600 
    166 H166       -3.2618  -14.7236  -39.4271 H         1 UNK         0.0600 
    167 H167       -2.8901  -16.4286  -39.2296 H         1 UNK         0.0600 
    168 H168       -1.5873  -15.2457  -39.2412 H         1 UNK         0.0600 
    169 H169       -1.6425  -13.6905  -41.1702 H         1 UNK         0.3000 
    170 H170       -1.0337  -12.9134  -44.5910 H         1 UNK         0.0600 
    171 H171       -3.2737  -11.9177  -44.1199 H         1 UNK         0.0600 
    172 H172       -2.7511  -11.4777  -42.4982 H         1 UNK         0.0600 
    173 H173       -1.9910  -10.7372  -43.9076 H         1 UNK         0.0600 
    174 H174       -0.2900  -11.5895  -42.1806 H         1 UNK         0.3000 
    175 H175        2.1434  -11.5471  -41.8587 H         1 UNK         0.0600 
    176 H176        1.4864  -14.0048  -40.1085 H         1 UNK         0.0600 
    177 H177        2.3528  -12.5722  -39.5637 H         1 UNK         0.0600 
    178 H178        0.6634  -12.4513  -40.0137 H         1 UNK         0.0600 
    179 H179        3.1568  -14.0922  -42.6594 H         1 UNK         0.3000 
    180 H180        6.4978  -13.1468  -42.3990 H         1 UNK         0.0600 
    181 H181        5.3426  -15.4339  -40.7120 H         1 UNK         0.0600 
    182 H182        6.3978  -14.1584  -40.1163 H         1 UNK         0.0600 
    183 H183        7.0052  -15.3130  -41.2912 H         1 UNK         0.0600 
    184 H184        5.2897  -15.6281  -43.1596 H         1 UNK         0.3000 
    185 H185        5.7377  -15.5772  -46.0516 H         1 UNK         0.0600 
    186 H186        4.5788  -16.9958  -44.4182 H         1 UNK         0.0600 
    187 H187        3.1039  -16.0429  -44.5644 H         1 UNK         0.0600 
    188 H188        3.6595  -17.0380  -45.9072 H         1 UNK         0.0600 
    189 H189        3.0464  -14.4040  -46.5143 H         1 UNK         0.3000 
    190 H190       -1.1342  -20.2734  -47.5315 H         1 UNK         0.3000 
    191 H191       -1.4597  -21.4660  -50.0398 H         1 UNK         0.0600 
    192 H192       -2.2116  -19.1627  -49.3951 H         1 UNK         0.0600 
    193 H193       -3.5077  -20.0700  -50.1471 H         1 UNK         0.0600 
    194 H194       -3.4924  -19.8473  -48.4026 H         1 UNK         0.0600 
    195 H195       -3.2793  -22.0730  -47.0046 H         1 UNK         0.3000 
    196 H196       -5.0834  -24.0034  -48.0697 H         1 UNK         0.0600 
    197 H197       -5.4720  -24.5637  -45.6675 H         1 UNK         0.0600 
    198 H198       -5.4873  -22.8262  -45.9326 H         1 UNK         0.0600 
    199 H199       -4.0788  -23.5937  -45.2041 H         1 UNK         0.0600 
    200 H200       -1.8903  -24.3895  -46.4415 H         1 UNK         0.3000 
    201 H201       -1.8160  -27.2251  -46.5037 H         1 UNK         0.0600 
    202 H202       -0.3681  -25.8667  -45.0283 H         1 UNK         0.0600 
    203 H203        0.4681  -25.1831  -46.4204 H         1 UNK         0.0600 
    204 H204        0.6225  -26.8967  -46.0507 H         1 UNK         0.0600 
    205 H205       -0.6921  -24.7988  -48.8665 H         1 UNK         0.3000 
    206 H206        0.4099  -26.6904  -50.7510 H         1 UNK         0.0600 
    207 H207        1.1730  -24.3296  -50.5888 H         1 UNK         0.0600 
    208 H208        0.5478  -24.6507  -52.1981 H         1 UNK         0.0600 
    209 H209       -0.4312  -23.7553  -51.0412 H         1 UNK         0.0600 
    210 H210       -2.7900  -25.9667  -49.9654 H         1 UNK         0.3000 
    211 H211       -4.7932  -26.3925  -50.7110 H         1 UNK         0.0600 
    212 H212       -3.6212  -27.8442  -53.1429 H         1 UNK         0.0600 
    213 H213       -5.2889  -27.8890  -52.5981 H         1 UNK         0.0600 
    214 H214       -4.0258  -28.5878  -51.5968 H         1 UNK         0.0600 
    215 H215       -2.7780  -25.5263  -53.4801 H         1 UNK         0.3000 
    216 H216       -2.8985  -23.9522  -55.1089 H         1 UNK         0.0600 
    217 H217       -2.5223  -21.7456  -54.0437 H         1 UNK         0.0600 
    218 H218       -1.7240  -23.0154  -53.1326 H         1 UNK         0.0600 
    219 H219       -3.2302  -22.3241  -52.5389 H         1 UNK         0.0600 
    220 H220       -5.2872  -24.9721  -55.4964 H         1 UNK         0.3000 
    221 H221       -7.3250  -24.6927  -56.3503 H         1 UNK         0.0600 
    222 H222       -6.4203  -21.8288  -56.9653 H         1 UNK         0.0600 
    223 H223       -6.0818  -23.2446  -57.9591 H         1 UNK         0.0600 
    224 H224       -7.7355  -22.6944  -57.7473 H         1 UNK         0.0600 
    225 H225       -7.3488  -24.6321  -53.6887 H         1 UNK         0.3000 
    226 H226       -8.6065  -24.3371  -51.9063 H         1 UNK         0.0600 
    227 H227      -10.6320  -24.4161  -53.3753 H         1 UNK         0.0600 
    228 H228      -10.8607  -23.3828  -51.9738 H         1 UNK         0.0600 
    229 H229      -10.5767  -22.6621  -53.5485 H         1 UNK         0.0600 
    230 H230       -6.3911  -23.0559  -52.0243 H         1 UNK         0.3000 
    231 H231       -5.0859  -21.5184  -51.1671 H         1 UNK         0.0600 
    232 H232       -7.4754  -20.8541  -49.3653 H         1 UNK         0.0600 
    233 H233       -5.7930  -20.4916  -49.0158 H         1 UNK         0.0600 
    234 H234       -6.3231  -22.1613  -49.1029 H         1 UNK         0.0600 
    235 H235       -5.9632  -20.6516  -53.5677 H         1 UNK         0.3000 
    236 H236       -7.2421  -18.1250  -53.6447 H         1 UNK         0.0600 
    237 H237       -7.1027  -19.6839  -55.5769 H         1 UNK         0.0600 
    238 H238       -6.4563  -18.1071  -56.0084 H         1 UNK         0.0600 
    239 H239       -5.3593  -19.4418  -55.6730 H         1 UNK         0.0600 
    240 H240       -3.8743  -18.9609  -53.1017 H         1 UNK         0.3000 
    241 H241       -2.8967  -16.2187  -53.3164 H         1 UNK         0.0600 
    242 H242       -4.2059  -16.6087  -49.5829 H         1 UNK         0.3800 
    243 H243       -4.8378  -17.5925  -50.8761 H         1 UNK         0.3800 
    244 H244       -1.3121  -17.8148  -54.0153 H         1 UNK         0.0800 
    245 H245       -0.7178  -17.2130  -52.4956 H         1 UNK         0.0800 
    246 H246        0.5371  -19.4799  -53.7606 H         1 UNK         0.0800 
    247 H247        0.2442  -21.0635  -53.0971 H         1 UNK         0.0800 
@<TRIPOS>BOND
     1    1    2 1    
     2    1  127 1    
     3    1  128 1    
     4    1  129 1    
     5    2    3 2    
     6    2    4 am   BACKBONE|DICT|INTERRES
     7    4    5 1    
     8    4  130 1    
     9    5    6 1    
    10    5   65 1    
    11    5  131 1    
    12    6    7 1    
    13    6  132 1    
    14    6  133 1    
    15    7    8 1    
    16    8    9 1    
    17    8  134 1    
    18    8  135 1    
    19    9   10 ar   
    20    9   14 ar   
    21   10   11 ar   
    22   10  136 1    
    23   11   12 ar   
    24   11  126 1    
    25   12   13 ar   
    26   12  137 1    
    27   13   14 ar   
    28   13   15 1    
    29   14  138 1    
    30   15   16 1    
    31   15  139 1    
    32   15  140 1    
    33   16   17 1    
    34   17   18 1    
    35   17  141 1    
    36   17  142 1    
    37   18   19 1    
    38   18   67 1    
    39   18  143 1    
    40   19   20 am   BACKBONE|DICT|INTERRES
    41   19  144 1    
    42   20   21 2    
    43   20   22 1    
    44   22   23 1    
    45   22   24 1    
    46   22  145 1    
    47   23  146 1    
    48   23  147 1    
    49   23  148 1    
    50   24   25 am   BACKBONE|DICT|INTERRES
    51   24  149 1    
    52   25   26 2    
    53   25   27 1    
    54   27   28 1    
    55   27   29 1    
    56   27  150 1    
    57   28  151 1    
    58   28  152 1    
    59   28  153 1    
    60   29   30 am   BACKBONE|DICT|INTERRES
    61   29  154 1    
    62   30   31 2    
    63   30   32 1    
    64   32   33 1    
    65   32   34 1    
    66   32  155 1    
    67   33  156 1    
    68   33  157 1    
    69   33  158 1    
    70   34   35 am   BACKBONE|DICT|INTERRES
    71   34  159 1    
    72   35   36 2    
    73   35   37 1    
    74   37   38 1    
    75   37   39 1    
    76   37  160 1    
    77   38  161 1    
    78   38  162 1    
    79   38  163 1    
    80   39   40 am   BACKBONE|DICT|INTERRES
    81   39  164 1    
    82   40   41 2    
    83   40   42 1    
    84   42   43 1    
    85   42   44 1    
    86   42  165 1    
    87   43  166 1    
    88   43  167 1    
    89   43  168 1    
    90   44   45 am   BACKBONE|DICT|INTERRES
    91   44  169 1    
    92   45   46 2    
    93   45   47 1    
    94   47   48 1    
    95   47   49 1    
    96   47  170 1    
    97   48  171 1    
    98   48  172 1    
    99   48  173 1    
   100   49   50 am   BACKBONE|DICT|INTERRES
   101   49  174 1    
   102   50   51 2    
   103   50   52 1    
   104   52   53 1    
   105   52   54 1    
   106   52  175 1    
   107   53  176 1    
   108   53  177 1    
   109   53  178 1    
   110   54   55 am   BACKBONE|DICT|INTERRES
   111   54  179 1    
   112   55   56 2    
   113   55   57 1    
   114   57   58 1    
   115   57   59 1    
   116   57  180 1    
   117   58  181 1    
   118   58  182 1    
   119   58  183 1    
   120   59   60 am   BACKBONE|DICT|INTERRES
   121   59  184 1    
   122   60   61 2    
   123   60   62 1    
   124   62   63 1    
   125   62   64 1    
   126   62  185 1    
   127   63  186 1    
   128   63  187 1    
   129   63  188 1    
   130   64   65 am   BACKBONE|DICT|INTERRES
   131   64  189 1    
   132   65   66 2    
   133   67   68 2    
   134   67   69 am   BACKBONE|DICT|INTERRES
   135   69   70 1    
   136   69  190 1    
   137   70   71 1    
   138   70   72 1    
   139   70  191 1    
   140   71  192 1    
   141   71  193 1    
   142   71  194 1    
   143   72   73 2    
   144   72   74 am   BACKBONE|DICT|INTERRES
   145   74   75 1    
   146   74  195 1    
   147   75   76 1    
   148   75   77 1    
   149   75  196 1    
   150   76  197 1    
   151   76  198 1    
   152   76  199 1    
   153   77   78 2    
   154   77   79 am   BACKBONE|DICT|INTERRES
   155   79   80 1    
   156   79  200 1    
   157   80   81 1    
   158   80   82 1    
   159   80  201 1    
   160   81  202 1    
   161   81  203 1    
   162   81  204 1    
   163   82   83 2    
   164   82   84 am   BACKBONE|DICT|INTERRES
   165   84   85 1    
   166   84  205 1    
   167   85   86 1    
   168   85   87 1    
   169   85  206 1    
   170   86  207 1    
   171   86  208 1    
   172   86  209 1    
   173   87   88 2    
   174   87   89 am   BACKBONE|DICT|INTERRES
   175   89   90 1    
   176   89  210 1    
   177   90   91 1    
   178   90   92 1    
   179   90  211 1    
   180   91  212 1    
   181   91  213 1    
   182   91  214 1    
   183   92   93 2    
   184   92   94 am   BACKBONE|DICT|INTERRES
   185   94   95 1    
   186   94  215 1    
   187   95   96 1    
   188   95   97 1    
   189   95  216 1    
   190   96  217 1    
   191   96  218 1    
   192   96  219 1    
   193   97   98 2    
   194   97   99 am   BACKBONE|DICT|INTERRES
   195   99  100 1    
   196   99  220 1    
   197  100  101 1    
   198  100  102 1    
   199  100  221 1    
   200  101  222 1    
   201  101  223 1    
   202  101  224 1    
   203  102  103 2    
   204  102  104 am   BACKBONE|DICT|INTERRES
   205  104  105 1    
   206  104  225 1    
   207  105  106 1    
   208  105  107 1    
   209  105  226 1    
   210  106  227 1    
   211  106  228 1    
   212  106  229 1    
   213  107  108 2    
   214  107  109 am   BACKBONE|DICT|INTERRES
   215  109  110 1    
   216  109  230 1    
   217  110  111 1    
   218  110  112 1    
   219  110  231 1    
   220  111  232 1    
   221  111  233 1    
   222  111  234 1    
   223  112  113 2    
   224  112  114 am   BACKBONE|DICT|INTERRES
   225  114  115 1    
   226  114  235 1    
   227  115  116 1    
   228  115  117 1    
   229  115  236 1    
   230  116  237 1    
   231  116  238 1    
   232  116  239 1    
   233  117  118 2    
   234  117  119 am   BACKBONE|DICT|INTERRES
   235  119  120 1    
   236  119  240 1    
   237  120  121 1    
   238  120  124 1    
   239  120  241 1    
   240  121  122 am   BACKBONE|DICT|INTERRES
   241  121  123 2    
   242  122  242 1    
   243  122  243 1    
   244  124  125 1    
   245  124  244 1    
   246  124  245 1    
   247  125  126 1    
   248  126  246 1    
   249  126  247 1    
@<TRIPOS>SUBSTRUCTURE
     1 UNK         1 GROUP             0       ****    0 ROOT    
