@<TRIPOS>MOLECULE
3R540
247   249    1
SMALL
USER_CHARGES


@<TRIPOS>ATOM
      1 CA          0.0176  -12.1979  -48.1258 C.3       0 UNK        -0.1800 
      2 C           1.4280  -12.6142  -48.5194 C.2       0 UNK         0.5000 
      3 O           2.3818  -11.8846  -48.2510 O.2       0 UNK        -0.5000 
      4 N           1.5664  -13.7927  -49.1426 N.am      1 UNK        -0.5000 
      5 CA          2.8404  -14.3859  -49.5758 C.3       1 UNK         0.1400 
      6 C6          2.5961  -15.6507  -50.4337 C.3       23 UNK        -0.0398 
      7 S7          3.9750  -16.0284  -51.5712 S.3       23 UNK        -0.2404 
      8 C8          4.6700  -17.5525  -50.8341 C.3       23 UNK        -0.0205 
      9 C9          3.7167  -18.7476  -50.7505 C.ar      23 UNK        -0.0193 
     10 C10         2.5592  -18.8433  -51.5331 C.ar      23 UNK        -0.1150 
     11 C11         1.6789  -19.9184  -51.3880 C.ar      23 UNK        -0.0193 
     12 C12         1.9887  -20.9396  -50.4862 C.ar      23 UNK        -0.1150 
     13 C13         3.1609  -20.8831  -49.7266 C.ar      23 UNK        -0.0193 
     14 C14         4.0143  -19.7837  -49.8597 C.ar      23 UNK        -0.1150 
     15 C15         3.5170  -22.0235  -48.7830 C.3       23 UNK        -0.0205 
     16 S16         3.5036  -21.5411  -47.0244 S.3       23 UNK        -0.2404 
     17 C17         1.7967  -20.9544  -46.7592 C.3       23 UNK        -0.0398 
     18 CA          0.8068  -22.0881  -46.3818 C.3       11 UNK         0.1400 
     19 N          -0.2233  -21.6364  -45.4411 N.am      11 UNK        -0.5000 
     20 C          -1.1418  -22.4251  -44.8637 C.2       10 UNK         0.5000 
     21 O          -1.1778  -23.6486  -45.0010 O.2       10 UNK        -0.5000 
     22 CA         -2.2357  -21.7222  -44.0373 C.3       10 UNK         0.1400 
     23 CB         -1.7336  -21.3877  -42.6249 C.3       10 UNK        -0.1800 
     24 N          -2.7327  -20.5078  -44.6880 N.am      10 UNK        -0.5000 
     25 C          -3.4119  -20.4992  -45.8440 C.2       9 UNK         0.5000 
     26 O          -3.7480  -21.5173  -46.4464 O.2       9 UNK        -0.5000 
     27 CA         -3.7316  -19.1277  -46.4626 C.3       9 UNK         0.1400 
     28 CB         -4.9932  -18.5219  -45.8307 C.3       9 UNK        -0.1800 
     29 N          -2.6196  -18.1832  -46.3587 N.am      9 UNK        -0.5000 
     30 C          -1.4229  -18.3469  -46.9414 C.2       8 UNK         0.5000 
     31 O          -1.1452  -19.2933  -47.6731 O.2       8 UNK        -0.5000 
     32 CA         -0.3358  -17.3104  -46.6126 C.3       8 UNK         0.1400 
     33 CB         -0.5121  -16.0412  -47.4559 C.3       8 UNK        -0.1800 
     34 N          -0.3139  -16.9586  -45.1939 N.am      8 UNK        -0.5000 
     35 C          -0.0491  -17.8238  -44.2040 C.2       7 UNK         0.5000 
     36 O           0.2450  -19.0036  -44.3868 O.2       7 UNK        -0.5000 
     37 CA         -0.1870  -17.2946  -42.7688 C.3       7 UNK         0.1400 
     38 CB          1.0629  -16.5067  -42.3507 C.3       7 UNK        -0.1800 
     39 N          -1.3804  -16.4631  -42.6174 N.am      7 UNK        -0.5000 
     40 C          -2.6346  -16.9337  -42.6817 C.2       6 UNK         0.5000 
     41 O          -2.9123  -18.1252  -42.8209 O.2       6 UNK        -0.5000 
     42 CA         -3.7641  -15.8891  -42.6286 C.3       6 UNK         0.1400 
     43 CB         -4.0820  -15.5067  -41.1755 C.3       6 UNK        -0.1800 
     44 N          -3.4446  -14.6807  -43.3913 N.am      6 UNK        -0.5000 
     45 C          -3.3089  -14.6421  -44.7246 C.2       5 UNK         0.5000 
     46 O          -3.4695  -15.6178  -45.4552 O.2       5 UNK        -0.5000 
     47 CA         -2.8677  -13.3017  -45.3388 C.3       5 UNK         0.1400 
     48 CB         -4.0817  -12.4021  -45.6111 C.3       5 UNK        -0.1800 
     49 N          -1.9040  -12.5830  -44.5017 N.am      5 UNK        -0.5000 
     50 C          -0.6687  -13.0210  -44.2291 C.2       4 UNK         0.5000 
     51 O          -0.2112  -14.0860  -44.6525 O.2       4 UNK        -0.5000 
     52 CA          0.1744  -12.1475  -43.2905 C.3       4 UNK         0.1400 
     53 CB          0.1080  -12.6831  -41.8525 C.3       4 UNK        -0.1800 
     54 N           1.5623  -12.1492  -43.7381 N.am      4 UNK        -0.5000 
     55 C           2.1019  -11.2381  -44.5530 C.2       3 UNK         0.5000 
     56 O           1.5051  -10.2336  -44.9428 O.2       3 UNK        -0.5000 
     57 CA          3.5432  -11.4921  -45.0307 C.3       3 UNK         0.1400 
     58 CB          4.5725  -11.1878  -43.9250 C.3       3 UNK        -0.1800 
     59 N           3.7444  -12.8210  -45.6211 N.am      3 UNK        -0.5000 
     60 C           3.7450  -14.0271  -45.0343 C.2       2 UNK         0.5000 
     61 O           3.5770  -14.1978  -43.8258 O.2       2 UNK        -0.5000 
     62 CA          3.9320  -15.2396  -45.9704 C.3       2 UNK         0.1400 
     63 CB          3.4323  -16.5529  -45.3458 C.3       2 UNK        -0.1800 
     64 N           3.2266  -15.0234  -47.2342 N.am      2 UNK        -0.5000 
     65 C           3.7976  -14.6822  -48.3970 C.2       1 UNK         0.5000 
     66 O           5.0128  -14.5555  -48.5482 O.2       1 UNK        -0.5000 
     67 C           0.1727  -22.7157  -47.6384 C.2       11 UNK         0.5000 
     68 O           0.5447  -23.8223  -48.0257 O.2       11 UNK        -0.5000 
     69 N          -0.8074  -22.0145  -48.2229 N.am      12 UNK        -0.5000 
     70 CA         -1.5852  -22.4577  -49.3740 C.3       12 UNK         0.1400 
     71 CB         -2.5176  -21.3317  -49.8279 C.3       12 UNK        -0.1800 
     72 C          -2.3711  -23.7488  -49.1045 C.2       12 UNK         0.5000 
     73 O          -2.3386  -24.6452  -49.9429 O.2       12 UNK        -0.5000 
     74 N          -3.0112  -23.8517  -47.9317 N.am      13 UNK        -0.5000 
     75 CA         -3.7128  -25.0538  -47.4783 C.3       13 UNK         0.1400 
     76 CB         -4.4231  -24.7724  -46.1455 C.3       13 UNK        -0.1800 
     77 C          -2.7835  -26.2762  -47.3547 C.2       13 UNK         0.5000 
     78 O          -3.1533  -27.3630  -47.8002 O.2       13 UNK        -0.5000 
     79 N          -1.5805  -26.0691  -46.7994 N.am      14 UNK        -0.5000 
     80 CA         -0.5306  -27.0854  -46.6947 C.3       14 UNK         0.1400 
     81 CB          0.5820  -26.5772  -45.7652 C.3       14 UNK        -0.1800 
     82 C           0.0428  -27.5005  -48.0649 C.2       14 UNK         0.5000 
     83 O           0.3198  -28.6817  -48.2759 O.2       14 UNK        -0.5000 
     84 N           0.1854  -26.5298  -48.9767 N.am      15 UNK        -0.5000 
     85 CA          0.6516  -26.7187  -50.3530 C.3       15 UNK         0.1400 
     86 CB          1.1321  -25.3628  -50.8975 C.3       15 UNK        -0.1800 
     87 C          -0.4062  -27.3300  -51.2977 C.2       15 UNK         0.5000 
     88 O          -0.0583  -27.6955  -52.4213 O.2       15 UNK        -0.5000 
     89 N          -1.6659  -27.4096  -50.8434 N.am      16 UNK        -0.5000 
     90 CA         -2.8654  -27.8138  -51.5869 C.3       16 UNK         0.1400 
     91 CB         -2.7744  -29.2827  -52.0509 C.3       16 UNK        -0.1800 
     92 C          -3.2258  -26.8301  -52.7237 C.2       16 UNK         0.5000 
     93 O          -3.7270  -27.2416  -53.7722 O.2       16 UNK        -0.5000 
     94 N          -2.9732  -25.5408  -52.4774 N.am      17 UNK        -0.5000 
     95 CA         -3.3665  -24.4024  -53.3004 C.3       17 UNK         0.1400 
     96 CB         -2.1844  -23.4151  -53.3467 C.3       17 UNK        -0.1800 
     97 C          -4.6366  -23.7493  -52.7152 C.2       17 UNK         0.5000 
     98 O          -5.2354  -24.2797  -51.7754 O.2       17 UNK        -0.5000 
     99 N          -5.0414  -22.6099  -53.2916 N.am      18 UNK        -0.5000 
    100 CA        -6.1949  -21.8173  -52.8652 C.3       18 UNK         0.1400 
    101 CB        -6.4839  -20.7428  -53.9265 C.3       18 UNK        -0.1800 
    102 C         -5.9700  -21.1843  -51.4789 C.2       18 UNK         0.5000 
    103 O         -5.2527  -20.1856  -51.3700 O.2       18 UNK        -0.5000 
    104 N         -6.5924  -21.7673  -50.4459 N.am      19 UNK        -0.5000 
    105 CA        -6.5131  -21.3763  -49.0329 C.3       19 UNK         0.1400 
    106 CB        -6.9873  -22.5564  -48.1681 C.3       19 UNK        -0.1800 
    107 C         -7.2530  -20.0577  -48.7049 C.2       19 UNK         0.5000 
    108 O         -7.9972  -19.9804  -47.7268 O.2       19 UNK        -0.5000 
    109 N         -7.0196  -19.0399  -49.5348 N.am      20 UNK        -0.5000 
    110 CA        -7.5325  -17.6774  -49.4357 C.3       20 UNK         0.1400 
    111 CB        -8.7556  -17.5227  -50.3579 C.3       20 UNK        -0.1800 
    112 C         -6.3900  -16.7001  -49.7665 C.2       20 UNK         0.5000 
    113 O         -6.5764  -15.7571  -50.5357 O.2       20 UNK        -0.5000 
    114 N         -5.2108  -16.9865  -49.1944 N.am      21 UNK        -0.5000 
    115 CA        -3.9335  -16.2797  -49.3504 C.3       21 UNK         0.1400 
    116 CB        -4.0414  -14.8144  -48.8777 C.3       21 UNK        -0.1800 
    117 C         -3.2935  -16.4178  -50.7494 C.2       21 UNK         0.5000 
    118 O         -2.4128  -15.6220  -51.0786 O.2       21 UNK        -0.5000 
    119 N         -3.7174  -17.4410  -51.5107 N.am      22 UNK        -0.5000 
    120 CA        -3.2495  -17.8415  -52.8502 C.3       22 UNK         0.1400 
    121 C         -3.0052  -16.6735  -53.8552 C.2       22 UNK         0.5000 
    122 N         -1.8382  -16.5710  -54.4787 N.am      22 UNK        -0.7600 
    123 O         -3.9091  -15.8847  -54.1212 O.2       22 UNK        -0.5000 
    124 C124       -2.1569  -18.9510  -52.8102 C.3       23 UNK        -0.0398 
    125 S125       -0.6540  -18.5189  -51.8708 S.3       23 UNK        -0.2404 
    126 C126        0.3968  -19.9670  -52.2071 C.3       23 UNK        -0.0205 
    127 H127       -0.7166  -12.9669  -48.3669 H         1 UNK         0.0600 
    128 H128       -0.2626  -11.2827  -48.6470 H         1 UNK         0.0600 
    129 H129       -0.0297  -12.0076  -47.0538 H         1 UNK         0.0600 
    130 H130        0.7378  -14.3235  -49.3686 H         1 UNK         0.3000 
    131 H131        3.3270  -13.6357  -50.2032 H         1 UNK         0.0600 
    132 H132        1.7198  -15.5049  -51.0674 H         1 UNK         0.0800 
    133 H133        2.3579  -16.5119  -49.8067 H         1 UNK         0.0800 
    134 H134        5.5412  -17.8497  -51.4189 H         1 UNK         0.0800 
    135 H135        5.0375  -17.3094  -49.8357 H         1 UNK         0.0800 
    136 H136        2.3125  -18.0686  -52.2440 H         1 UNK         0.1150 
    137 H137        1.3233  -21.7839  -50.3811 H         1 UNK         0.1150 
    138 H138        4.9143  -19.7362  -49.2623 H         1 UNK         0.1150 
    139 H139        2.8521  -22.8743  -48.9313 H         1 UNK         0.0800 
    140 H140        4.5159  -22.3831  -49.0334 H         1 UNK         0.0800 
    141 H141        1.4527  -20.3631  -47.6096 H         1 UNK         0.0800 
    142 H142        1.8717  -20.2438  -45.9368 H         1 UNK         0.0800 
    143 H143        1.3591  -22.8767  -45.8662 H         1 UNK         0.0600 
    144 H144       -0.2339  -20.6435  -45.2230 H         1 UNK         0.3000 
    145 H145       -3.0737  -22.4155  -43.9406 H         1 UNK         0.0600 
    146 H146       -2.5259  -20.9459  -42.0204 H         1 UNK         0.0600 
    147 H147       -1.3930  -22.2866  -42.1098 H         1 UNK         0.0600 
    148 H148       -0.9001  -20.6859  -42.6457 H         1 UNK         0.0600 
    149 H149       -2.5348  -19.6263  -44.2271 H         1 UNK         0.3000 
    150 H150       -3.9286  -19.2869  -47.5241 H         1 UNK         0.0600 
    151 H151       -5.8427  -19.1994  -45.9252 H         1 UNK         0.0600 
    152 H152       -5.2690  -17.5833  -46.3110 H         1 UNK         0.0600 
    153 H153       -4.8527  -18.3205  -44.7687 H         1 UNK         0.0600 
    154 H154       -2.7897  -17.3396  -45.8165 H         1 UNK         0.3000 
    155 H155        0.6323  -17.7515  -46.8599 H         1 UNK         0.0600 
    156 H156       -1.4824  -15.5770  -47.2860 H         1 UNK         0.0600 
    157 H157       -0.4347  -16.2652  -48.5208 H         1 UNK         0.0600 
    158 H158        0.2502  -15.3042  -47.2105 H         1 UNK         0.0600 
    159 H159       -0.4993  -15.9879  -44.9585 H         1 UNK         0.3000 
    160 H160       -0.2837  -18.1543  -42.1022 H         1 UNK         0.0600 
    161 H161        1.2288  -15.6382  -42.9881 H         1 UNK         0.0600 
    162 H162        1.9549  -17.1308  -42.4169 H         1 UNK         0.0600 
    163 H163        0.9858  -16.1601  -41.3203 H         1 UNK         0.0600 
    164 H164       -1.2378  -15.4677  -42.5448 H         1 UNK         0.3000 
    165 H165       -4.6566  -16.3413  -43.0666 H         1 UNK         0.0600 
    166 H166       -4.9317  -14.8256  -41.1244 H         1 UNK         0.0600 
    167 H167       -4.3386  -16.3891  -40.5876 H         1 UNK         0.0600 
    168 H168       -3.2338  -15.0232  -40.6892 H         1 UNK         0.0600 
    169 H169       -3.2983  -13.8318  -42.8659 H         1 UNK         0.3000 
    170 H170       -2.3864  -13.5193  -46.2943 H         1 UNK         0.0600 
    171 H171       -4.8138  -12.9112  -46.2393 H         1 UNK         0.0600 
    172 H172       -4.5863  -12.1138  -44.6882 H         1 UNK         0.0600 
    173 H173       -3.7871  -11.4911  -46.1323 H         1 UNK         0.0600 
    174 H174       -2.2111  -11.7014  -44.1163 H         1 UNK         0.3000 
    175 H175       -0.2213  -11.1297  -43.2952 H         1 UNK         0.0600 
    176 H176       -0.9204  -12.7143  -41.4906 H         1 UNK         0.0600 
    177 H177        0.5165  -13.6899  -41.7744 H         1 UNK         0.0600 
    178 H178        0.6715  -12.0443  -41.1721 H         1 UNK         0.0600 
    179 H179        2.1116  -12.9790  -43.5325 H         1 UNK         0.3000 
    180 H180        3.7282  -10.7877  -45.8434 H         1 UNK         0.0600 
    181 H181        4.4419  -11.8278  -43.0522 H         1 UNK         0.0600 
    182 H182        4.4796  -10.1558  -43.5849 H         1 UNK         0.0600 
    183 H183        5.5916  -11.3196  -44.2885 H         1 UNK         0.0600 
    184 H184        3.8180  -12.8088  -46.6303 H         1 UNK         0.3000 
    185 H185        5.0047  -15.3427  -46.1447 H         1 UNK         0.0600 
    186 H186        3.9825  -16.7920  -44.4351 H         1 UNK         0.0600 
    187 H187        2.3786  -16.4856  -45.0852 H         1 UNK         0.0600 
    188 H188        3.5564  -17.3919  -46.0309 H         1 UNK         0.0600 
    189 H189        2.2190  -15.0440  -47.1863 H         1 UNK         0.3000 
    190 H190       -1.0202  -21.0822  -47.8720 H         1 UNK         0.3000 
    191 H191       -0.8835  -22.6614  -50.1836 H         1 UNK         0.0600 
    192 H192       -3.2251  -21.0584  -49.0488 H         1 UNK         0.0600 
    193 H193       -3.0879  -21.6287  -50.7070 H         1 UNK         0.0600 
    194 H194       -1.9549  -20.4358  -50.0830 H         1 UNK         0.0600 
    195 H195       -3.0399  -23.0455  -47.3128 H         1 UNK         0.3000 
    196 H196       -4.4735  -25.2894  -48.2256 H         1 UNK         0.0600 
    197 H197       -4.9875  -25.6443  -45.8129 H         1 UNK         0.0600 
    198 H198       -5.1267  -23.9459  -46.2375 H         1 UNK         0.0600 
    199 H199       -3.7155  -24.5190  -45.3563 H         1 UNK         0.0600 
    200 H200       -1.3637  -25.1481  -46.4318 H         1 UNK         0.3000 
    201 H201       -0.9706  -27.9745  -46.2383 H         1 UNK         0.0600 
    202 H202        0.1915  -26.3456  -44.7741 H         1 UNK         0.0600 
    203 H203        1.0551  -25.6758  -46.1551 H         1 UNK         0.0600 
    204 H204        1.3614  -27.3299  -45.6413 H         1 UNK         0.0600 
    205 H205        0.0033  -25.5714  -48.6916 H         1 UNK         0.3000 
    206 H206        1.5048  -27.3997  -50.3365 H         1 UNK         0.0600 
    207 H207        1.9155  -24.9392  -50.2689 H         1 UNK         0.0600 
    208 H208        1.5432  -25.4654  -51.9024 H         1 UNK         0.0600 
    209 H209        0.3169  -24.6411  -50.9498 H         1 UNK         0.0600 
    210 H210       -1.8398  -27.0371  -49.9189 H         1 UNK         0.3000 
    211 H211       -3.6870  -27.7511  -50.8718 H         1 UNK         0.0600 
    212 H212       -2.0277  -29.4182  -52.8334 H         1 UNK         0.0600 
    213 H213       -3.7296  -29.6238  -52.4515 H         1 UNK         0.0600 
    214 H214       -2.5172  -29.9423  -51.2221 H         1 UNK         0.0600 
    215 H215       -2.6460  -25.2976  -51.5426 H         1 UNK         0.3000 
    216 H216       -3.5920  -24.7305  -54.3169 H         1 UNK         0.0600 
    217 H217       -1.9632  -23.0047  -52.3624 H         1 UNK         0.0600 
    218 H218       -2.3830  -22.5785  -54.0168 H         1 UNK         0.0600 
    219 H219       -1.2805  -23.9056  -53.7089 H         1 UNK         0.0600 
    220 H220       -4.4995  -22.2297  -54.0531 H         1 UNK         0.3000 
    221 H221       -7.0645  -22.4758  -52.8124 H         1 UNK         0.0600 
    222 H222       -6.7428  -21.1953  -54.8839 H         1 UNK         0.0600 
    223 H223       -5.6258  -20.0897  -54.0872 H         1 UNK         0.0600 
    224 H224       -7.3236  -20.1140  -53.6275 H         1 UNK         0.0600 
    225 H225       -7.1459  -22.5905  -50.6359 H         1 UNK         0.3000 
    226 H226       -5.4641  -21.2053  -48.7918 H         1 UNK         0.0600 
    227 H227       -6.4100  -23.4560  -48.3821 H         1 UNK         0.0600 
    228 H228       -6.8623  -22.3388  -47.1065 H         1 UNK         0.0600 
    229 H229       -8.0403  -22.7829  -48.3386 H         1 UNK         0.0600 
    230 H230       -6.3879  -19.2245  -50.3110 H         1 UNK         0.3000 
    231 H231       -7.8402  -17.4679  -48.4091 H         1 UNK         0.0600 
    232 H232       -8.4947  -17.6989  -51.4022 H         1 UNK         0.0600 
    233 H233       -9.1774  -16.5196  -50.2859 H         1 UNK         0.0600 
    234 H234       -9.5433  -18.2257  -50.0866 H         1 UNK         0.0600 
    235 H235       -5.1838  -17.7959  -48.5938 H         1 UNK         0.3000 
    236 H236       -3.2429  -16.7796  -48.6737 H         1 UNK         0.0600 
    237 H237       -3.0579  -14.3484  -48.8124 H         1 UNK         0.0600 
    238 H238       -4.6411  -14.2107  -49.5589 H         1 UNK         0.0600 
    239 H239       -4.4937  -14.7548  -47.8885 H         1 UNK         0.0600 
    240 H240       -4.4344  -18.0416  -51.1309 H         1 UNK         0.3000 
    241 H241       -4.1229  -18.3343  -53.2779 H         1 UNK         0.0600 
    242 H242       -1.6978  -15.8246  -55.1413 H         1 UNK         0.3800 
    243 H243       -1.0711  -17.1808  -54.2429 H         1 UNK         0.3800 
    244 H244       -1.8771  -19.2529  -53.8207 H         1 UNK         0.0800 
    245 H245       -2.5843  -19.8448  -52.3559 H         1 UNK         0.0800 
    246 H246       -0.1652  -20.8763  -51.9897 H         1 UNK         0.0800 
    247 H247        0.6478  -19.9976  -53.2682 H         1 UNK         0.0800 
@<TRIPOS>BOND
     1    1    2 1    
     2    1  127 1    
     3    1  128 1    
     4    1  129 1    
     5    2    3 2    
     6    2    4 am   BACKBONE|DICT|INTERRES
     7    4    5 1    
     8    4  130 1    
     9    5    6 1    
    10    5   65 1    
    11    5  131 1    
    12    6    7 1    
    13    6  132 1    
    14    6  133 1    
    15    7    8 1    
    16    8    9 1    
    17    8  134 1    
    18    8  135 1    
    19    9   10 ar   
    20    9   14 ar   
    21   10   11 ar   
    22   10  136 1    
    23   11   12 ar   
    24   11  126 1    
    25   12   13 ar   
    26   12  137 1    
    27   13   14 ar   
    28   13   15 1    
    29   14  138 1    
    30   15   16 1    
    31   15  139 1    
    32   15  140 1    
    33   16   17 1    
    34   17   18 1    
    35   17  141 1    
    36   17  142 1    
    37   18   19 1    
    38   18   67 1    
    39   18  143 1    
    40   19   20 am   BACKBONE|DICT|INTERRES
    41   19  144 1    
    42   20   21 2    
    43   20   22 1    
    44   22   23 1    
    45   22   24 1    
    46   22  145 1    
    47   23  146 1    
    48   23  147 1    
    49   23  148 1    
    50   24   25 am   BACKBONE|DICT|INTERRES
    51   24  149 1    
    52   25   26 2    
    53   25   27 1    
    54   27   28 1    
    55   27   29 1    
    56   27  150 1    
    57   28  151 1    
    58   28  152 1    
    59   28  153 1    
    60   29   30 am   BACKBONE|DICT|INTERRES
    61   29  154 1    
    62   30   31 2    
    63   30   32 1    
    64   32   33 1    
    65   32   34 1    
    66   32  155 1    
    67   33  156 1    
    68   33  157 1    
    69   33  158 1    
    70   34   35 am   BACKBONE|DICT|INTERRES
    71   34  159 1    
    72   35   36 2    
    73   35   37 1    
    74   37   38 1    
    75   37   39 1    
    76   37  160 1    
    77   38  161 1    
    78   38  162 1    
    79   38  163 1    
    80   39   40 am   BACKBONE|DICT|INTERRES
    81   39  164 1    
    82   40   41 2    
    83   40   42 1    
    84   42   43 1    
    85   42   44 1    
    86   42  165 1    
    87   43  166 1    
    88   43  167 1    
    89   43  168 1    
    90   44   45 am   BACKBONE|DICT|INTERRES
    91   44  169 1    
    92   45   46 2    
    93   45   47 1    
    94   47   48 1    
    95   47   49 1    
    96   47  170 1    
    97   48  171 1    
    98   48  172 1    
    99   48  173 1    
   100   49   50 am   BACKBONE|DICT|INTERRES
   101   49  174 1    
   102   50   51 2    
   103   50   52 1    
   104   52   53 1    
   105   52   54 1    
   106   52  175 1    
   107   53  176 1    
   108   53  177 1    
   109   53  178 1    
   110   54   55 am   BACKBONE|DICT|INTERRES
   111   54  179 1    
   112   55   56 2    
   113   55   57 1    
   114   57   58 1    
   115   57   59 1    
   116   57  180 1    
   117   58  181 1    
   118   58  182 1    
   119   58  183 1    
   120   59   60 am   BACKBONE|DICT|INTERRES
   121   59  184 1    
   122   60   61 2    
   123   60   62 1    
   124   62   63 1    
   125   62   64 1    
   126   62  185 1    
   127   63  186 1    
   128   63  187 1    
   129   63  188 1    
   130   64   65 am   BACKBONE|DICT|INTERRES
   131   64  189 1    
   132   65   66 2    
   133   67   68 2    
   134   67   69 am   BACKBONE|DICT|INTERRES
   135   69   70 1    
   136   69  190 1    
   137   70   71 1    
   138   70   72 1    
   139   70  191 1    
   140   71  192 1    
   141   71  193 1    
   142   71  194 1    
   143   72   73 2    
   144   72   74 am   BACKBONE|DICT|INTERRES
   145   74   75 1    
   146   74  195 1    
   147   75   76 1    
   148   75   77 1    
   149   75  196 1    
   150   76  197 1    
   151   76  198 1    
   152   76  199 1    
   153   77   78 2    
   154   77   79 am   BACKBONE|DICT|INTERRES
   155   79   80 1    
   156   79  200 1    
   157   80   81 1    
   158   80   82 1    
   159   80  201 1    
   160   81  202 1    
   161   81  203 1    
   162   81  204 1    
   163   82   83 2    
   164   82   84 am   BACKBONE|DICT|INTERRES
   165   84   85 1    
   166   84  205 1    
   167   85   86 1    
   168   85   87 1    
   169   85  206 1    
   170   86  207 1    
   171   86  208 1    
   172   86  209 1    
   173   87   88 2    
   174   87   89 am   BACKBONE|DICT|INTERRES
   175   89   90 1    
   176   89  210 1    
   177   90   91 1    
   178   90   92 1    
   179   90  211 1    
   180   91  212 1    
   181   91  213 1    
   182   91  214 1    
   183   92   93 2    
   184   92   94 am   BACKBONE|DICT|INTERRES
   185   94   95 1    
   186   94  215 1    
   187   95   96 1    
   188   95   97 1    
   189   95  216 1    
   190   96  217 1    
   191   96  218 1    
   192   96  219 1    
   193   97   98 2    
   194   97   99 am   BACKBONE|DICT|INTERRES
   195   99  100 1    
   196   99  220 1    
   197  100  101 1    
   198  100  102 1    
   199  100  221 1    
   200  101  222 1    
   201  101  223 1    
   202  101  224 1    
   203  102  103 2    
   204  102  104 am   BACKBONE|DICT|INTERRES
   205  104  105 1    
   206  104  225 1    
   207  105  106 1    
   208  105  107 1    
   209  105  226 1    
   210  106  227 1    
   211  106  228 1    
   212  106  229 1    
   213  107  108 2    
   214  107  109 am   BACKBONE|DICT|INTERRES
   215  109  110 1    
   216  109  230 1    
   217  110  111 1    
   218  110  112 1    
   219  110  231 1    
   220  111  232 1    
   221  111  233 1    
   222  111  234 1    
   223  112  113 2    
   224  112  114 am   BACKBONE|DICT|INTERRES
   225  114  115 1    
   226  114  235 1    
   227  115  116 1    
   228  115  117 1    
   229  115  236 1    
   230  116  237 1    
   231  116  238 1    
   232  116  239 1    
   233  117  118 2    
   234  117  119 am   BACKBONE|DICT|INTERRES
   235  119  120 1    
   236  119  240 1    
   237  120  121 1    
   238  120  124 1    
   239  120  241 1    
   240  121  122 am   BACKBONE|DICT|INTERRES
   241  121  123 2    
   242  122  242 1    
   243  122  243 1    
   244  124  125 1    
   245  124  244 1    
   246  124  245 1    
   247  125  126 1    
   248  126  246 1    
   249  126  247 1    
@<TRIPOS>SUBSTRUCTURE
     1 UNK         1 GROUP             0       ****    0 ROOT    
