@<TRIPOS>MOLECULE
3R540
247   249    1
SMALL
USER_CHARGES


@<TRIPOS>ATOM
      1 CA         -2.5101  -10.5722  -46.8014 C.3       0 UNK        -0.1800 
      2 C          -1.2243  -10.5364  -47.6158 C.2       0 UNK         0.5000 
      3 O          -0.8396   -9.4769  -48.1116 O.2       0 UNK        -0.5000 
      4 N          -0.5667  -11.6930  -47.7602 N.am      1 UNK        -0.5000 
      5 CA          0.7251  -11.8514  -48.4358 C.3       1 UNK         0.1400 
      6 C6          0.9700  -13.3391  -48.7964 C.3       23 UNK        -0.0398 
      7 S7          2.0461  -13.5484  -50.2553 S.3       23 UNK        -0.2404 
      8 C8          3.0596  -14.9898  -49.7670 C.3       23 UNK        -0.0205 
      9 C9          2.3715  -16.3586  -49.8102 C.ar      23 UNK        -0.0193 
     10 C10         1.0276  -16.5373  -50.1645 C.ar      23 UNK        -0.1150 
     11 C11         0.4617  -17.8134  -50.2043 C.ar      23 UNK        -0.0193 
     12 C12         1.2489  -18.9264  -49.9020 C.ar      23 UNK        -0.1150 
     13 C13         2.5935  -18.7746  -49.5390 C.ar      23 UNK        -0.0193 
     14 C14         3.1364  -17.4862  -49.4945 C.ar      23 UNK        -0.1150 
     15 C15         3.5122  -19.9564  -49.2111 C.3       23 UNK        -0.0205 
     16 S16         2.7010  -21.5721  -48.9418 S.3       23 UNK        -0.2404 
     17 C17         1.7830  -21.2330  -47.4032 C.3       23 UNK        -0.0398 
     18 CA          0.9415  -22.4128  -46.8596 C.3       11 UNK         0.1400 
     19 N           0.2795  -22.0282  -45.6127 N.am      11 UNK        -0.5000 
     20 C          -0.4159  -22.8386  -44.8059 C.2       10 UNK         0.5000 
     21 O          -0.5350  -24.0499  -44.9868 O.2       10 UNK        -0.5000 
     22 CA         -1.1375  -22.1685  -43.6219 C.3       10 UNK         0.1400 
     23 CB         -0.1630  -21.9143  -42.4626 C.3       10 UNK        -0.1800 
     24 N          -1.7976  -20.9149  -43.9983 N.am      10 UNK        -0.5000 
     25 C          -2.8147  -20.8320  -44.8691 C.2       9 UNK         0.5000 
     26 O          -3.3214  -21.8090  -45.4172 O.2       9 UNK        -0.5000 
     27 CA         -3.3337  -19.4270  -45.2206 C.3       9 UNK         0.1400 
     28 CB         -4.2642  -18.8957  -44.1209 C.3       9 UNK        -0.1800 
     29 N          -2.2560  -18.4697  -45.4603 N.am      9 UNK        -0.5000 
     30 C          -1.3683  -18.5556  -46.4614 C.2       8 UNK         0.5000 
     31 O          -1.3833  -19.4389  -47.3187 O.2       8 UNK        -0.5000 
     32 CA         -0.2410  -17.5074  -46.4681 C.3       8 UNK         0.1400 
     33 CB         -0.7570  -16.1527  -46.9725 C.3       8 UNK        -0.1800 
     34 N           0.3620  -17.3305  -45.1469 N.am      8 UNK        -0.5000 
     35 C           0.9735  -18.2976  -44.4483 C.2       7 UNK         0.5000 
     36 O           1.1400  -19.4434  -44.8608 O.2       7 UNK        -0.5000 
     37 CA          1.4334  -17.9395  -43.0280 C.3       7 UNK         0.1400 
     38 CB          2.7806  -17.2101  -43.0672 C.3       7 UNK        -0.1800 
     39 N           0.4445  -17.1199  -42.3301 N.am      7 UNK        -0.5000 
     40 C          -0.7469  -17.5729  -41.9148 C.2       6 UNK         0.5000 
     41 O          -1.1230  -18.7374  -42.0506 O.2       6 UNK        -0.5000 
     42 CA         -1.6919  -16.5362  -41.2822 C.3       6 UNK         0.1400 
     43 CB         -1.3226  -16.2869  -39.8122 C.3       6 UNK        -0.1800 
     44 N          -1.6920  -15.2649  -42.0076 N.am      6 UNK        -0.5000 
     45 C          -2.1480  -15.1122  -43.2585 C.2       5 UNK         0.5000 
     46 O          -2.6367  -16.0244  -43.9239 O.2       5 UNK        -0.5000 
     47 CA         -2.0008  -13.7146  -43.8860 C.3       5 UNK         0.1400 
     48 CB         -3.2135  -12.8393  -43.5365 C.3       5 UNK        -0.1800 
     49 N          -0.7719  -13.0151  -43.5002 N.am      5 UNK        -0.5000 
     50 C           0.4710  -13.4432  -43.7583 C.2       4 UNK         0.5000 
     51 O           0.7227  -14.5304  -44.2850 O.2       4 UNK        -0.5000 
     52 CA          1.6041  -12.4832  -43.3594 C.3       4 UNK         0.1400 
     53 CB          1.9155  -12.5536  -41.8509 C.3       4 UNK        -0.1800 
     54 N           2.7747  -12.6748  -44.2219 N.am      4 UNK        -0.5000 
     55 C           3.8133  -13.5167  -44.1022 C.2       3 UNK         0.5000 
     56 O           4.0848  -14.1484  -43.0816 O.2       3 UNK        -0.5000 
     57 CA          4.7107  -13.7077  -45.3464 C.3       3 UNK         0.1400 
     58 CB          4.5302  -15.1260  -45.9153 C.3       3 UNK        -0.1800 
     59 N           4.4451  -12.7468  -46.4195 N.am      3 UNK        -0.5000 
     60 C           4.8122  -11.4582  -46.4190 C.2       2 UNK         0.5000 
     61 O           5.5102  -10.9475  -45.5428 O.2       2 UNK        -0.5000 
     62 CA          4.2807  -10.5848  -47.5767 C.3       2 UNK         0.1400 
     63 CB          5.3571  -10.4209  -48.6604 C.3       2 UNK        -0.1800 
     64 N           3.0510  -11.0887  -48.2037 N.am      2 UNK        -0.5000 
     65 C           1.8778  -11.2737  -47.5825 C.2       1 UNK         0.5000 
     66 O           1.7106  -11.0565  -46.3800 O.2       1 UNK        -0.5000 
     67 C          -0.0753  -22.9591  -47.8858 C.2       11 UNK         0.5000 
     68 O           0.1381  -24.0412  -48.4341 O.2       11 UNK        -0.5000 
     69 N          -1.1892  -22.2384  -48.0798 N.am      12 UNK        -0.5000 
     70 CA         -2.2967  -22.6587  -48.9358 C.3       12 UNK         0.1400 
     71 CB         -3.3188  -21.5253  -49.0510 C.3       12 UNK        -0.1800 
     72 C          -2.9726  -23.9536  -48.4530 C.2       12 UNK         0.5000 
     73 O          -3.2376  -24.8307  -49.2723 O.2       12 UNK        -0.5000 
     74 N          -3.1972  -24.0781  -47.1374 N.am      13 UNK        -0.5000 
     75 CA         -3.7521  -25.2746  -46.5028 C.3       13 UNK         0.1400 
     76 CB         -4.0373  -24.9980  -45.0194 C.3       13 UNK        -0.1800 
     77 C          -2.8493  -26.5104  -46.6680 C.2       13 UNK         0.5000 
     78 O          -3.3579  -27.5903  -46.9682 O.2       13 UNK        -0.5000 
     79 N          -1.5287  -26.3249  -46.5269 N.am      14 UNK        -0.5000 
     80 CA         -0.5129  -27.3523  -46.7719 C.3       14 UNK         0.1400 
     81 CB          0.8550  -26.8487  -46.2875 C.3       14 UNK        -0.1800 
     82 C          -0.4463  -27.7904  -48.2488 C.2       14 UNK         0.5000 
     83 O          -0.2335  -28.9719  -48.5230 O.2       14 UNK        -0.5000 
     84 N          -0.6690  -26.8426  -49.1694 N.am      15 UNK        -0.5000 
     85 CA         -0.7888  -27.0787  -50.6104 C.3       15 UNK         0.1400 
     86 CB         -0.5351  -25.7547  -51.3508 C.3       15 UNK        -0.1800 
     87 C          -2.1497  -27.6799  -51.0280 C.2       15 UNK         0.5000 
     88 O          -2.2917  -28.0839  -52.1829 O.2       15 UNK        -0.5000 
     89 N          -3.1182  -27.7172  -50.0991 N.am      16 UNK        -0.5000 
     90 CA         -4.5178  -28.1223  -50.2678 C.3       16 UNK         0.1400 
     91 CB         -4.6224  -29.6259  -50.5977 C.3       16 UNK        -0.1800 
     92 C          -5.2771  -27.2194  -51.2644 C.2       16 UNK         0.5000 
     93 O          -6.0515  -27.7121  -52.0876 O.2       16 UNK        -0.5000 
     94 N          -5.0250  -25.9097  -51.1735 N.am      17 UNK        -0.5000 
     95 CA         -5.5681  -24.8651  -52.0341 C.3       17 UNK         0.1400 
     96 CB         -4.3986  -24.2583  -52.8256 C.3       17 UNK        -0.1800 
     97 C          -6.2631  -23.7792  -51.1961 C.2       17 UNK         0.5000 
     98 O          -6.1524  -23.7642  -49.9676 O.2       17 UNK        -0.5000 
     99 N          -6.9556  -22.8665  -51.8876 N.am      18 UNK        -0.5000 
    100 CA        -7.5036  -21.6383  -51.3134 C.3       18 UNK         0.1400 
    101 CB        -8.5363  -21.0541  -52.2899 C.3       18 UNK        -0.1800 
    102 C         -6.3871  -20.6118  -51.0515 C.2       18 UNK         0.5000 
    103 O         -5.3825  -20.6044  -51.7684 O.2       18 UNK        -0.5000 
    104 N         -6.6016  -19.7219  -50.0739 N.am      19 UNK        -0.5000 
    105 CA        -5.6549  -18.6731  -49.6701 C.3       19 UNK         0.1400 
    106 CB        -6.1723  -17.9907  -48.3947 C.3       19 UNK        -0.1800 
    107 C         -5.3454  -17.6298  -50.7640 C.2       19 UNK         0.5000 
    108 O         -4.3055  -16.9773  -50.6939 O.2       19 UNK        -0.5000 
    109 N         -6.2398  -17.4981  -51.7522 N.am      20 UNK        -0.5000 
    110 CA        -6.0494  -16.6639  -52.9390 C.3       20 UNK         0.1400 
    111 CB        -7.4258  -16.1738  -53.4162 C.3       20 UNK        -0.1800 
    112 C         -5.3217  -17.4030  -54.0817 C.2       20 UNK         0.5000 
    113 O         -4.8100  -16.7424  -54.9866 O.2       20 UNK        -0.5000 
    114 N         -5.3110  -18.7432  -54.0470 N.am      21 UNK        -0.5000 
    115 CA        -4.7106  -19.5983  -55.0719 C.3       21 UNK         0.1400 
    116 CB        -5.5845  -20.8483  -55.2635 C.3       21 UNK        -0.1800 
    117 C         -3.2707  -19.9930  -54.7068 C.2       21 UNK         0.5000 
    118 O         -2.4055  -19.9953  -55.5824 O.2       21 UNK        -0.5000 
    119 N         -3.0458  -20.3131  -53.4254 N.am      22 UNK        -0.5000 
    120 CA        -1.7468  -20.6417  -52.8058 C.3       22 UNK         0.1400 
    121 C         -1.1238  -22.0112  -53.2133 C.2       22 UNK         0.5000 
    122 N         -1.7347  -22.7967  -54.0899 N.am      22 UNK        -0.7600 
    123 O         -0.0744  -22.3841  -52.6983 O.2       22 UNK        -0.5000 
    124 C124       -0.6966  -19.4988  -52.9159 C.3       23 UNK        -0.0398 
    125 S125       -1.3135  -17.8802  -52.3428 S.3       23 UNK        -0.2404 
    126 C126       -1.0091  -17.9831  -50.5533 C.3       23 UNK        -0.0205 
    127 H127       -2.3864  -10.0013  -45.8811 H         1 UNK         0.0600 
    128 H128       -2.7929  -11.5912  -46.5363 H         1 UNK         0.0600 
    129 H129       -3.3287  -10.1316  -47.3705 H         1 UNK         0.0600 
    130 H130       -0.9254  -12.5179  -47.3036 H         1 UNK         0.3000 
    131 H131        0.6751  -11.2714  -49.3602 H         1 UNK         0.0600 
    132 H132        1.3763  -13.8886  -47.9459 H         1 UNK         0.0800 
    133 H133        0.0236  -13.8231  -49.0412 H         1 UNK         0.0800 
    134 H134        3.4625  -14.8223  -48.7682 H         1 UNK         0.0800 
    135 H135        3.9193  -15.0246  -50.4376 H         1 UNK         0.0800 
    136 H136        0.4046  -15.6949  -50.4218 H         1 UNK         0.1150 
    137 H137        0.8000  -19.9075  -49.9506 H         1 UNK         0.1150 
    138 H138        4.1756  -17.3599  -49.2234 H         1 UNK         0.1150 
    139 H139        4.2222  -20.0697  -50.0312 H         1 UNK         0.0800 
    140 H140        4.1032  -19.7186  -48.3251 H         1 UNK         0.0800 
    141 H141        1.1446  -20.3636  -47.5573 H         1 UNK         0.0800 
    142 H142        2.5120  -20.9347  -46.6486 H         1 UNK         0.0800 
    143 H143        1.6268  -23.2284  -46.6198 H         1 UNK         0.0600 
    144 H144        0.3667  -21.0484  -45.3518 H         1 UNK         0.3000 
    145 H145       -1.9076  -22.8579  -43.2704 H         1 UNK         0.0600 
    146 H146       -0.6833  -21.5158  -41.5914 H         1 UNK         0.0600 
    147 H147        0.3272  -22.8385  -42.1544 H         1 UNK         0.0600 
    148 H148        0.6168  -21.2046  -42.7394 H         1 UNK         0.0600 
    149 H149       -1.4595  -20.0688  -43.5514 H         1 UNK         0.3000 
    150 H150       -3.9136  -19.5098  -46.1423 H         1 UNK         0.0600 
    151 H151       -5.0809  -19.5926  -43.9286 H         1 UNK         0.0600 
    152 H152       -4.7100  -17.9438  -44.4100 H         1 UNK         0.0600 
    153 H153       -3.7318  -18.7431  -43.1814 H         1 UNK         0.0600 
    154 H154       -2.1989  -17.6831  -44.8194 H         1 UNK         0.3000 
    155 H155        0.5427  -17.8525  -47.1452 H         1 UNK         0.0600 
    156 H156       -1.6002  -15.7938  -46.3839 H         1 UNK         0.0600 
    157 H157        0.0253  -15.3986  -46.9239 H         1 UNK         0.0600 
    158 H158       -1.0889  -16.2188  -48.0074 H         1 UNK         0.0600 
    159 H159        0.3151  -16.3990  -44.7445 H         1 UNK         0.3000 
    160 H160        1.5651  -18.8678  -42.4683 H         1 UNK         0.0600 
    161 H161        3.5519  -17.8383  -43.5143 H         1 UNK         0.0600 
    162 H162        2.7163  -16.3001  -43.6618 H         1 UNK         0.0600 
    163 H163        3.1182  -16.9372  -42.0673 H         1 UNK         0.0600 
    164 H164        0.6537  -16.1371  -42.2360 H         1 UNK         0.3000 
    165 H165       -2.7039  -16.9457  -41.3152 H         1 UNK         0.0600 
    166 H166       -2.0362  -15.6148  -39.3353 H         1 UNK         0.0600 
    167 H167       -1.3274  -17.2192  -39.2459 H         1 UNK         0.0600 
    168 H168       -0.3292  -15.8475  -39.7132 H         1 UNK         0.0600 
    169 H169       -1.3034  -14.4632  -41.5336 H         1 UNK         0.3000 
    170 H170       -1.9778  -13.8429  -44.9697 H         1 UNK         0.0600 
    171 H171       -4.1426  -13.3161  -43.8520 H         1 UNK         0.0600 
    172 H172       -3.2848  -12.6598  -42.4631 H         1 UNK         0.0600 
    173 H173       -3.1617  -11.8713  -44.0346 H         1 UNK         0.0600 
    174 H174       -0.8935  -12.1167  -43.0552 H         1 UNK         0.3000 
    175 H175        1.2605  -11.4704  -43.5758 H         1 UNK         0.0600 
    176 H176        2.1184  -13.5733  -41.5223 H         1 UNK         0.0600 
    177 H177        2.7761  -11.9360  -41.5938 H         1 UNK         0.0600 
    178 H178        1.0705  -12.1920  -41.2642 H         1 UNK         0.0600 
    179 H179        2.6744  -12.2021  -45.1143 H         1 UNK         0.3000 
    180 H180        5.7483  -13.5938  -45.0259 H         1 UNK         0.0600 
    181 H181        3.4976  -15.3113  -46.2156 H         1 UNK         0.0600 
    182 H182        4.7937  -15.8806  -45.1732 H         1 UNK         0.0600 
    183 H183        5.1701  -15.2912  -46.7822 H         1 UNK         0.0600 
    184 H184        3.8830  -13.0746  -47.1891 H         1 UNK         0.3000 
    185 H185        4.0587   -9.5996  -47.1617 H         1 UNK         0.0600 
    186 H186        5.0330   -9.7289  -49.4379 H         1 UNK         0.0600 
    187 H187        6.2807  -10.0223  -48.2382 H         1 UNK         0.0600 
    188 H188        5.5972  -11.3730  -49.1355 H         1 UNK         0.0600 
    189 H189        3.1152  -11.3136  -49.1872 H         1 UNK         0.3000 
    190 H190       -1.2886  -21.3395  -47.6153 H         1 UNK         0.3000 
    191 H191       -1.8911  -22.8485  -49.9317 H         1 UNK         0.0600 
    192 H192       -3.7414  -21.2578  -48.0825 H         1 UNK         0.0600 
    193 H193       -4.1420  -21.8223  -49.6985 H         1 UNK         0.0600 
    194 H194       -2.8685  -20.6320  -49.4799 H         1 UNK         0.0600 
    195 H195       -3.0081  -23.2859  -46.5281 H         1 UNK         0.3000 
    196 H196       -4.7029  -25.4934  -46.9935 H         1 UNK         0.0600 
    197 H197       -4.4711  -25.8737  -44.5351 H         1 UNK         0.0600 
    198 H198       -4.7450  -24.1774  -44.9011 H         1 UNK         0.0600 
    199 H199       -3.1295  -24.7378  -44.4755 H         1 UNK         0.0600 
    200 H200       -1.1919  -25.4137  -46.2277 H         1 UNK         0.3000 
    201 H201       -0.7787  -28.2304  -46.1797 H         1 UNK         0.0600 
    202 H202        0.8321  -26.6089  -45.2243 H         1 UNK         0.0600 
    203 H203        1.1688  -25.9533  -46.8243 H         1 UNK         0.0600 
    204 H204        1.6251  -27.6069  -46.4342 H         1 UNK         0.0600 
    205 H205       -0.7729  -25.8818  -48.8599 H         1 UNK         0.3000 
    206 H206       -0.0141  -27.7873  -50.9102 H         1 UNK         0.0600 
    207 H207        0.4344  -25.3316  -51.0871 H         1 UNK         0.0600 
    208 H208       -0.5418  -25.9011  -52.4314 H         1 UNK         0.0600 
    209 H209       -1.2963  -25.0096  -51.1201 H         1 UNK         0.0600 
    210 H210       -2.8940  -27.3356  -49.1893 H         1 UNK         0.3000 
    211 H211       -4.9943  -27.9669  -49.2990 H         1 UNK         0.0600 
    212 H212       -4.2181  -29.8559  -51.5837 H         1 UNK         0.0600 
    213 H213       -5.6618  -29.9557  -50.5865 H         1 UNK         0.0600 
    214 H214       -4.0841  -30.2273  -49.8651 H         1 UNK         0.0600 
    215 H215       -4.4082  -25.5749  -50.4334 H         1 UNK         0.3000 
    216 H216       -6.3005  -25.2776  -52.7307 H         1 UNK         0.0600 
    217 H217       -4.7428  -23.5048  -53.5334 H         1 UNK         0.0600 
    218 H218       -3.8712  -25.0223  -53.3974 H         1 UNK         0.0600 
    219 H219       -3.6754  -23.7815  -52.1620 H         1 UNK         0.0600 
    220 H220       -6.9832  -22.9367  -52.8936 H         1 UNK         0.3000 
    221 H221       -7.9999  -21.8755  -50.3700 H         1 UNK         0.0600 
    222 H222       -8.0842  -20.7874  -53.2463 H         1 UNK         0.0600 
    223 H223       -9.3385  -21.7657  -52.4863 H         1 UNK         0.0600 
    224 H224       -8.9973  -20.1535  -51.8825 H         1 UNK         0.0600 
    225 H225       -7.4589  -19.7762  -49.5426 H         1 UNK         0.3000 
    226 H226       -4.7085  -19.1555  -49.4262 H         1 UNK         0.0600 
    227 H227       -6.2913  -18.7090  -47.5832 H         1 UNK         0.0600 
    228 H228       -5.4738  -17.2275  -48.0484 H         1 UNK         0.0600 
    229 H229       -7.1347  -17.5052  -48.5607 H         1 UNK         0.0600 
    230 H230       -7.0838  -18.0494  -51.7129 H         1 UNK         0.3000 
    231 H231       -5.4504  -15.7886  -52.6782 H         1 UNK         0.0600 
    232 H232       -7.3293  -15.5216  -54.2853 H         1 UNK         0.0600 
    233 H233       -7.9323  -15.6024  -52.6381 H         1 UNK         0.0600 
    234 H234       -8.0737  -17.0043  -53.6995 H         1 UNK         0.0600 
    235 H235       -5.6666  -19.2141  -53.2250 H         1 UNK         0.3000 
    236 H236       -4.6792  -19.0675  -56.0258 H         1 UNK         0.0600 
    237 H237       -6.5882  -20.5779  -55.5916 H         1 UNK         0.0600 
    238 H238       -5.1619  -21.5088  -56.0217 H         1 UNK         0.0600 
    239 H239       -5.6789  -21.4225  -54.3425 H         1 UNK         0.0600 
    240 H240       -3.8418  -20.3341  -52.7931 H         1 UNK         0.3000 
    241 H241       -1.9765  -20.7609  -51.7475 H         1 UNK         0.0600 
    242 H242       -2.5781  -22.4917  -54.5456 H         1 UNK         0.3800 
    243 H243       -1.3171  -23.6793  -54.3363 H         1 UNK         0.3800 
    244 H244        0.2063  -19.7474  -52.3579 H         1 UNK         0.0800 
    245 H245       -0.3745  -19.3824  -53.9514 H         1 UNK         0.0800 
    246 H246       -1.5914  -17.2026  -50.0635 H         1 UNK         0.0800 
    247 H247       -1.3911  -18.9272  -50.1651 H         1 UNK         0.0800 
@<TRIPOS>BOND
     1    1    2 1    
     2    1  127 1    
     3    1  128 1    
     4    1  129 1    
     5    2    3 2    
     6    2    4 am   BACKBONE|DICT|INTERRES
     7    4    5 1    
     8    4  130 1    
     9    5    6 1    
    10    5   65 1    
    11    5  131 1    
    12    6    7 1    
    13    6  132 1    
    14    6  133 1    
    15    7    8 1    
    16    8    9 1    
    17    8  134 1    
    18    8  135 1    
    19    9   10 ar   
    20    9   14 ar   
    21   10   11 ar   
    22   10  136 1    
    23   11   12 ar   
    24   11  126 1    
    25   12   13 ar   
    26   12  137 1    
    27   13   14 ar   
    28   13   15 1    
    29   14  138 1    
    30   15   16 1    
    31   15  139 1    
    32   15  140 1    
    33   16   17 1    
    34   17   18 1    
    35   17  141 1    
    36   17  142 1    
    37   18   19 1    
    38   18   67 1    
    39   18  143 1    
    40   19   20 am   BACKBONE|DICT|INTERRES
    41   19  144 1    
    42   20   21 2    
    43   20   22 1    
    44   22   23 1    
    45   22   24 1    
    46   22  145 1    
    47   23  146 1    
    48   23  147 1    
    49   23  148 1    
    50   24   25 am   BACKBONE|DICT|INTERRES
    51   24  149 1    
    52   25   26 2    
    53   25   27 1    
    54   27   28 1    
    55   27   29 1    
    56   27  150 1    
    57   28  151 1    
    58   28  152 1    
    59   28  153 1    
    60   29   30 am   BACKBONE|DICT|INTERRES
    61   29  154 1    
    62   30   31 2    
    63   30   32 1    
    64   32   33 1    
    65   32   34 1    
    66   32  155 1    
    67   33  156 1    
    68   33  157 1    
    69   33  158 1    
    70   34   35 am   BACKBONE|DICT|INTERRES
    71   34  159 1    
    72   35   36 2    
    73   35   37 1    
    74   37   38 1    
    75   37   39 1    
    76   37  160 1    
    77   38  161 1    
    78   38  162 1    
    79   38  163 1    
    80   39   40 am   BACKBONE|DICT|INTERRES
    81   39  164 1    
    82   40   41 2    
    83   40   42 1    
    84   42   43 1    
    85   42   44 1    
    86   42  165 1    
    87   43  166 1    
    88   43  167 1    
    89   43  168 1    
    90   44   45 am   BACKBONE|DICT|INTERRES
    91   44  169 1    
    92   45   46 2    
    93   45   47 1    
    94   47   48 1    
    95   47   49 1    
    96   47  170 1    
    97   48  171 1    
    98   48  172 1    
    99   48  173 1    
   100   49   50 am   BACKBONE|DICT|INTERRES
   101   49  174 1    
   102   50   51 2    
   103   50   52 1    
   104   52   53 1    
   105   52   54 1    
   106   52  175 1    
   107   53  176 1    
   108   53  177 1    
   109   53  178 1    
   110   54   55 am   BACKBONE|DICT|INTERRES
   111   54  179 1    
   112   55   56 2    
   113   55   57 1    
   114   57   58 1    
   115   57   59 1    
   116   57  180 1    
   117   58  181 1    
   118   58  182 1    
   119   58  183 1    
   120   59   60 am   BACKBONE|DICT|INTERRES
   121   59  184 1    
   122   60   61 2    
   123   60   62 1    
   124   62   63 1    
   125   62   64 1    
   126   62  185 1    
   127   63  186 1    
   128   63  187 1    
   129   63  188 1    
   130   64   65 am   BACKBONE|DICT|INTERRES
   131   64  189 1    
   132   65   66 2    
   133   67   68 2    
   134   67   69 am   BACKBONE|DICT|INTERRES
   135   69   70 1    
   136   69  190 1    
   137   70   71 1    
   138   70   72 1    
   139   70  191 1    
   140   71  192 1    
   141   71  193 1    
   142   71  194 1    
   143   72   73 2    
   144   72   74 am   BACKBONE|DICT|INTERRES
   145   74   75 1    
   146   74  195 1    
   147   75   76 1    
   148   75   77 1    
   149   75  196 1    
   150   76  197 1    
   151   76  198 1    
   152   76  199 1    
   153   77   78 2    
   154   77   79 am   BACKBONE|DICT|INTERRES
   155   79   80 1    
   156   79  200 1    
   157   80   81 1    
   158   80   82 1    
   159   80  201 1    
   160   81  202 1    
   161   81  203 1    
   162   81  204 1    
   163   82   83 2    
   164   82   84 am   BACKBONE|DICT|INTERRES
   165   84   85 1    
   166   84  205 1    
   167   85   86 1    
   168   85   87 1    
   169   85  206 1    
   170   86  207 1    
   171   86  208 1    
   172   86  209 1    
   173   87   88 2    
   174   87   89 am   BACKBONE|DICT|INTERRES
   175   89   90 1    
   176   89  210 1    
   177   90   91 1    
   178   90   92 1    
   179   90  211 1    
   180   91  212 1    
   181   91  213 1    
   182   91  214 1    
   183   92   93 2    
   184   92   94 am   BACKBONE|DICT|INTERRES
   185   94   95 1    
   186   94  215 1    
   187   95   96 1    
   188   95   97 1    
   189   95  216 1    
   190   96  217 1    
   191   96  218 1    
   192   96  219 1    
   193   97   98 2    
   194   97   99 am   BACKBONE|DICT|INTERRES
   195   99  100 1    
   196   99  220 1    
   197  100  101 1    
   198  100  102 1    
   199  100  221 1    
   200  101  222 1    
   201  101  223 1    
   202  101  224 1    
   203  102  103 2    
   204  102  104 am   BACKBONE|DICT|INTERRES
   205  104  105 1    
   206  104  225 1    
   207  105  106 1    
   208  105  107 1    
   209  105  226 1    
   210  106  227 1    
   211  106  228 1    
   212  106  229 1    
   213  107  108 2    
   214  107  109 am   BACKBONE|DICT|INTERRES
   215  109  110 1    
   216  109  230 1    
   217  110  111 1    
   218  110  112 1    
   219  110  231 1    
   220  111  232 1    
   221  111  233 1    
   222  111  234 1    
   223  112  113 2    
   224  112  114 am   BACKBONE|DICT|INTERRES
   225  114  115 1    
   226  114  235 1    
   227  115  116 1    
   228  115  117 1    
   229  115  236 1    
   230  116  237 1    
   231  116  238 1    
   232  116  239 1    
   233  117  118 2    
   234  117  119 am   BACKBONE|DICT|INTERRES
   235  119  120 1    
   236  119  240 1    
   237  120  121 1    
   238  120  124 1    
   239  120  241 1    
   240  121  122 am   BACKBONE|DICT|INTERRES
   241  121  123 2    
   242  122  242 1    
   243  122  243 1    
   244  124  125 1    
   245  124  244 1    
   246  124  245 1    
   247  125  126 1    
   248  126  246 1    
   249  126  247 1    
@<TRIPOS>SUBSTRUCTURE
     1 UNK         1 GROUP             0       ****    0 ROOT    
