@<TRIPOS>MOLECULE
3R540
247   249    1
SMALL
USER_CHARGES


@<TRIPOS>ATOM
      1 CA          2.0138  -10.0564  -45.2171 C.3       0 UNK        -0.1800 
      2 C           1.9099  -11.0291  -46.3806 C.2       0 UNK         0.5000 
      3 O           0.9081  -11.0276  -47.0968 O.2       0 UNK        -0.5000 
      4 N           2.9354  -11.8684  -46.5837 N.am      1 UNK        -0.5000 
      5 CA          2.9772  -12.8957  -47.6344 C.3       1 UNK         0.1400 
      6 C6          4.1069  -13.9278  -47.3966 C.3       23 UNK        -0.0398 
      7 S7          3.7559  -15.5311  -48.1953 S.3       23 UNK        -0.2404 
      8 C8          2.7443  -16.3553  -46.9279 C.3       23 UNK        -0.0205 
      9 C9          2.0970  -17.6139  -47.4805 C.ar      23 UNK        -0.0193 
     10 C10         0.7290  -17.6389  -47.7733 C.ar      23 UNK        -0.1150 
     11 C11         0.1345  -18.7964  -48.2864 C.ar      23 UNK        -0.0193 
     12 C12         0.9229  -19.9273  -48.5161 C.ar      23 UNK        -0.1150 
     13 C13         2.2933  -19.9068  -48.2487 C.ar      23 UNK        -0.0193 
     14 C14         2.8733  -18.7510  -47.7209 C.ar      23 UNK        -0.1150 
     15 C15         3.1487  -21.1160  -48.5860 C.3       23 UNK        -0.0205 
     16 S16         3.3352  -22.2329  -47.1617 S.3       23 UNK        -0.2404 
     17 C17         3.2376  -23.8705  -47.9682 C.3       23 UNK        -0.0398 
     18 CA          2.0541  -24.7475  -47.4944 C.3       11 UNK         0.1400 
     19 N           2.1772  -25.1353  -46.0868 N.am      11 UNK        -0.5000 
     20 C           1.5002  -26.1374  -45.5160 C.2       10 UNK         0.5000 
     21 O           0.6329  -26.7816  -46.1035 O.2       10 UNK        -0.5000 
     22 CA          1.8211  -26.4852  -44.0511 C.3       10 UNK         0.1400 
     23 CB          3.1175  -27.3105  -43.9450 C.3       10 UNK        -0.1800 
     24 N           1.8306  -25.3373  -43.1373 N.am      10 UNK        -0.5000 
     25 C           2.6818  -24.3045  -43.0885 C.2       9 UNK         0.5000 
     26 O           3.6447  -24.1563  -43.8451 O.2       9 UNK        -0.5000 
     27 CA          2.4093  -23.2796  -41.9729 C.3       9 UNK         0.1400 
     28 CB          3.2074  -23.6405  -40.7105 C.3       9 UNK        -0.1800 
     29 N           2.7254  -21.9042  -42.3544 N.am      9 UNK        -0.5000 
     30 C           2.1594  -21.2270  -43.3612 C.2       8 UNK         0.5000 
     31 O           1.3376  -21.7099  -44.1457 O.2       8 UNK        -0.5000 
     32 CA          2.5891  -19.7508  -43.4875 C.3       8 UNK         0.1400 
     33 CB          3.8511  -19.6149  -44.3503 C.3       8 UNK        -0.1800 
     34 N           1.5359  -18.8928  -44.0324 N.am      8 UNK        -0.5000 
     35 C           0.3580  -18.6673  -43.4350 C.2       7 UNK         0.5000 
     36 O           0.0393  -19.1444  -42.3430 O.2       7 UNK        -0.5000 
     37 CA         -0.5952  -17.7057  -44.1726 C.3       7 UNK         0.1400 
     38 CB         -2.0339  -17.7497  -43.6207 C.3       7 UNK        -0.1800 
     39 N          -0.1181  -16.3169  -44.2067 N.am      7 UNK        -0.5000 
     40 C           0.2981  -15.5642  -43.1739 C.2       6 UNK         0.5000 
     41 O           0.3988  -15.9617  -42.0133 O.2       6 UNK        -0.5000 
     42 CA          0.6457  -14.0952  -43.4840 C.3       6 UNK         0.1400 
     43 CB          2.1467  -13.9327  -43.7667 C.3       6 UNK        -0.1800 
     44 N          -0.1301  -13.5290  -44.5915 N.am      6 UNK        -0.5000 
     45 C          -1.4357  -13.2298  -44.5166 C.2       5 UNK         0.5000 
     46 O          -2.1245  -13.4310  -43.5159 O.2       5 UNK        -0.5000 
     47 CA         -2.0830  -12.5782  -45.7506 C.3       5 UNK         0.1400 
     48 CB         -2.2176  -11.0609  -45.5467 C.3       5 UNK        -0.1800 
     49 N          -1.3368  -12.8171  -46.9854 N.am      5 UNK        -0.5000 
     50 C          -1.4945  -13.8880  -47.7740 C.2       4 UNK         0.5000 
     51 O          -2.2057  -14.8446  -47.4667 O.2       4 UNK        -0.5000 
     52 CA         -0.7360  -13.8898  -49.1219 C.3       4 UNK         0.1400 
     53 CB         -1.4616  -14.7056  -50.2098 C.3       4 UNK        -0.1800 
     54 N          -0.4027  -12.5451  -49.6120 N.am      4 UNK        -0.5000 
     55 C          -1.2431  -11.5387  -49.9090 C.2       3 UNK         0.5000 
     56 O          -2.4692  -11.6498  -49.9019 O.2       3 UNK        -0.5000 
     57 CA         -0.6158  -10.1634  -50.2270 C.3       3 UNK         0.1400 
     58 CB         -1.2481   -9.0614  -49.3587 C.3       3 UNK        -0.1800 
     59 N           0.8279  -10.1582  -49.9843 N.am      3 UNK        -0.5000 
     60 C           1.7808  -10.0878  -50.9241 C.2       2 UNK         0.5000 
     61 O           1.5506   -9.9271  -52.1230 O.2       2 UNK        -0.5000 
     62 CA          3.2429  -10.2548  -50.4501 C.3       2 UNK         0.1400 
     63 CB          3.9001   -8.8816  -50.2448 C.3       2 UNK        -0.1800 
     64 N           3.3766  -11.0354  -49.2147 N.am      2 UNK        -0.5000 
     65 C           2.9898  -12.3114  -49.0674 C.2       1 UNK         0.5000 
     66 O           2.5567  -12.9897  -49.9980 O.2       1 UNK        -0.5000 
     67 C           0.6697  -24.1495  -47.8302 C.2       11 UNK         0.5000 
     68 O           0.1001  -24.4890  -48.8685 O.2       11 UNK        -0.5000 
     69 N           0.1211  -23.3255  -46.9236 N.am      12 UNK        -0.5000 
     70 CA         -1.2306  -22.7735  -47.0354 C.3       12 UNK         0.1400 
     71 CB         -1.4203  -21.6556  -46.0000 C.3       12 UNK        -0.1800 
     72 C          -2.3156  -23.8534  -46.8730 C.2       12 UNK         0.5000 
     73 O          -3.3367  -23.7963  -47.5587 O.2       12 UNK        -0.5000 
     74 N          -2.0590  -24.8339  -45.9947 N.am      13 UNK        -0.5000 
     75 CA         -2.9330  -25.9811  -45.7496 C.3       13 UNK         0.1400 
     76 CB         -2.5068  -26.6945  -44.4577 C.3       13 UNK        -0.1800 
     77 C          -2.9591  -26.9549  -46.9401 C.2       13 UNK         0.5000 
     78 O          -4.0355  -27.4168  -47.3162 O.2       13 UNK        -0.5000 
     79 N          -1.7907  -27.2055  -47.5483 N.am      14 UNK        -0.5000 
     80 CA         -1.6300  -28.0098  -48.7635 C.3       14 UNK         0.1400 
     81 CB         -0.1339  -28.2115  -49.0468 C.3       14 UNK        -0.1800 
     82 C          -2.3372  -27.3955  -49.9872 C.2       14 UNK         0.5000 
     83 O          -2.8844  -28.1310  -50.8090 O.2       14 UNK        -0.5000 
     84 N          -2.3520  -26.0579  -50.0580 N.am      15 UNK        -0.5000 
     85 CA         -3.0996  -25.2745  -51.0432 C.3       15 UNK         0.1400 
     86 CB         -2.4717  -23.8738  -51.1218 C.3       15 UNK        -0.1800 
     87 C          -4.6076  -25.1655  -50.7281 C.2       15 UNK         0.5000 
     88 O          -5.3488  -24.6070  -51.5395 O.2       15 UNK        -0.5000 
     89 N          -5.0288  -25.6422  -49.5443 N.am      16 UNK        -0.5000 
     90 CA         -6.3735  -25.5394  -48.9624 C.3       16 UNK         0.1400 
     91 CB         -7.3587  -26.4440  -49.7300 C.3       16 UNK        -0.1800 
     92 C          -6.8625  -24.0790  -48.8556 C.2       16 UNK         0.5000 
     93 O          -8.0541  -23.8107  -49.0225 O.2       16 UNK        -0.5000 
     94 N          -5.9100  -23.1569  -48.6490 N.am      17 UNK        -0.5000 
     95 CA         -5.9765  -21.6975  -48.7640 C.3       17 UNK         0.1400 
     96 CB         -6.9194  -21.0878  -47.7113 C.3       17 UNK        -0.1800 
     97 C          -6.3141  -21.1834  -50.1801 C.2       17 UNK         0.5000 
     98 O          -5.6292  -20.2897  -50.6795 O.2       17 UNK        -0.5000 
     99 N          -7.3611  -21.7466  -50.7921 N.am      18 UNK        -0.5000 
    100 CA        -7.9809  -21.3283  -52.0460 C.3       18 UNK         0.1400 
    101 CB        -9.2056  -22.2151  -52.3161 C.3       18 UNK        -0.1800 
    102 C         -7.0443  -21.3220  -53.2648 C.2       18 UNK         0.5000 
    103 O         -7.1056  -20.3771  -54.0518 O.2       18 UNK        -0.5000 
    104 N         -6.1861  -22.3445  -53.4042 N.am      19 UNK        -0.5000 
    105 CA        -5.2822  -22.4771  -54.5547 C.3       19 UNK         0.1400 
    106 CB        -4.7436  -23.9132  -54.6368 C.3       19 UNK        -0.1800 
    107 C         -4.1238  -21.4613  -54.5378 C.2       19 UNK         0.5000 
    108 O         -3.5823  -21.1424  -55.5968 O.2       19 UNK        -0.5000 
    109 N         -3.7789  -20.9648  -53.3436 N.am      20 UNK        -0.5000 
    110 CA        -2.7619  -19.9368  -53.1246 C.3       20 UNK         0.1400 
    111 CB        -1.9860  -20.2972  -51.8485 C.3       20 UNK        -0.1800 
    112 C         -3.3687  -18.5244  -53.0060 C.2       20 UNK         0.5000 
    113 O         -2.6110  -17.5555  -52.9531 O.2       20 UNK        -0.5000 
    114 N         -4.7076  -18.4338  -52.9369 N.am      21 UNK        -0.5000 
    115 CA        -5.5090  -17.2390  -52.6428 C.3       21 UNK         0.1400 
    116 CB        -5.4297  -16.2254  -53.8031 C.3       21 UNK        -0.1800 
    117 C         -5.1554  -16.6263  -51.2688 C.2       21 UNK         0.5000 
    118 O         -5.0431  -15.4062  -51.1390 O.2       21 UNK        -0.5000 
    119 N         -4.9450  -17.5066  -50.2825 N.am      22 UNK        -0.5000 
    120 CA        -4.4691  -17.1842  -48.9321 C.3       22 UNK         0.1400 
    121 C         -5.4702  -16.3387  -48.0990 C.2       22 UNK         0.5000 
    122 N         -4.9770  -15.4033  -47.3008 N.am      22 UNK        -0.7600 
    123 O         -6.6795  -16.5560  -48.1365 O.2       22 UNK        -0.5000 
    124 C124       -4.0459  -18.4757  -48.1800 C.3       23 UNK        -0.0398 
    125 S125       -2.4502  -18.2991  -47.3261 S.3       23 UNK        -0.2404 
    126 C126       -1.3383  -18.8190  -48.6677 C.3       23 UNK        -0.0205 
    127 H127        2.9746  -10.1346  -44.7083 H         1 UNK         0.0600 
    128 H128        1.8973   -9.0331  -45.5734 H         1 UNK         0.0600 
    129 H129        1.2258  -10.2588  -44.4918 H         1 UNK         0.0600 
    130 H130        3.7460  -11.8136  -45.9826 H         1 UNK         0.3000 
    131 H131        2.0296  -13.4300  -47.5447 H         1 UNK         0.0600 
    132 H132        5.0649  -13.5504  -47.7584 H         1 UNK         0.0800 
    133 H133        4.2450  -14.1088  -46.3300 H         1 UNK         0.0800 
    134 H134        1.9742  -15.6694  -46.5761 H         1 UNK         0.0800 
    135 H135        3.3657  -16.6039  -46.0662 H         1 UNK         0.0800 
    136 H136        0.1232  -16.7581  -47.6145 H         1 UNK         0.1150 
    137 H137        0.4777  -20.8196  -48.9332 H         1 UNK         0.1150 
    138 H138        3.9350  -18.7276  -47.5184 H         1 UNK         0.1150 
    139 H139        2.6998  -21.6377  -49.4321 H         1 UNK         0.0800 
    140 H140        4.1374  -20.7965  -48.9191 H         1 UNK         0.0800 
    141 H141        3.2062  -23.7641  -49.0531 H         1 UNK         0.0800 
    142 H142        4.1741  -24.3912  -47.7639 H         1 UNK         0.0800 
    143 H143        2.1210  -25.6749  -48.0679 H         1 UNK         0.0600 
    144 H144        2.8497  -24.6256  -45.5193 H         1 UNK         0.3000 
    145 H145        1.0079  -27.1240  -43.7025 H         1 UNK         0.0600 
    146 H146        3.3072  -27.6154  -42.9158 H         1 UNK         0.0600 
    147 H147        3.0483  -28.2186  -44.5452 H         1 UNK         0.0600 
    148 H148        3.9881  -26.7564  -44.2965 H         1 UNK         0.0600 
    149 H149        1.0743  -25.3399  -42.4669 H         1 UNK         0.3000 
    150 H150        1.3453  -23.3085  -41.7287 H         1 UNK         0.0600 
    151 H151        2.9761  -24.6527  -40.3759 H         1 UNK         0.0600 
    152 H152        2.9719  -22.9666  -39.8865 H         1 UNK         0.0600 
    153 H153        4.2826  -23.5923  -40.8883 H         1 UNK         0.0600 
    154 H154        3.4164  -21.4377  -41.7859 H         1 UNK         0.3000 
    155 H155        2.8214  -19.3773  -42.4879 H         1 UNK         0.0600 
    156 H156        4.1827  -18.5783  -44.4115 H         1 UNK         0.0600 
    157 H157        3.6799  -19.9748  -45.3627 H         1 UNK         0.0600 
    158 H158        4.6745  -20.1967  -43.9346 H         1 UNK         0.0600 
    159 H159        1.7053  -18.4987  -44.9453 H         1 UNK         0.3000 
    160 H160       -0.6256  -18.0501  -45.2045 H         1 UNK         0.0600 
    161 H161       -2.7024  -17.1329  -44.2220 H         1 UNK         0.0600 
    162 H162       -2.0844  -17.3931  -42.5914 H         1 UNK         0.0600 
    163 H163       -2.4272  -18.7668  -43.6393 H         1 UNK         0.0600 
    164 H164       -0.1854  -15.8627  -45.1048 H         1 UNK         0.3000 
    165 H165        0.4170  -13.5167  -42.5860 H         1 UNK         0.0600 
    166 H166        2.4426  -14.4277  -44.6890 H         1 UNK         0.0600 
    167 H167        2.4200  -12.8809  -43.8438 H         1 UNK         0.0600 
    168 H168        2.7443  -14.3604  -42.9605 H         1 UNK         0.0600 
    169 H169        0.3601  -13.3141  -45.4456 H         1 UNK         0.3000 
    170 H170       -3.0879  -12.9935  -45.8535 H         1 UNK         0.0600 
    171 H171       -2.8126  -10.8363  -44.6606 H         1 UNK         0.0600 
    172 H172       -1.2464  -10.5818  -45.4198 H         1 UNK         0.0600 
    173 H173       -2.7126  -10.5924  -46.3977 H         1 UNK         0.0600 
    174 H174       -0.6939  -12.0840  -47.2707 H         1 UNK         0.3000 
    175 H175        0.2164  -14.3851  -48.9297 H         1 UNK         0.0600 
    176 H176       -2.4771  -14.3453  -50.3779 H         1 UNK         0.0600 
    177 H177       -0.9283  -14.6631  -51.1593 H         1 UNK         0.0600 
    178 H178       -1.5288  -15.7561  -49.9282 H         1 UNK         0.0600 
    179 H179        0.5886  -12.3669  -49.7165 H         1 UNK         0.3000 
    180 H180       -0.8330   -9.9449  -51.2743 H         1 UNK         0.0600 
    181 H181       -1.1027   -9.2565  -48.2951 H         1 UNK         0.0600 
    182 H182       -2.3215   -8.9851  -49.5359 H         1 UNK         0.0600 
    183 H183       -0.8143   -8.0867  -49.5826 H         1 UNK         0.0600 
    184 H184        1.1022  -10.2979  -49.0177 H         1 UNK         0.3000 
    185 H185        3.7847  -10.7815  -51.2383 H         1 UNK         0.0600 
    186 H186        3.8438   -8.2816  -51.1541 H         1 UNK         0.0600 
    187 H187        3.4125   -8.3175  -49.4487 H         1 UNK         0.0600 
    188 H188        4.9549   -8.9825  -49.9890 H         1 UNK         0.0600 
    189 H189        3.7057  -10.5384  -48.3997 H         1 UNK         0.3000 
    190 H190        0.6599  -23.0616  -46.1077 H         1 UNK         0.3000 
    191 H191       -1.3413  -22.3375  -48.0303 H         1 UNK         0.0600 
    192 H192       -2.4069  -21.2000  -46.0935 H         1 UNK         0.0600 
    193 H193       -0.6827  -20.8637  -46.1328 H         1 UNK         0.0600 
    194 H194       -1.3257  -22.0292  -44.9798 H         1 UNK         0.0600 
    195 H195       -1.1785  -24.8178  -45.5033 H         1 UNK         0.3000 
    196 H196       -3.9485  -25.6053  -45.6065 H         1 UNK         0.0600 
    197 H197       -3.1808  -27.5218  -44.2319 H         1 UNK         0.0600 
    198 H198       -2.5307  -26.0152  -43.6055 H         1 UNK         0.0600 
    199 H199       -1.5005  -27.1059  -44.5313 H         1 UNK         0.0600 
    200 H200       -0.9367  -26.8445  -47.1304 H         1 UNK         0.3000 
    201 H201       -2.0781  -28.9880  -48.5778 H         1 UNK         0.0600 
    202 H202        0.3608  -28.7123  -48.2144 H         1 UNK         0.0600 
    203 H203        0.3748  -27.2619  -49.2154 H         1 UNK         0.0600 
    204 H204        0.0169  -28.8280  -49.9338 H         1 UNK         0.0600 
    205 H205       -1.8248  -25.5331  -49.3704 H         1 UNK         0.3000 
    206 H206       -3.0027  -25.7505  -52.0210 H         1 UNK         0.0600 
    207 H207       -1.4169  -23.9282  -51.3915 H         1 UNK         0.0600 
    208 H208       -2.9671  -23.2627  -51.8752 H         1 UNK         0.0600 
    209 H209       -2.5461  -23.3438  -50.1719 H         1 UNK         0.0600 
    210 H210       -4.3442  -26.0863  -48.9453 H         1 UNK         0.3000 
    211 H211       -6.3006  -25.9132  -47.9405 H         1 UNK         0.0600 
    212 H212       -7.5233  -26.0899  -50.7482 H         1 UNK         0.0600 
    213 H213       -8.3291  -26.4773  -49.2335 H         1 UNK         0.0600 
    214 H214       -6.9891  -27.4679  -49.7865 H         1 UNK         0.0600 
    215 H215       -4.9727  -23.5105  -48.4686 H         1 UNK         0.3000 
    216 H216       -4.9669  -21.3542  -48.5388 H         1 UNK         0.0600 
    217 H217       -7.9500  -21.4172  -47.8442 H         1 UNK         0.0600 
    218 H218       -6.9195  -19.9987  -47.7709 H         1 UNK         0.0600 
    219 H219       -6.6083  -21.3591  -46.7025 H         1 UNK         0.0600 
    220 H220       -7.8261  -22.4978  -50.2878 H         1 UNK         0.3000 
    221 H221       -8.3307  -20.3041  -51.9019 H         1 UNK         0.0600 
    222 H222       -8.9263  -23.2651  -52.4131 H         1 UNK         0.0600 
    223 H223       -9.9346  -22.1365  -51.5093 H         1 UNK         0.0600 
    224 H224       -9.7088  -21.9205  -53.2381 H         1 UNK         0.0600 
    225 H225       -6.1531  -23.0803  -52.7047 H         1 UNK         0.3000 
    226 H226       -5.8637  -22.2918  -55.4605 H         1 UNK         0.0600 
    227 H227       -5.5531  -24.6432  -54.6204 H         1 UNK         0.0600 
    228 H228       -4.1867  -24.0651  -55.5622 H         1 UNK         0.0600 
    229 H229       -4.0682  -24.1406  -53.8135 H         1 UNK         0.0600 
    230 H230       -4.3000  -21.2649  -52.5309 H         1 UNK         0.3000 
    231 H231       -2.0556  -19.9184  -53.9571 H         1 UNK         0.0600 
    232 H232       -2.6538  -20.3854  -50.9913 H         1 UNK         0.0600 
    233 H233       -1.2361  -19.5405  -51.6154 H         1 UNK         0.0600 
    234 H234       -1.4581  -21.2434  -51.9637 H         1 UNK         0.0600 
    235 H235       -5.2331  -19.2951  -52.9968 H         1 UNK         0.3000 
    236 H236       -6.5439  -17.5765  -52.5693 H         1 UNK         0.0600 
    237 H237       -5.6947  -16.6923  -54.7517 H         1 UNK         0.0600 
    238 H238       -6.1212  -15.3971  -53.6449 H         1 UNK         0.0600 
    239 H239       -4.4304  -15.8014  -53.9049 H         1 UNK         0.0600 
    240 H240       -5.1143  -18.4896  -50.4773 H         1 UNK         0.3000 
    241 H241       -3.5837  -16.5669  -49.0895 H         1 UNK         0.0600 
    242 H242       -3.9734  -15.2254  -47.2754 H         1 UNK         0.3800 
    243 H243       -5.6013  -14.8514  -46.7354 H         1 UNK         0.3800 
    244 H244       -4.7959  -18.7926  -47.4534 H         1 UNK         0.0800 
    245 H245       -3.9468  -19.3116  -48.8709 H         1 UNK         0.0800 
    246 H246       -1.4886  -18.1727  -49.5330 H         1 UNK         0.0800 
    247 H247       -1.6249  -19.8262  -48.9700 H         1 UNK         0.0800 
@<TRIPOS>BOND
     1    1    2 1    
     2    1  127 1    
     3    1  128 1    
     4    1  129 1    
     5    2    3 2    
     6    2    4 am   BACKBONE|DICT|INTERRES
     7    4    5 1    
     8    4  130 1    
     9    5    6 1    
    10    5   65 1    
    11    5  131 1    
    12    6    7 1    
    13    6  132 1    
    14    6  133 1    
    15    7    8 1    
    16    8    9 1    
    17    8  134 1    
    18    8  135 1    
    19    9   10 ar   
    20    9   14 ar   
    21   10   11 ar   
    22   10  136 1    
    23   11   12 ar   
    24   11  126 1    
    25   12   13 ar   
    26   12  137 1    
    27   13   14 ar   
    28   13   15 1    
    29   14  138 1    
    30   15   16 1    
    31   15  139 1    
    32   15  140 1    
    33   16   17 1    
    34   17   18 1    
    35   17  141 1    
    36   17  142 1    
    37   18   19 1    
    38   18   67 1    
    39   18  143 1    
    40   19   20 am   BACKBONE|DICT|INTERRES
    41   19  144 1    
    42   20   21 2    
    43   20   22 1    
    44   22   23 1    
    45   22   24 1    
    46   22  145 1    
    47   23  146 1    
    48   23  147 1    
    49   23  148 1    
    50   24   25 am   BACKBONE|DICT|INTERRES
    51   24  149 1    
    52   25   26 2    
    53   25   27 1    
    54   27   28 1    
    55   27   29 1    
    56   27  150 1    
    57   28  151 1    
    58   28  152 1    
    59   28  153 1    
    60   29   30 am   BACKBONE|DICT|INTERRES
    61   29  154 1    
    62   30   31 2    
    63   30   32 1    
    64   32   33 1    
    65   32   34 1    
    66   32  155 1    
    67   33  156 1    
    68   33  157 1    
    69   33  158 1    
    70   34   35 am   BACKBONE|DICT|INTERRES
    71   34  159 1    
    72   35   36 2    
    73   35   37 1    
    74   37   38 1    
    75   37   39 1    
    76   37  160 1    
    77   38  161 1    
    78   38  162 1    
    79   38  163 1    
    80   39   40 am   BACKBONE|DICT|INTERRES
    81   39  164 1    
    82   40   41 2    
    83   40   42 1    
    84   42   43 1    
    85   42   44 1    
    86   42  165 1    
    87   43  166 1    
    88   43  167 1    
    89   43  168 1    
    90   44   45 am   BACKBONE|DICT|INTERRES
    91   44  169 1    
    92   45   46 2    
    93   45   47 1    
    94   47   48 1    
    95   47   49 1    
    96   47  170 1    
    97   48  171 1    
    98   48  172 1    
    99   48  173 1    
   100   49   50 am   BACKBONE|DICT|INTERRES
   101   49  174 1    
   102   50   51 2    
   103   50   52 1    
   104   52   53 1    
   105   52   54 1    
   106   52  175 1    
   107   53  176 1    
   108   53  177 1    
   109   53  178 1    
   110   54   55 am   BACKBONE|DICT|INTERRES
   111   54  179 1    
   112   55   56 2    
   113   55   57 1    
   114   57   58 1    
   115   57   59 1    
   116   57  180 1    
   117   58  181 1    
   118   58  182 1    
   119   58  183 1    
   120   59   60 am   BACKBONE|DICT|INTERRES
   121   59  184 1    
   122   60   61 2    
   123   60   62 1    
   124   62   63 1    
   125   62   64 1    
   126   62  185 1    
   127   63  186 1    
   128   63  187 1    
   129   63  188 1    
   130   64   65 am   BACKBONE|DICT|INTERRES
   131   64  189 1    
   132   65   66 2    
   133   67   68 2    
   134   67   69 am   BACKBONE|DICT|INTERRES
   135   69   70 1    
   136   69  190 1    
   137   70   71 1    
   138   70   72 1    
   139   70  191 1    
   140   71  192 1    
   141   71  193 1    
   142   71  194 1    
   143   72   73 2    
   144   72   74 am   BACKBONE|DICT|INTERRES
   145   74   75 1    
   146   74  195 1    
   147   75   76 1    
   148   75   77 1    
   149   75  196 1    
   150   76  197 1    
   151   76  198 1    
   152   76  199 1    
   153   77   78 2    
   154   77   79 am   BACKBONE|DICT|INTERRES
   155   79   80 1    
   156   79  200 1    
   157   80   81 1    
   158   80   82 1    
   159   80  201 1    
   160   81  202 1    
   161   81  203 1    
   162   81  204 1    
   163   82   83 2    
   164   82   84 am   BACKBONE|DICT|INTERRES
   165   84   85 1    
   166   84  205 1    
   167   85   86 1    
   168   85   87 1    
   169   85  206 1    
   170   86  207 1    
   171   86  208 1    
   172   86  209 1    
   173   87   88 2    
   174   87   89 am   BACKBONE|DICT|INTERRES
   175   89   90 1    
   176   89  210 1    
   177   90   91 1    
   178   90   92 1    
   179   90  211 1    
   180   91  212 1    
   181   91  213 1    
   182   91  214 1    
   183   92   93 2    
   184   92   94 am   BACKBONE|DICT|INTERRES
   185   94   95 1    
   186   94  215 1    
   187   95   96 1    
   188   95   97 1    
   189   95  216 1    
   190   96  217 1    
   191   96  218 1    
   192   96  219 1    
   193   97   98 2    
   194   97   99 am   BACKBONE|DICT|INTERRES
   195   99  100 1    
   196   99  220 1    
   197  100  101 1    
   198  100  102 1    
   199  100  221 1    
   200  101  222 1    
   201  101  223 1    
   202  101  224 1    
   203  102  103 2    
   204  102  104 am   BACKBONE|DICT|INTERRES
   205  104  105 1    
   206  104  225 1    
   207  105  106 1    
   208  105  107 1    
   209  105  226 1    
   210  106  227 1    
   211  106  228 1    
   212  106  229 1    
   213  107  108 2    
   214  107  109 am   BACKBONE|DICT|INTERRES
   215  109  110 1    
   216  109  230 1    
   217  110  111 1    
   218  110  112 1    
   219  110  231 1    
   220  111  232 1    
   221  111  233 1    
   222  111  234 1    
   223  112  113 2    
   224  112  114 am   BACKBONE|DICT|INTERRES
   225  114  115 1    
   226  114  235 1    
   227  115  116 1    
   228  115  117 1    
   229  115  236 1    
   230  116  237 1    
   231  116  238 1    
   232  116  239 1    
   233  117  118 2    
   234  117  119 am   BACKBONE|DICT|INTERRES
   235  119  120 1    
   236  119  240 1    
   237  120  121 1    
   238  120  124 1    
   239  120  241 1    
   240  121  122 am   BACKBONE|DICT|INTERRES
   241  121  123 2    
   242  122  242 1    
   243  122  243 1    
   244  124  125 1    
   245  124  244 1    
   246  124  245 1    
   247  125  126 1    
   248  126  246 1    
   249  126  247 1    
@<TRIPOS>SUBSTRUCTURE
     1 UNK         1 GROUP             0       ****    0 ROOT    
