@<TRIPOS>MOLECULE
3R540
247   249    1
SMALL
USER_CHARGES


@<TRIPOS>ATOM
      1 CA          2.9176  -21.8354  -47.8403 C.3       0 UNK        -0.1800 
      2 C           2.8354  -20.7056  -46.8248 C.2       0 UNK         0.5000 
      3 O           2.4090  -20.9359  -45.6954 O.2       0 UNK        -0.5000 
      4 N           3.2416  -19.4913  -47.2171 N.am      1 UNK        -0.5000 
      5 CA          3.2999  -18.3039  -46.3588 C.3       1 UNK         0.1400 
      6 C6          3.4215  -16.9940  -47.1852 C.3       23 UNK        -0.0398 
      7 S7          1.7820  -16.2944  -47.5742 S.3       23 UNK        -0.2404 
      8 C8          2.0497  -15.5436  -49.2060 C.3       23 UNK        -0.0205 
      9 C9          1.3904  -16.3667  -50.2985 C.ar      23 UNK        -0.0193 
     10 C10         0.1649  -15.9669  -50.8399 C.ar      23 UNK        -0.1150 
     11 C11        -0.4382  -16.7113  -51.8578 C.ar      23 UNK        -0.0193 
     12 C12         0.1919  -17.8661  -52.3293 C.ar      23 UNK        -0.1150 
     13 C13         1.4067  -18.2850  -51.7803 C.ar      23 UNK        -0.0193 
     14 C14         2.0054  -17.5276  -50.7710 C.ar      23 UNK        -0.1150 
     15 C15         2.0780  -19.5546  -52.2719 C.3       23 UNK        -0.0205 
     16 S16         1.8020  -20.9350  -51.1212 S.3       23 UNK        -0.2404 
     17 C17         0.0497  -21.3350  -51.4197 C.3       23 UNK        -0.0398 
     18 CA         -0.8166  -21.2357  -50.1412 C.3       11 UNK         0.1400 
     19 N          -0.8920  -19.8686  -49.5909 N.am      11 UNK        -0.5000 
     20 C          -1.5614  -19.5137  -48.4806 C.2       10 UNK         0.5000 
     21 O          -2.2533  -20.3021  -47.8353 O.2       10 UNK        -0.5000 
     22 CA         -1.4964  -18.0319  -48.0648 C.3       10 UNK         0.1400 
     23 CB         -2.8362  -17.3214  -48.3302 C.3       10 UNK        -0.1800 
     24 N          -1.0532  -17.8270  -46.6793 N.am      10 UNK        -0.5000 
     25 C          -1.6625  -18.1567  -45.5271 C.2       9 UNK         0.5000 
     26 O          -2.7687  -18.6886  -45.4398 O.2       9 UNK        -0.5000 
     27 CA         -0.9101  -17.7980  -44.2295 C.3       9 UNK         0.1400 
     28 CB          0.0007  -18.9532  -43.7912 C.3       9 UNK        -0.1800 
     29 N          -0.1121  -16.5767  -44.3516 N.am      9 UNK        -0.5000 
     30 C          -0.6122  -15.3357  -44.3565 C.2       8 UNK         0.5000 
     31 O          -1.8143  -15.0915  -44.2373 O.2       8 UNK        -0.5000 
     32 CA          0.4052  -14.1832  -44.5080 C.3       8 UNK         0.1400 
     33 CB         -0.2602  -12.7955  -44.4820 C.3       8 UNK        -0.1800 
     34 N           1.4693  -14.2077  -43.5001 N.am      8 UNK        -0.5000 
     35 C           2.5396  -15.0153  -43.5171 C.2       7 UNK         0.5000 
     36 O           2.6471  -15.9538  -44.3028 O.2       7 UNK        -0.5000 
     37 CA          3.6663  -14.7798  -42.4879 C.3       7 UNK         0.1400 
     38 CB          5.0657  -14.8901  -43.1271 C.3       7 UNK        -0.1800 
     39 N           3.5354  -13.5406  -41.7151 N.am      7 UNK        -0.5000 
     40 C           3.5778  -12.2716  -42.1539 C.2       6 UNK         0.5000 
     41 O           3.8475  -11.9572  -43.3137 O.2       6 UNK        -0.5000 
     42 CA          3.2221  -11.1733  -41.1218 C.3       6 UNK         0.1400 
     43 CB          2.5776   -9.9346  -41.7788 C.3       6 UNK        -0.1800 
     44 N           2.3888  -11.6585  -40.0103 N.am      6 UNK        -0.5000 
     45 C           1.1815  -12.2354  -40.1033 C.2       5 UNK         0.5000 
     46 O           0.5666  -12.3879  -41.1607 O.2       5 UNK        -0.5000 
     47 CA          0.6094  -12.8322  -38.8040 C.3       5 UNK         0.1400 
     48 CB         -0.7511  -12.2058  -38.4610 C.3       5 UNK        -0.1800 
     49 N           0.4590  -14.2857  -38.9160 N.am      5 UNK        -0.5000 
     50 C           1.4553  -15.1463  -39.1645 C.2       4 UNK         0.5000 
     51 O           2.6416  -14.8139  -39.2561 O.2       4 UNK        -0.5000 
     52 CA          1.0601  -16.6153  -39.3717 C.3       4 UNK         0.1400 
     53 CB          0.2468  -16.8012  -40.6661 C.3       4 UNK        -0.1800 
     54 N           2.2723  -17.4270  -39.4351 N.am      4 UNK        -0.5000 
     55 C           2.3634  -18.7208  -39.1135 C.2       3 UNK         0.5000 
     56 O           1.4048  -19.3967  -38.7335 O.2       3 UNK        -0.5000 
     57 CA          3.7686  -19.3515  -39.2436 C.3       3 UNK         0.1400 
     58 CB          3.7758  -20.8679  -38.9553 C.3       3 UNK        -0.1800 
     59 N           4.4216  -19.0756  -40.5327 N.am      3 UNK        -0.5000 
     60 C           3.9540  -19.3846  -41.7514 C.2       2 UNK         0.5000 
     61 O           2.8541  -19.9011  -41.9618 O.2       2 UNK        -0.5000 
     62 CA          4.8890  -19.0978  -42.9370 C.3       2 UNK         0.1400 
     63 CB          5.9127  -20.2348  -43.1132 C.3       2 UNK        -0.1800 
     64 N           4.0681  -18.9639  -44.1332 N.am      2 UNK        -0.5000 
     65 C           4.4261  -18.4395  -45.3093 C.2       1 UNK         0.5000 
     66 O           5.5716  -18.0740  -45.5814 O.2       1 UNK        -0.5000 
     67 C          -2.1940  -21.8739  -50.4148 C.2       11 UNK         0.5000 
     68 O          -2.3279  -23.0920  -50.2842 O.2       11 UNK        -0.5000 
     69 N          -3.1968  -21.0438  -50.7362 N.am      12 UNK        -0.5000 
     70 CA         -4.5970  -21.4291  -50.9117 C.3       12 UNK         0.1400 
     71 CB         -5.4342  -20.1666  -51.1697 C.3       12 UNK        -0.1800 
     72 C          -5.1795  -22.2249  -49.7273 C.2       12 UNK         0.5000 
     73 O          -5.9299  -23.1757  -49.9524 O.2       12 UNK        -0.5000 
     74 N          -4.7875  -21.8444  -48.5046 N.am      13 UNK        -0.5000 
     75 CA         -5.1794  -22.5022  -47.2627 C.3       13 UNK         0.1400 
     76 CB         -5.6343  -21.4352  -46.2545 C.3       13 UNK        -0.1800 
     77 C          -4.0233  -23.3312  -46.6823 C.2       13 UNK         0.5000 
     78 O          -4.2375  -24.4820  -46.3028 O.2       13 UNK        -0.5000 
     79 N          -2.8218  -22.7412  -46.6186 N.am      14 UNK        -0.5000 
     80 CA         -1.6596  -23.2876  -45.9156 C.3       14 UNK         0.1400 
     81 CB         -0.6100  -22.1821  -45.7527 C.3       14 UNK        -0.1800 
     82 C          -1.0389  -24.5191  -46.5940 C.2       14 UNK         0.5000 
     83 O          -0.5929  -25.4302  -45.8959 O.2       14 UNK        -0.5000 
     84 N          -1.0384  -24.5340  -47.9326 N.am      15 UNK        -0.5000 
     85 CA         -0.5969  -25.6683  -48.7487 C.3       15 UNK         0.1400 
     86 CB          0.3204  -25.1505  -49.8708 C.3       15 UNK        -0.1800 
     87 C          -1.7979  -26.4463  -49.3227 C.2       15 UNK         0.5000 
     88 O          -1.5924  -27.4178  -50.0510 O.2       15 UNK        -0.5000 
     89 N          -3.0221  -25.9984  -48.9967 N.am      16 UNK        -0.5000 
     90 CA         -4.3195  -26.4917  -49.4668 C.3       16 UNK         0.1400 
     91 CB         -4.6032  -27.8984  -48.9016 C.3       16 UNK        -0.1800 
     92 C          -4.4725  -26.4126  -51.0009 C.2       16 UNK         0.5000 
     93 O          -5.1109  -27.2768  -51.6043 O.2       16 UNK        -0.5000 
     94 N          -3.8780  -25.3756  -51.6092 N.am      17 UNK        -0.5000 
     95 CA         -3.8510  -25.1672  -53.0589 C.3       17 UNK         0.1400 
     96 CB         -2.6872  -24.2228  -53.3968 C.3       17 UNK        -0.1800 
     97 C          -5.1832  -24.6519  -53.6470 C.2       17 UNK         0.5000 
     98 O          -5.3081  -24.6000  -54.8712 O.2       17 UNK        -0.5000 
     99 N          -6.1396  -24.2961  -52.7740 N.am      18 UNK        -0.5000 
    100 CA        -7.4628  -23.7215  -53.0398 C.3       18 UNK         0.1400 
    101 CB        -8.2828  -24.5951  -54.0120 C.3       18 UNK        -0.1800 
    102 C         -7.3940  -22.2544  -53.5019 C.2       18 UNK         0.5000 
    103 O         -6.3199  -21.7432  -53.8234 O.2       18 UNK        -0.5000 
    104 N         -8.5569  -21.5873  -53.5090 N.am      19 UNK        -0.5000 
    105 CA        -8.7191  -20.1524  -53.7784 C.3       19 UNK         0.1400 
    106 CB       -10.2082  -19.7883  -53.6872 C.3       19 UNK        -0.1800 
    107 C         -8.1313  -19.6732  -55.1192 C.2       19 UNK         0.5000 
    108 O         -7.6806  -18.5314  -55.2078 O.2       19 UNK        -0.5000 
    109 N         -8.0857  -20.5660  -56.1167 N.am      20 UNK        -0.5000 
    110 CA        -7.4654  -20.3493  -57.4255 C.3       20 UNK         0.1400 
    111 CB        -7.7177  -21.5875  -58.2997 C.3       20 UNK        -0.1800 
    112 C         -5.9558  -20.0272  -57.3723 C.2       20 UNK         0.5000 
    113 O         -5.4398  -19.4306  -58.3183 O.2       20 UNK        -0.5000 
    114 N         -5.2754  -20.4085  -56.2809 N.am      21 UNK        -0.5000 
    115 CA        -3.8610  -20.1180  -56.0495 C.3       21 UNK         0.1400 
    116 CB        -3.3276  -21.0606  -54.9614 C.3       21 UNK        -0.1800 
    117 C         -3.5897  -18.6531  -55.6579 C.2       21 UNK         0.5000 
    118 O         -2.4668  -18.1889  -55.8624 O.2       21 UNK        -0.5000 
    119 N         -4.5926  -17.9625  -55.0958 N.am      22 UNK        -0.5000 
    120 CA        -4.4658  -16.5891  -54.5761 C.3       22 UNK         0.1400 
    121 C         -5.5037  -15.5883  -55.1552 C.2       22 UNK         0.5000 
    122 N         -6.6232  -16.0182  -55.7208 N.am      22 UNK        -0.7600 
    123 O         -5.2765  -14.3823  -55.1093 O.2       22 UNK        -0.5000 
    124 C124       -4.4684  -16.5491  -53.0243 C.3       23 UNK        -0.0398 
    125 S125       -3.0823  -17.4668  -52.2674 S.3       23 UNK        -0.2404 
    126 C126       -1.7474  -16.2469  -52.4757 C.3       23 UNK        -0.0205 
    127 H127        3.5136  -21.5539  -48.7083 H         1 UNK         0.0600 
    128 H128        1.9189  -22.1093  -48.1797 H         1 UNK         0.0600 
    129 H129        3.3765  -22.7146  -47.3882 H         1 UNK         0.0600 
    130 H130        3.5974  -19.3729  -48.1540 H         1 UNK         0.3000 
    131 H131        2.3649  -18.2566  -45.7982 H         1 UNK         0.0600 
    132 H132        4.0003  -17.1590  -48.0947 H         1 UNK         0.0800 
    133 H133        3.9543  -16.2167  -46.6338 H         1 UNK         0.0800 
    134 H134        3.1144  -15.4273  -49.4125 H         1 UNK         0.0800 
    135 H135        1.6359  -14.5342  -49.1938 H         1 UNK         0.0800 
    136 H136       -0.3139  -15.0692  -50.4744 H         1 UNK         0.1150 
    137 H137       -0.2699  -18.4368  -53.1233 H         1 UNK         0.1150 
    138 H138        2.9480  -17.8460  -50.3490 H         1 UNK         0.1150 
    139 H139        1.7247  -19.8252  -53.2682 H         1 UNK         0.0800 
    140 H140        3.1514  -19.3834  -52.3661 H         1 UNK         0.0800 
    141 H141        0.0303  -22.3512  -51.8189 H         1 UNK         0.0800 
    142 H142       -0.3568  -20.7007  -52.2083 H         1 UNK         0.0800 
    143 H143       -0.3455  -21.8508  -49.3720 H         1 UNK         0.0600 
    144 H144       -0.3519  -19.1700  -50.0834 H         1 UNK         0.3000 
    145 H145       -0.7442  -17.5492  -48.6870 H         1 UNK         0.0600 
    146 H146       -2.7783  -16.2635  -48.0743 H         1 UNK         0.0600 
    147 H147       -3.1094  -17.3861  -49.3820 H         1 UNK         0.0600 
    148 H148       -3.6538  -17.7620  -47.7590 H         1 UNK         0.0600 
    149 H149       -0.1478  -17.3845  -46.5984 H         1 UNK         0.3000 
    150 H150       -1.6506  -17.6393  -43.4424 H         1 UNK         0.0600 
    151 H151       -0.5910  -19.8149  -43.4823 H         1 UNK         0.0600 
    152 H152        0.6262  -18.6736  -42.9447 H         1 UNK         0.0600 
    153 H153        0.6560  -19.2795  -44.5970 H         1 UNK         0.0600 
    154 H154        0.8969  -16.6708  -44.4267 H         1 UNK         0.3000 
    155 H155        0.8666  -14.2984  -45.4904 H         1 UNK         0.0600 
    156 H156       -0.7667  -12.6103  -43.5341 H         1 UNK         0.0600 
    157 H157        0.4740  -12.0031  -44.6289 H         1 UNK         0.0600 
    158 H158       -1.0020  -12.7014  -45.2760 H         1 UNK         0.0600 
    159 H159        1.3989  -13.5077  -42.7702 H         1 UNK         0.3000 
    160 H160        3.5757  -15.5928  -41.7669 H         1 UNK         0.0600 
    161 H161        5.2160  -14.1450  -43.9084 H         1 UNK         0.0600 
    162 H162        5.2137  -15.8678  -43.5858 H         1 UNK         0.0600 
    163 H163        5.8510  -14.7606  -42.3826 H         1 UNK         0.0600 
    164 H164        3.2931  -13.6890  -40.7397 H         1 UNK         0.3000 
    165 H165        4.1686  -10.8586  -40.6801 H         1 UNK         0.0600 
    166 H166        2.3350   -9.1752  -41.0356 H         1 UNK         0.0600 
    167 H167        3.2553   -9.4752  -42.4994 H         1 UNK         0.0600 
    168 H168        1.6603  -10.1891  -42.3107 H         1 UNK         0.0600 
    169 H169        2.8262  -11.6193  -39.0996 H         1 UNK         0.3000 
    170 H170        1.2971  -12.6271  -37.9810 H         1 UNK         0.0600 
    171 H171       -1.4948  -12.4081  -39.2330 H         1 UNK         0.0600 
    172 H172       -1.1354  -12.5890  -37.5155 H         1 UNK         0.0600 
    173 H173       -0.6673  -11.1227  -38.3622 H         1 UNK         0.0600 
    174 H174       -0.4874  -14.6353  -38.8804 H         1 UNK         0.3000 
    175 H175        0.4588  -16.9209  -38.5129 H         1 UNK         0.0600 
    176 H176       -0.0825  -17.8343  -40.7757 H         1 UNK         0.0600 
    177 H177        0.8347  -16.5435  -41.5466 H         1 UNK         0.0600 
    178 H178       -0.6478  -16.1778  -40.6744 H         1 UNK         0.0600 
    179 H179        3.1098  -16.9068  -39.6623 H         1 UNK         0.3000 
    180 H180        4.3837  -18.8740  -38.4794 H         1 UNK         0.0600 
    181 H181        3.1547  -21.4180  -39.6630 H         1 UNK         0.0600 
    182 H182        3.3965  -21.0780  -37.9546 H         1 UNK         0.0600 
    183 H183        4.7856  -21.2745  -39.0099 H         1 UNK         0.0600 
    184 H184        5.3347  -18.6476  -40.4672 H         1 UNK         0.3000 
    185 H185        5.4093  -18.1558  -42.7556 H         1 UNK         0.0600 
    186 H186        6.5071  -20.3721  -42.2092 H         1 UNK         0.0600 
    187 H187        5.4207  -21.1837  -43.3308 H         1 UNK         0.0600 
    188 H188        6.6080  -20.0251  -43.9259 H         1 UNK         0.0600 
    189 H189        3.1206  -19.3043  -44.0085 H         1 UNK         0.3000 
    190 H190       -2.9910  -20.0587  -50.8193 H         1 UNK         0.3000 
    191 H191       -4.6496  -22.0682  -51.7930 H         1 UNK         0.0600 
    192 H192       -5.1646  -19.7053  -52.1198 H         1 UNK         0.0600 
    193 H193       -6.4978  -20.4021  -51.2188 H         1 UNK         0.0600 
    194 H194       -5.2996  -19.4237  -50.3826 H         1 UNK         0.0600 
    195 H195       -4.1088  -21.0958  -48.4222 H         1 UNK         0.3000 
    196 H196       -6.0197  -23.1781  -47.4360 H         1 UNK         0.0600 
    197 H197       -6.4993  -20.8869  -46.6280 H         1 UNK         0.0600 
    198 H198       -4.8450  -20.7107  -46.0473 H         1 UNK         0.0600 
    199 H199       -5.9219  -21.8899  -45.3057 H         1 UNK         0.0600 
    200 H200       -2.7126  -21.7948  -46.9810 H         1 UNK         0.3000 
    201 H201       -1.9872  -23.5893  -44.9185 H         1 UNK         0.0600 
    202 H202       -1.0363  -21.3077  -45.2635 H         1 UNK         0.0600 
    203 H203       -0.2081  -21.8607  -46.7138 H         1 UNK         0.0600 
    204 H204        0.2270  -22.5240  -45.1428 H         1 UNK         0.0600 
    205 H205       -1.4585  -23.7637  -48.4375 H         1 UNK         0.3000 
    206 H206       -0.0188  -26.3708  -48.1453 H         1 UNK         0.0600 
    207 H207        1.1338  -24.5447  -49.4708 H         1 UNK         0.0600 
    208 H208        0.7722  -25.9804  -50.4153 H         1 UNK         0.0600 
    209 H209       -0.2221  -24.5474  -50.5974 H         1 UNK         0.0600 
    210 H210       -3.0660  -25.2111  -48.3661 H         1 UNK         0.3000 
    211 H211       -5.0686  -25.8141  -49.0544 H         1 UNK         0.0600 
    212 H212       -3.9251  -28.6456  -49.3148 H         1 UNK         0.0600 
    213 H213       -5.6205  -28.2158  -49.1331 H         1 UNK         0.0600 
    214 H214       -4.4994  -27.9140  -47.8166 H         1 UNK         0.0600 
    215 H215       -3.3665  -24.7037  -51.0461 H         1 UNK         0.3000 
    216 H216       -3.6442  -26.1287  -53.5333 H         1 UNK         0.0600 
    217 H217       -2.8670  -23.2149  -53.0252 H         1 UNK         0.0600 
    218 H218       -2.5415  -24.1564  -54.4753 H         1 UNK         0.0600 
    219 H219       -1.7503  -24.5770  -52.9661 H         1 UNK         0.0600 
    220 H220       -5.8964  -24.3343  -51.7917 H         1 UNK         0.3000 
    221 H221       -7.9747  -23.7226  -52.0764 H         1 UNK         0.0600 
    222 H222       -7.9077  -24.5340  -55.0340 H         1 UNK         0.0600 
    223 H223       -8.2665  -25.6425  -53.7104 H         1 UNK         0.0600 
    224 H224       -9.3274  -24.2838  -54.0345 H         1 UNK         0.0600 
    225 H225       -9.3963  -22.0804  -53.2408 H         1 UNK         0.3000 
    226 H226       -8.1891  -19.6145  -52.9900 H         1 UNK         0.0600 
    227 H227      -10.8002  -20.3295  -54.4264 H         1 UNK         0.0600 
    228 H228      -10.6113  -20.0162  -52.7003 H         1 UNK         0.0600 
    229 H229      -10.3617  -18.7221  -53.8601 H         1 UNK         0.0600 
    230 H230       -8.4579  -21.4874  -55.9417 H         1 UNK         0.3000 
    231 H231       -7.9624  -19.4943  -57.8882 H         1 UNK         0.0600 
    232 H232       -7.2658  -22.4815  -57.8676 H         1 UNK         0.0600 
    233 H233       -7.2961  -21.4555  -59.2971 H         1 UNK         0.0600 
    234 H234       -8.7846  -21.7746  -58.4221 H         1 UNK         0.0600 
    235 H235       -5.7609  -20.8988  -55.5347 H         1 UNK         0.3000 
    236 H236       -3.3129  -20.3231  -56.9714 H         1 UNK         0.0600 
    237 H237       -3.7864  -20.8596  -53.9928 H         1 UNK         0.0600 
    238 H238       -3.5275  -22.1000  -55.2190 H         1 UNK         0.0600 
    239 H239       -2.2491  -20.9517  -54.8407 H         1 UNK         0.0600 
    240 H240       -5.4994  -18.4000  -55.0007 H         1 UNK         0.3000 
    241 H241       -3.5099  -16.1777  -54.9024 H         1 UNK         0.0600 
    242 H242       -7.2663  -15.3417  -56.0995 H         1 UNK         0.3800 
    243 H243       -6.9073  -16.9943  -55.6719 H         1 UNK         0.3800 
    244 H244       -4.4339  -15.5206  -52.6603 H         1 UNK         0.0800 
    245 H245       -5.3998  -16.9705  -52.6427 H         1 UNK         0.0800 
    246 H246       -1.5837  -16.0658  -53.5385 H         1 UNK         0.0800 
    247 H247       -2.0604  -15.2964  -52.0410 H         1 UNK         0.0800 
@<TRIPOS>BOND
     1    1    2 1    
     2    1  127 1    
     3    1  128 1    
     4    1  129 1    
     5    2    3 2    
     6    2    4 am   BACKBONE|DICT|INTERRES
     7    4    5 1    
     8    4  130 1    
     9    5    6 1    
    10    5   65 1    
    11    5  131 1    
    12    6    7 1    
    13    6  132 1    
    14    6  133 1    
    15    7    8 1    
    16    8    9 1    
    17    8  134 1    
    18    8  135 1    
    19    9   10 ar   
    20    9   14 ar   
    21   10   11 ar   
    22   10  136 1    
    23   11   12 ar   
    24   11  126 1    
    25   12   13 ar   
    26   12  137 1    
    27   13   14 ar   
    28   13   15 1    
    29   14  138 1    
    30   15   16 1    
    31   15  139 1    
    32   15  140 1    
    33   16   17 1    
    34   17   18 1    
    35   17  141 1    
    36   17  142 1    
    37   18   19 1    
    38   18   67 1    
    39   18  143 1    
    40   19   20 am   BACKBONE|DICT|INTERRES
    41   19  144 1    
    42   20   21 2    
    43   20   22 1    
    44   22   23 1    
    45   22   24 1    
    46   22  145 1    
    47   23  146 1    
    48   23  147 1    
    49   23  148 1    
    50   24   25 am   BACKBONE|DICT|INTERRES
    51   24  149 1    
    52   25   26 2    
    53   25   27 1    
    54   27   28 1    
    55   27   29 1    
    56   27  150 1    
    57   28  151 1    
    58   28  152 1    
    59   28  153 1    
    60   29   30 am   BACKBONE|DICT|INTERRES
    61   29  154 1    
    62   30   31 2    
    63   30   32 1    
    64   32   33 1    
    65   32   34 1    
    66   32  155 1    
    67   33  156 1    
    68   33  157 1    
    69   33  158 1    
    70   34   35 am   BACKBONE|DICT|INTERRES
    71   34  159 1    
    72   35   36 2    
    73   35   37 1    
    74   37   38 1    
    75   37   39 1    
    76   37  160 1    
    77   38  161 1    
    78   38  162 1    
    79   38  163 1    
    80   39   40 am   BACKBONE|DICT|INTERRES
    81   39  164 1    
    82   40   41 2    
    83   40   42 1    
    84   42   43 1    
    85   42   44 1    
    86   42  165 1    
    87   43  166 1    
    88   43  167 1    
    89   43  168 1    
    90   44   45 am   BACKBONE|DICT|INTERRES
    91   44  169 1    
    92   45   46 2    
    93   45   47 1    
    94   47   48 1    
    95   47   49 1    
    96   47  170 1    
    97   48  171 1    
    98   48  172 1    
    99   48  173 1    
   100   49   50 am   BACKBONE|DICT|INTERRES
   101   49  174 1    
   102   50   51 2    
   103   50   52 1    
   104   52   53 1    
   105   52   54 1    
   106   52  175 1    
   107   53  176 1    
   108   53  177 1    
   109   53  178 1    
   110   54   55 am   BACKBONE|DICT|INTERRES
   111   54  179 1    
   112   55   56 2    
   113   55   57 1    
   114   57   58 1    
   115   57   59 1    
   116   57  180 1    
   117   58  181 1    
   118   58  182 1    
   119   58  183 1    
   120   59   60 am   BACKBONE|DICT|INTERRES
   121   59  184 1    
   122   60   61 2    
   123   60   62 1    
   124   62   63 1    
   125   62   64 1    
   126   62  185 1    
   127   63  186 1    
   128   63  187 1    
   129   63  188 1    
   130   64   65 am   BACKBONE|DICT|INTERRES
   131   64  189 1    
   132   65   66 2    
   133   67   68 2    
   134   67   69 am   BACKBONE|DICT|INTERRES
   135   69   70 1    
   136   69  190 1    
   137   70   71 1    
   138   70   72 1    
   139   70  191 1    
   140   71  192 1    
   141   71  193 1    
   142   71  194 1    
   143   72   73 2    
   144   72   74 am   BACKBONE|DICT|INTERRES
   145   74   75 1    
   146   74  195 1    
   147   75   76 1    
   148   75   77 1    
   149   75  196 1    
   150   76  197 1    
   151   76  198 1    
   152   76  199 1    
   153   77   78 2    
   154   77   79 am   BACKBONE|DICT|INTERRES
   155   79   80 1    
   156   79  200 1    
   157   80   81 1    
   158   80   82 1    
   159   80  201 1    
   160   81  202 1    
   161   81  203 1    
   162   81  204 1    
   163   82   83 2    
   164   82   84 am   BACKBONE|DICT|INTERRES
   165   84   85 1    
   166   84  205 1    
   167   85   86 1    
   168   85   87 1    
   169   85  206 1    
   170   86  207 1    
   171   86  208 1    
   172   86  209 1    
   173   87   88 2    
   174   87   89 am   BACKBONE|DICT|INTERRES
   175   89   90 1    
   176   89  210 1    
   177   90   91 1    
   178   90   92 1    
   179   90  211 1    
   180   91  212 1    
   181   91  213 1    
   182   91  214 1    
   183   92   93 2    
   184   92   94 am   BACKBONE|DICT|INTERRES
   185   94   95 1    
   186   94  215 1    
   187   95   96 1    
   188   95   97 1    
   189   95  216 1    
   190   96  217 1    
   191   96  218 1    
   192   96  219 1    
   193   97   98 2    
   194   97   99 am   BACKBONE|DICT|INTERRES
   195   99  100 1    
   196   99  220 1    
   197  100  101 1    
   198  100  102 1    
   199  100  221 1    
   200  101  222 1    
   201  101  223 1    
   202  101  224 1    
   203  102  103 2    
   204  102  104 am   BACKBONE|DICT|INTERRES
   205  104  105 1    
   206  104  225 1    
   207  105  106 1    
   208  105  107 1    
   209  105  226 1    
   210  106  227 1    
   211  106  228 1    
   212  106  229 1    
   213  107  108 2    
   214  107  109 am   BACKBONE|DICT|INTERRES
   215  109  110 1    
   216  109  230 1    
   217  110  111 1    
   218  110  112 1    
   219  110  231 1    
   220  111  232 1    
   221  111  233 1    
   222  111  234 1    
   223  112  113 2    
   224  112  114 am   BACKBONE|DICT|INTERRES
   225  114  115 1    
   226  114  235 1    
   227  115  116 1    
   228  115  117 1    
   229  115  236 1    
   230  116  237 1    
   231  116  238 1    
   232  116  239 1    
   233  117  118 2    
   234  117  119 am   BACKBONE|DICT|INTERRES
   235  119  120 1    
   236  119  240 1    
   237  120  121 1    
   238  120  124 1    
   239  120  241 1    
   240  121  122 am   BACKBONE|DICT|INTERRES
   241  121  123 2    
   242  122  242 1    
   243  122  243 1    
   244  124  125 1    
   245  124  244 1    
   246  124  245 1    
   247  125  126 1    
   248  126  246 1    
   249  126  247 1    
@<TRIPOS>SUBSTRUCTURE
     1 UNK         1 GROUP             0       ****    0 ROOT    
