@<TRIPOS>MOLECULE
3R540
247   249    1
SMALL
USER_CHARGES


@<TRIPOS>ATOM
      1 CA          3.7034  -14.6111  -49.0140 C.3       0 UNK        -0.1800 
      2 C           2.4912  -13.8634  -48.4761 C.2       0 UNK         0.5000 
      3 O           2.2479  -12.7246  -48.8750 O.2       0 UNK        -0.5000 
      4 N           1.7324  -14.5075  -47.5810 N.am      1 UNK        -0.5000 
      5 CA          0.5683  -13.9561  -46.8794 C.3       1 UNK         0.1400 
      6 C6         -0.5796  -13.5165  -47.8379 C.3       23 UNK        -0.0398 
      7 S7         -2.2738  -13.6596  -47.1550 S.3       23 UNK        -0.2404 
      8 C8         -2.5030  -15.4354  -46.7797 C.3       23 UNK        -0.0205 
      9 C9         -2.4322  -16.3483  -47.9942 C.ar      23 UNK        -0.0193 
     10 C10        -3.6012  -16.8170  -48.5991 C.ar      23 UNK        -0.1150 
     11 C11        -3.5482  -17.7149  -49.6710 C.ar      23 UNK        -0.0193 
     12 C12        -2.2932  -18.1212  -50.1485 C.ar      23 UNK        -0.1150 
     13 C13        -1.1159  -17.6410  -49.5689 C.ar      23 UNK        -0.0193 
     14 C14        -1.1951  -16.7735  -48.4797 C.ar      23 UNK        -0.1150 
     15 C15         0.2460  -18.0210  -50.1352 C.3       23 UNK        -0.0205 
     16 S16         0.7327  -19.7350  -49.7681 S.3       23 UNK        -0.2404 
     17 C17         0.7500  -19.7718  -47.9417 C.3       23 UNK        -0.0398 
     18 CA          0.0662  -21.0361  -47.3734 C.3       11 UNK         0.1400 
     19 N           0.3795  -21.2341  -45.9578 N.am      11 UNK        -0.5000 
     20 C           0.1503  -22.3681  -45.2824 C.2       10 UNK         0.5000 
     21 O          -0.3737  -23.3652  -45.7790 O.2       10 UNK        -0.5000 
     22 CA          0.5426  -22.3799  -43.7944 C.3       10 UNK         0.1400 
     23 CB          2.0662  -22.4815  -43.6274 C.3       10 UNK        -0.1800 
     24 N           0.0467  -21.2108  -43.0695 N.am      10 UNK        -0.5000 
     25 C          -1.2515  -20.9190  -42.9027 C.2       9 UNK         0.5000 
     26 O          -2.1738  -21.6068  -43.3393 O.2       9 UNK        -0.5000 
     27 CA         -1.5737  -19.6118  -42.1606 C.3       9 UNK         0.1400 
     28 CB         -1.3843  -19.7820  -40.6458 C.3       9 UNK        -0.1800 
     29 N          -0.7683  -18.4869  -42.6310 N.am      9 UNK        -0.5000 
     30 C          -0.7759  -18.0191  -43.8871 C.2       8 UNK         0.5000 
     31 O          -1.4703  -18.4745  -44.7940 O.2       8 UNK        -0.5000 
     32 CA          0.2002  -16.8779  -44.1964 C.3       8 UNK         0.1400 
     33 CB         -0.2735  -15.5657  -43.5471 C.3       8 UNK        -0.1800 
     34 N           1.5613  -17.1759  -43.7640 N.am      8 UNK        -0.5000 
     35 C           2.2999  -18.2177  -44.1699 C.2       7 UNK         0.5000 
     36 O           1.9267  -19.0469  -44.9985 O.2       7 UNK        -0.5000 
     37 CA          3.6754  -18.3779  -43.5049 C.3       7 UNK         0.1400 
     38 CB          4.7237  -17.4996  -44.2045 C.3       7 UNK        -0.1800 
     39 N           3.6266  -18.0474  -42.0812 N.am      7 UNK        -0.5000 
     40 C           3.0135  -18.7937  -41.1520 C.2       6 UNK         0.5000 
     41 O           2.4597  -19.8686  -41.3890 O.2       6 UNK        -0.5000 
     42 CA          2.9825  -18.2127  -39.7263 C.3       6 UNK         0.1400 
     43 CB          4.3324  -18.4185  -39.0224 C.3       6 UNK        -0.1800 
     44 N           2.6331  -16.7897  -39.7067 N.am      6 UNK        -0.5000 
     45 C           1.4292  -16.3112  -40.0487 C.2       5 UNK         0.5000 
     46 O           0.4905  -17.0235  -40.4056 O.2       5 UNK        -0.5000 
     47 CA          1.2412  -14.7816  -40.0111 C.3       5 UNK         0.1400 
     48 CB          0.8821  -14.3238  -38.5897 C.3       5 UNK        -0.1800 
     49 N           2.3710  -13.9824  -40.4989 N.am      5 UNK        -0.5000 
     50 C           3.0288  -14.1342  -41.6559 C.2       4 UNK         0.5000 
     51 O           2.8543  -15.0812  -42.4212 O.2       4 UNK        -0.5000 
     52 CA          4.0234  -13.0147  -42.0268 C.3       4 UNK         0.1400 
     53 CB          4.9934  -13.4407  -43.1436 C.3       4 UNK        -0.1800 
     54 N           3.3258  -11.7950  -42.4448 N.am      4 UNK        -0.5000 
     55 C           2.7024  -10.9412  -41.6202 C.2       3 UNK         0.5000 
     56 O           2.6704  -11.0961  -40.3981 O.2       3 UNK        -0.5000 
     57 CA          1.9999   -9.7106  -42.2348 C.3       3 UNK         0.1400 
     58 CB          2.4822   -8.4184  -41.5540 C.3       3 UNK        -0.1800 
     59 N           2.2026   -9.5611  -43.6808 N.am      3 UNK        -0.5000 
     60 C           1.4660  -10.0596  -44.6845 C.2       2 UNK         0.5000 
     61 O           1.7068   -9.7588  -45.8543 O.2       2 UNK        -0.5000 
     62 CA          0.2789  -11.0073  -44.3832 C.3       2 UNK         0.1400 
     63 CB         -1.0248  -10.2086  -44.2256 C.3       2 UNK        -0.1800 
     64 N           0.0790  -12.0186  -45.4248 N.am      2 UNK        -0.5000 
     65 C           0.9913  -12.9212  -45.8094 C.2       1 UNK         0.5000 
     66 O           2.1114  -13.0028  -45.2987 O.2       1 UNK        -0.5000 
     67 C          -1.4520  -21.0658  -47.6454 C.2       11 UNK         0.5000 
     68 O          -1.8678  -21.6829  -48.6270 O.2       11 UNK        -0.5000 
     69 N          -2.2530  -20.4561  -46.7590 N.am      12 UNK        -0.5000 
     70 CA         -3.7135  -20.4802  -46.8303 C.3       12 UNK         0.1400 
     71 CB         -4.3039  -19.4808  -45.8253 C.3       12 UNK        -0.1800 
     72 C          -4.2929  -21.8888  -46.6068 C.2       12 UNK         0.5000 
     73 O          -5.2045  -22.2833  -47.3336 O.2       12 UNK        -0.5000 
     74 N          -3.7375  -22.6363  -45.6400 N.am      13 UNK        -0.5000 
     75 CA         -4.1116  -24.0235  -45.3490 C.3       13 UNK         0.1400 
     76 CB         -3.4608  -24.4747  -44.0329 C.3       13 UNK        -0.1800 
     77 C          -3.7514  -24.9908  -46.4913 C.2       13 UNK         0.5000 
     78 O          -4.5445  -25.8771  -46.8107 O.2       13 UNK        -0.5000 
     79 N          -2.5788  -24.7845  -47.1059 N.am      14 UNK        -0.5000 
     80 CA         -2.1161  -25.5199  -48.2846 C.3       14 UNK         0.1400 
     81 CB         -0.5975  -25.3268  -48.4232 C.3       14 UNK        -0.1800 
     82 C          -2.8192  -25.0929  -49.5883 C.2       14 UNK         0.5000 
     83 O          -2.6798  -25.7868  -50.5955 O.2       14 UNK        -0.5000 
     84 N          -3.5085  -23.9435  -49.5646 N.am      15 UNK        -0.5000 
     85 CA         -4.1374  -23.2467  -50.6897 C.3       15 UNK         0.1400 
     86 CB         -5.3773  -24.0176  -51.1848 C.3       15 UNK        -0.1800 
     87 C          -3.1292  -22.9295  -51.8140 C.2       15 UNK         0.5000 
     88 O          -3.4128  -23.1765  -52.9855 O.2       15 UNK        -0.5000 
     89 N          -1.9403  -22.4466  -51.4203 N.am      16 UNK        -0.5000 
     90 CA         -0.7657  -22.2017  -52.2676 C.3       16 UNK         0.1400 
     91 CB         -0.9802  -20.9565  -53.1504 C.3       16 UNK        -0.1800 
     92 C          -0.3376  -23.4488  -53.0743 C.2       16 UNK         0.5000 
     93 O          -0.0642  -23.3522  -54.2717 O.2       16 UNK        -0.5000 
     94 N          -0.3109  -24.5994  -52.3847 N.am      17 UNK        -0.5000 
     95 CA         -0.0645  -25.9475  -52.9060 C.3       17 UNK         0.1400 
     96 CB          1.3540  -26.0749  -53.5015 C.3       17 UNK        -0.1800 
     97 C          -1.1835  -26.4074  -53.8637 C.2       17 UNK         0.5000 
     98 O          -0.9121  -26.8084  -54.9973 O.2       17 UNK        -0.5000 
     99 N          -2.4247  -26.3475  -53.3604 N.am      18 UNK        -0.5000 
    100 CA        -3.6739  -26.7784  -53.9954 C.3       18 UNK         0.1400 
    101 CB        -3.7013  -28.3148  -54.1382 C.3       18 UNK        -0.1800 
    102 C         -3.9947  -26.0425  -55.3140 C.2       18 UNK         0.5000 
    103 O         -4.4681  -26.6629  -56.2690 O.2       18 UNK        -0.5000 
    104 N         -3.7465  -24.7288  -55.3430 N.am      19 UNK        -0.5000 
    105 CA        -4.1194  -23.8441  -56.4415 C.3       19 UNK         0.1400 
    106 CB        -3.1176  -22.6832  -56.5080 C.3       19 UNK        -0.1800 
    107 C         -5.5507  -23.3245  -56.2259 C.2       19 UNK         0.5000 
    108 O         -5.9445  -23.0591  -55.0864 O.2       19 UNK        -0.5000 
    109 N         -6.3014  -23.1712  -57.3248 N.am      20 UNK        -0.5000 
    110 CA        -7.6797  -22.6762  -57.3419 C.3       20 UNK         0.1400 
    111 CB        -8.2289  -22.7580  -58.7752 C.3       20 UNK        -0.1800 
    112 C         -7.7640  -21.2411  -56.7923 C.2       20 UNK         0.5000 
    113 O         -7.2375  -20.3200  -57.4206 O.2       20 UNK        -0.5000 
    114 N         -8.3576  -21.0978  -55.5981 N.am      21 UNK        -0.5000 
    115 CA        -8.4562  -19.8651  -54.8036 C.3       21 UNK         0.1400 
    116 CB        -9.4416  -18.8791  -55.4656 C.3       21 UNK        -0.1800 
    117 C         -7.0820  -19.2244  -54.4964 C.2       21 UNK         0.5000 
    118 O         -6.9748  -17.9983  -54.4377 O.2       21 UNK        -0.5000 
    119 N         -6.0550  -20.0723  -54.3405 N.am      22 UNK        -0.5000 
    120 CA        -4.6323  -19.7117  -54.2104 C.3       22 UNK         0.1400 
    121 C         -3.9844  -19.1504  -55.5154 C.2       22 UNK         0.5000 
    122 N         -4.6251  -19.2236  -56.6768 N.am      22 UNK        -0.7600 
    123 O         -2.8574  -18.6647  -55.4876 O.2       22 UNK        -0.5000 
    124 C124       -4.3115  -18.8302  -52.9690 C.3       23 UNK        -0.0398 
    125 S125       -4.7881  -19.6276  -51.3980 S.3       23 UNK        -0.2404 
    126 C126       -4.8753  -18.1990  -50.2638 C.3       23 UNK        -0.0205 
    127 H127        3.6343  -14.7076  -50.0975 H         1 UNK         0.0600 
    128 H128        3.7857  -15.6117  -48.5887 H         1 UNK         0.0600 
    129 H129        4.6162  -14.0648  -48.7764 H         1 UNK         0.0600 
    130 H130        2.0342  -15.4168  -47.2628 H         1 UNK         0.3000 
    131 H131        0.2027  -14.7951  -46.2989 H         1 UNK         0.0600 
    132 H132       -0.4252  -12.4896  -48.1733 H         1 UNK         0.0800 
    133 H133       -0.5553  -14.1095  -48.7523 H         1 UNK         0.0800 
    134 H134       -3.4722  -15.5531  -46.2928 H         1 UNK         0.0800 
    135 H135       -1.7770  -15.7685  -46.0456 H         1 UNK         0.0800 
    136 H136       -4.5611  -16.4962  -48.2191 H         1 UNK         0.1150 
    137 H137       -2.2128  -18.8138  -50.9689 H         1 UNK         0.1150 
    138 H138       -0.2870  -16.4258  -48.0130 H         1 UNK         0.1150 
    139 H139        0.2274  -17.8903  -51.2181 H         1 UNK         0.0800 
    140 H140        1.0200  -17.3471  -49.7644 H         1 UNK         0.0800 
    141 H141        0.3020  -18.8726  -47.5195 H         1 UNK         0.0800 
    142 H142        1.7969  -19.7517  -47.6364 H         1 UNK         0.0800 
    143 H143        0.4925  -21.8938  -47.8988 H         1 UNK         0.0600 
    144 H144        0.8276  -20.4539  -45.4815 H         1 UNK         0.3000 
    145 H145        0.0930  -23.2661  -43.3418 H         1 UNK         0.0600 
    146 H146        2.3410  -22.5778  -42.5768 H         1 UNK         0.0600 
    147 H147        2.4591  -23.3555  -44.1484 H         1 UNK         0.0600 
    148 H148        2.5764  -21.6039  -44.0254 H         1 UNK         0.0600 
    149 H149        0.7425  -20.5899  -42.6743 H         1 UNK         0.3000 
    150 H150       -2.6221  -19.3723  -42.3498 H         1 UNK         0.0600 
    151 H151       -1.9728  -20.6193  -40.2687 H         1 UNK         0.0600 
    152 H152       -1.7049  -18.8899  -40.1074 H         1 UNK         0.0600 
    153 H153       -0.3407  -19.9685  -40.3888 H         1 UNK         0.0600 
    154 H154       -0.1767  -18.0332  -41.9402 H         1 UNK         0.3000 
    155 H155        0.2329  -16.7589  -45.2790 H         1 UNK         0.0600 
    156 H156       -0.4209  -15.6809  -42.4757 H         1 UNK         0.0600 
    157 H157       -1.2261  -15.2321  -43.9559 H         1 UNK         0.0600 
    158 H158        0.4472  -14.7630  -43.6921 H         1 UNK         0.0600 
    159 H159        1.9891  -16.5093  -43.1240 H         1 UNK         0.3000 
    160 H160        3.9798  -19.4217  -43.6067 H         1 UNK         0.0600 
    161 H161        4.4714  -16.4404  -44.1443 H         1 UNK         0.0600 
    162 H162        4.8030  -17.7569  -45.2615 H         1 UNK         0.0600 
    163 H163        5.7107  -17.6350  -43.7621 H         1 UNK         0.0600 
    164 H164        3.9825  -17.1403  -41.8159 H         1 UNK         0.3000 
    165 H165        2.2206  -18.7569  -39.1639 H         1 UNK         0.0600 
    166 H166        4.2899  -18.0866  -37.9849 H         1 UNK         0.0600 
    167 H167        4.6105  -19.4733  -39.0139 H         1 UNK         0.0600 
    168 H168        5.1353  -17.8711  -39.5175 H         1 UNK         0.0600 
    169 H169        3.3538  -16.1383  -39.4327 H         1 UNK         0.3000 
    170 H170        0.3937  -14.5445  -40.6550 H         1 UNK         0.0600 
    171 H171        0.0254  -14.8781  -38.2036 H         1 UNK         0.0600 
    172 H172        1.7112  -14.4750  -37.8974 H         1 UNK         0.0600 
    173 H173        0.6180  -13.2662  -38.5707 H         1 UNK         0.0600 
    174 H174        2.5570  -13.1276  -39.9862 H         1 UNK         0.3000 
    175 H175        4.6200  -12.7944  -41.1391 H         1 UNK         0.0600 
    176 H176        4.4691  -13.6566  -44.0753 H         1 UNK         0.0600 
    177 H177        5.7278  -12.6612  -43.3463 H         1 UNK         0.0600 
    178 H178        5.5432  -14.3393  -42.8613 H         1 UNK         0.0600 
    179 H179        3.2771  -11.6328  -43.4413 H         1 UNK         0.3000 
    180 H180        0.9359   -9.8084  -42.0174 H         1 UNK         0.0600 
    181 H181        3.5523   -8.2632  -41.6969 H         1 UNK         0.0600 
    182 H182        2.2948   -8.4424  -40.4796 H         1 UNK         0.0600 
    183 H183        1.9610   -7.5462  -41.9493 H         1 UNK         0.0600 
    184 H184        2.9810   -8.9697  -43.9326 H         1 UNK         0.3000 
    185 H185        0.4707  -11.5545  -43.4598 H         1 UNK         0.0600 
    186 H186       -0.9349   -9.4474  -43.4501 H         1 UNK         0.0600 
    187 H187       -1.2952   -9.6986  -45.1512 H         1 UNK         0.0600 
    188 H188       -1.8546  -10.8581  -43.9461 H         1 UNK         0.0600 
    189 H189       -0.8219  -12.0189  -45.8824 H         1 UNK         0.3000 
    190 H190       -1.8464  -19.9301  -45.9898 H         1 UNK         0.3000 
    191 H191       -4.0019  -20.1583  -47.8334 H         1 UNK         0.0600 
    192 H192       -3.9626  -18.4668  -46.0341 H         1 UNK         0.0600 
    193 H193       -5.3933  -19.4737  -45.8743 H         1 UNK         0.0600 
    194 H194       -4.0198  -19.7257  -44.8011 H         1 UNK         0.0600 
    195 H195       -3.0170  -22.2297  -45.0507 H         1 UNK         0.3000 
    196 H196       -5.1952  -24.0569  -45.2176 H         1 UNK         0.0600 
    197 H197       -3.7240  -25.5069  -43.7990 H         1 UNK         0.0600 
    198 H198       -3.7942  -23.8582  -43.1980 H         1 UNK         0.0600 
    199 H199       -2.3729  -24.4145  -44.0800 H         1 UNK         0.0600 
    200 H200       -1.9485  -24.0787  -46.7351 H         1 UNK         0.3000 
    201 H201       -2.3153  -26.5829  -48.1352 H         1 UNK         0.0600 
    202 H202       -0.0746  -25.6645  -47.5283 H         1 UNK         0.0600 
    203 H203       -0.3398  -24.2792  -48.5847 H         1 UNK         0.0600 
    204 H204       -0.2020  -25.8984  -49.2638 H         1 UNK         0.0600 
    205 H205       -3.5131  -23.4298  -48.6934 H         1 UNK         0.3000 
    206 H206       -4.4776  -22.2894  -50.2960 H         1 UNK         0.0600 
    207 H207       -6.0923  -24.1691  -50.3764 H         1 UNK         0.0600 
    208 H208       -5.8903  -23.4664  -51.9743 H         1 UNK         0.0600 
    209 H209       -5.1132  -24.9953  -51.5859 H         1 UNK         0.0600 
    210 H210       -1.8241  -22.2468  -50.4284 H         1 UNK         0.3000 
    211 H211        0.0608  -21.9866  -51.5904 H         1 UNK         0.0600 
    212 H212       -1.7824  -21.1047  -53.8713 H         1 UNK         0.0600 
    213 H213       -0.0774  -20.7141  -53.7117 H         1 UNK         0.0600 
    214 H214       -1.2247  -20.0844  -52.5478 H         1 UNK         0.0600 
    215 H215       -0.6079  -24.5630  -51.4206 H         1 UNK         0.3000 
    216 H216       -0.1111  -26.6159  -52.0448 H         1 UNK         0.0600 
    217 H217        1.5713  -27.1109  -53.7633 H         1 UNK         0.0600 
    218 H218        2.1118  -25.7551  -52.7864 H         1 UNK         0.0600 
    219 H219        1.4748  -25.4807  -54.4074 H         1 UNK         0.0600 
    220 H220       -2.5270  -26.0108  -52.4044 H         1 UNK         0.3000 
    221 H221       -4.4707  -26.5050  -53.3036 H         1 UNK         0.0600 
    222 H222       -2.9576  -28.6681  -54.8532 H         1 UNK         0.0600 
    223 H223       -3.5068  -28.8024  -53.1829 H         1 UNK         0.0600 
    224 H224       -4.6768  -28.6593  -54.4832 H         1 UNK         0.0600 
    225 H225       -3.4602  -24.2633  -54.4832 H         1 UNK         0.3000 
    226 H226       -4.0738  -24.3883  -57.3872 H         1 UNK         0.0600 
    227 H227       -2.1079  -23.0461  -56.7008 H         1 UNK         0.0600 
    228 H228       -3.3742  -21.9851  -57.3057 H         1 UNK         0.0600 
    229 H229       -3.0930  -22.1240  -55.5743 H         1 UNK         0.0600 
    230 H230       -5.8952  -23.3803  -58.2251 H         1 UNK         0.3000 
    231 H231       -8.2817  -23.3344  -56.7119 H         1 UNK         0.0600 
    232 H232       -7.6398  -22.1569  -59.4691 H         1 UNK         0.0600 
    233 H233       -9.2570  -22.3963  -58.8193 H         1 UNK         0.0600 
    234 H234       -8.2307  -23.7855  -59.1393 H         1 UNK         0.0600 
    235 H235       -8.7101  -21.9293  -55.1442 H         1 UNK         0.3000 
    236 H236       -8.8755  -20.1534  -53.8387 H         1 UNK         0.0600 
    237 H237      -10.4046  -19.3526  -55.6563 H         1 UNK         0.0600 
    238 H238       -9.6272  -18.0183  -54.8222 H         1 UNK         0.0600 
    239 H239       -9.0594  -18.5021  -56.4147 H         1 UNK         0.0600 
    240 H240       -6.2335  -21.0665  -54.4348 H         1 UNK         0.3000 
    241 H241       -4.1289  -20.6645  -54.0519 H         1 UNK         0.0600 
    242 H242       -4.1772  -18.8595  -57.5022 H         1 UNK         0.3800 
    243 H243       -5.5616  -19.6087  -56.7519 H         1 UNK         0.3800 
    244 H244       -3.2433  -18.6204  -52.9233 H         1 UNK         0.0800 
    245 H245       -4.7996  -17.8589  -53.0493 H         1 UNK         0.0800 
    246 H246       -5.3669  -17.3658  -50.7673 H         1 UNK         0.0800 
    247 H247       -5.5320  -18.4853  -49.4409 H         1 UNK         0.0800 
@<TRIPOS>BOND
     1    1    2 1    
     2    1  127 1    
     3    1  128 1    
     4    1  129 1    
     5    2    3 2    
     6    2    4 am   BACKBONE|DICT|INTERRES
     7    4    5 1    
     8    4  130 1    
     9    5    6 1    
    10    5   65 1    
    11    5  131 1    
    12    6    7 1    
    13    6  132 1    
    14    6  133 1    
    15    7    8 1    
    16    8    9 1    
    17    8  134 1    
    18    8  135 1    
    19    9   10 ar   
    20    9   14 ar   
    21   10   11 ar   
    22   10  136 1    
    23   11   12 ar   
    24   11  126 1    
    25   12   13 ar   
    26   12  137 1    
    27   13   14 ar   
    28   13   15 1    
    29   14  138 1    
    30   15   16 1    
    31   15  139 1    
    32   15  140 1    
    33   16   17 1    
    34   17   18 1    
    35   17  141 1    
    36   17  142 1    
    37   18   19 1    
    38   18   67 1    
    39   18  143 1    
    40   19   20 am   BACKBONE|DICT|INTERRES
    41   19  144 1    
    42   20   21 2    
    43   20   22 1    
    44   22   23 1    
    45   22   24 1    
    46   22  145 1    
    47   23  146 1    
    48   23  147 1    
    49   23  148 1    
    50   24   25 am   BACKBONE|DICT|INTERRES
    51   24  149 1    
    52   25   26 2    
    53   25   27 1    
    54   27   28 1    
    55   27   29 1    
    56   27  150 1    
    57   28  151 1    
    58   28  152 1    
    59   28  153 1    
    60   29   30 am   BACKBONE|DICT|INTERRES
    61   29  154 1    
    62   30   31 2    
    63   30   32 1    
    64   32   33 1    
    65   32   34 1    
    66   32  155 1    
    67   33  156 1    
    68   33  157 1    
    69   33  158 1    
    70   34   35 am   BACKBONE|DICT|INTERRES
    71   34  159 1    
    72   35   36 2    
    73   35   37 1    
    74   37   38 1    
    75   37   39 1    
    76   37  160 1    
    77   38  161 1    
    78   38  162 1    
    79   38  163 1    
    80   39   40 am   BACKBONE|DICT|INTERRES
    81   39  164 1    
    82   40   41 2    
    83   40   42 1    
    84   42   43 1    
    85   42   44 1    
    86   42  165 1    
    87   43  166 1    
    88   43  167 1    
    89   43  168 1    
    90   44   45 am   BACKBONE|DICT|INTERRES
    91   44  169 1    
    92   45   46 2    
    93   45   47 1    
    94   47   48 1    
    95   47   49 1    
    96   47  170 1    
    97   48  171 1    
    98   48  172 1    
    99   48  173 1    
   100   49   50 am   BACKBONE|DICT|INTERRES
   101   49  174 1    
   102   50   51 2    
   103   50   52 1    
   104   52   53 1    
   105   52   54 1    
   106   52  175 1    
   107   53  176 1    
   108   53  177 1    
   109   53  178 1    
   110   54   55 am   BACKBONE|DICT|INTERRES
   111   54  179 1    
   112   55   56 2    
   113   55   57 1    
   114   57   58 1    
   115   57   59 1    
   116   57  180 1    
   117   58  181 1    
   118   58  182 1    
   119   58  183 1    
   120   59   60 am   BACKBONE|DICT|INTERRES
   121   59  184 1    
   122   60   61 2    
   123   60   62 1    
   124   62   63 1    
   125   62   64 1    
   126   62  185 1    
   127   63  186 1    
   128   63  187 1    
   129   63  188 1    
   130   64   65 am   BACKBONE|DICT|INTERRES
   131   64  189 1    
   132   65   66 2    
   133   67   68 2    
   134   67   69 am   BACKBONE|DICT|INTERRES
   135   69   70 1    
   136   69  190 1    
   137   70   71 1    
   138   70   72 1    
   139   70  191 1    
   140   71  192 1    
   141   71  193 1    
   142   71  194 1    
   143   72   73 2    
   144   72   74 am   BACKBONE|DICT|INTERRES
   145   74   75 1    
   146   74  195 1    
   147   75   76 1    
   148   75   77 1    
   149   75  196 1    
   150   76  197 1    
   151   76  198 1    
   152   76  199 1    
   153   77   78 2    
   154   77   79 am   BACKBONE|DICT|INTERRES
   155   79   80 1    
   156   79  200 1    
   157   80   81 1    
   158   80   82 1    
   159   80  201 1    
   160   81  202 1    
   161   81  203 1    
   162   81  204 1    
   163   82   83 2    
   164   82   84 am   BACKBONE|DICT|INTERRES
   165   84   85 1    
   166   84  205 1    
   167   85   86 1    
   168   85   87 1    
   169   85  206 1    
   170   86  207 1    
   171   86  208 1    
   172   86  209 1    
   173   87   88 2    
   174   87   89 am   BACKBONE|DICT|INTERRES
   175   89   90 1    
   176   89  210 1    
   177   90   91 1    
   178   90   92 1    
   179   90  211 1    
   180   91  212 1    
   181   91  213 1    
   182   91  214 1    
   183   92   93 2    
   184   92   94 am   BACKBONE|DICT|INTERRES
   185   94   95 1    
   186   94  215 1    
   187   95   96 1    
   188   95   97 1    
   189   95  216 1    
   190   96  217 1    
   191   96  218 1    
   192   96  219 1    
   193   97   98 2    
   194   97   99 am   BACKBONE|DICT|INTERRES
   195   99  100 1    
   196   99  220 1    
   197  100  101 1    
   198  100  102 1    
   199  100  221 1    
   200  101  222 1    
   201  101  223 1    
   202  101  224 1    
   203  102  103 2    
   204  102  104 am   BACKBONE|DICT|INTERRES
   205  104  105 1    
   206  104  225 1    
   207  105  106 1    
   208  105  107 1    
   209  105  226 1    
   210  106  227 1    
   211  106  228 1    
   212  106  229 1    
   213  107  108 2    
   214  107  109 am   BACKBONE|DICT|INTERRES
   215  109  110 1    
   216  109  230 1    
   217  110  111 1    
   218  110  112 1    
   219  110  231 1    
   220  111  232 1    
   221  111  233 1    
   222  111  234 1    
   223  112  113 2    
   224  112  114 am   BACKBONE|DICT|INTERRES
   225  114  115 1    
   226  114  235 1    
   227  115  116 1    
   228  115  117 1    
   229  115  236 1    
   230  116  237 1    
   231  116  238 1    
   232  116  239 1    
   233  117  118 2    
   234  117  119 am   BACKBONE|DICT|INTERRES
   235  119  120 1    
   236  119  240 1    
   237  120  121 1    
   238  120  124 1    
   239  120  241 1    
   240  121  122 am   BACKBONE|DICT|INTERRES
   241  121  123 2    
   242  122  242 1    
   243  122  243 1    
   244  124  125 1    
   245  124  244 1    
   246  124  245 1    
   247  125  126 1    
   248  126  246 1    
   249  126  247 1    
@<TRIPOS>SUBSTRUCTURE
     1 UNK         1 GROUP             0       ****    0 ROOT    
