@<TRIPOS>MOLECULE
3R540
247   249    1
SMALL
USER_CHARGES


@<TRIPOS>ATOM
      1 CA          4.9005  -13.7730  -45.6999 C.3       0 UNK        -0.1800 
      2 C           3.7570  -13.4218  -46.6411 C.2       0 UNK         0.5000 
      3 O           3.9921  -12.8238  -47.6916 O.2       0 UNK        -0.5000 
      4 N           2.5231  -13.7772  -46.2591 N.am      1 UNK        -0.5000 
      5 CA          1.2562  -13.5451  -46.9642 C.3       1 UNK         0.1400 
      6 C6          1.1941  -14.0989  -48.4147 C.3       23 UNK        -0.0398 
      7 S7          1.5694  -15.8828  -48.4958 S.3       23 UNK        -0.2404 
      8 C8          0.4550  -16.4375  -49.8346 C.3       23 UNK        -0.0205 
      9 C9          0.5504  -17.9320  -50.1470 C.ar      23 UNK        -0.0193 
     10 C10        -0.5878  -18.6265  -50.5735 C.ar      23 UNK        -0.1150 
     11 C11        -0.5158  -19.9849  -50.9057 C.ar      23 UNK        -0.0193 
     12 C12         0.7032  -20.6560  -50.7918 C.ar      23 UNK        -0.1150 
     13 C13         1.8446  -19.9821  -50.3505 C.ar      23 UNK        -0.0193 
     14 C14         1.7647  -18.6209  -50.0492 C.ar      23 UNK        -0.1150 
     15 C15         3.1646  -20.7186  -50.1696 C.3       23 UNK        -0.0205 
     16 S16         3.0350  -22.1725  -49.0758 S.3       23 UNK        -0.2404 
     17 C17         2.1421  -21.5211  -47.6161 C.3       23 UNK        -0.0398 
     18 CA          1.4034  -22.6379  -46.8454 C.3       11 UNK         0.1400 
     19 N           1.0071  -22.2105  -45.5043 N.am      11 UNK        -0.5000 
     20 C           0.6471  -23.0571  -44.5299 C.2       10 UNK         0.5000 
     21 O           0.6370  -24.2823  -44.6584 O.2       10 UNK        -0.5000 
     22 CA          0.1893  -22.4288  -43.2023 C.3       10 UNK         0.1400 
     23 CB          1.3955  -21.9433  -42.3844 C.3       10 UNK        -0.1800 
     24 N          -0.7525  -21.3255  -43.3953 N.am      10 UNK        -0.5000 
     25 C          -1.9670  -21.4571  -43.9484 C.2       9 UNK         0.5000 
     26 O          -2.4315  -22.5307  -44.3337 O.2       9 UNK        -0.5000 
     27 CA         -2.7873  -20.1682  -44.1374 C.3       9 UNK         0.1400 
     28 CB         -3.4262  -19.7268  -42.8122 C.3       9 UNK        -0.1800 
     29 N          -2.0027  -19.0650  -44.6916 N.am      9 UNK        -0.5000 
     30 C          -1.3918  -19.0805  -45.8848 C.2       8 UNK         0.5000 
     31 O          -1.4197  -20.0298  -46.6607 O.2       8 UNK        -0.5000 
     32 CA         -0.5586  -17.8465  -46.2517 C.3       8 UNK         0.1400 
     33 CB         -1.4761  -16.6790  -46.6528 C.3       8 UNK        -0.1800 
     34 N           0.3371  -17.4616  -45.1599 N.am      8 UNK        -0.5000 
     35 C           1.3260  -18.2401  -44.6906 C.2       7 UNK         0.5000 
     36 O           1.6309  -19.3332  -45.1696 O.2       7 UNK        -0.5000 
     37 CA          2.0600  -17.7395  -43.4361 C.3       7 UNK         0.1400 
     38 CB          3.1964  -16.7797  -43.8160 C.3       7 UNK        -0.1800 
     39 N           1.1459  -17.0845  -42.4999 N.am      7 UNK        -0.5000 
     40 C           0.2297  -17.7381  -41.7687 C.2       6 UNK         0.5000 
     41 O           0.0918  -18.9613  -41.7829 O.2       6 UNK        -0.5000 
     42 CA         -0.7263  -16.8797  -40.9175 C.3       6 UNK         0.1400 
     43 CB         -0.0957  -16.5582  -39.5547 C.3       6 UNK        -0.1800 
     44 N          -1.1084  -15.6323  -41.5810 N.am      6 UNK        -0.5000 
     45 C          -1.7895  -15.5647  -42.7333 C.2       5 UNK         0.5000 
     46 O          -2.2467  -16.5533  -43.3050 O.2       5 UNK        -0.5000 
     47 CA         -1.9507  -14.1767  -43.3846 C.3       5 UNK         0.1400 
     48 CB         -3.3548  -13.6172  -43.1144 C.3       5 UNK        -0.1800 
     49 N          -0.9521  -13.1872  -42.9666 N.am      5 UNK        -0.5000 
     50 C           0.3708  -13.2867  -43.1539 C.2       4 UNK         0.5000 
     51 O           0.9168  -14.2586  -43.6820 O.2       4 UNK        -0.5000 
     52 CA          1.1962  -12.0785  -42.6925 C.3       4 UNK         0.1400 
     53 CB          2.7134  -12.2566  -42.8924 C.3       4 UNK        -0.1800 
     54 N           0.7310  -10.8956  -43.4089 N.am      4 UNK        -0.5000 
     55 C           0.8295   -9.6335  -42.9729 C.2       3 UNK         0.5000 
     56 O           1.2746   -9.3318  -41.8640 O.2       3 UNK        -0.5000 
     57 CA          0.3462   -8.5294  -43.9421 C.3       3 UNK         0.1400 
     58 CB          0.9894   -7.1552  -43.6597 C.3       3 UNK        -0.1800 
     59 N           0.4948   -8.8995  -45.3563 N.am      3 UNK        -0.5000 
     60 C           1.6351   -9.1817  -46.0040 C.2       2 UNK         0.5000 
     61 O           2.7596   -9.0958  -45.5070 O.2       2 UNK        -0.5000 
     62 CA          1.4766   -9.7199  -47.4376 C.3       2 UNK         0.1400 
     63 CB          2.4912   -9.0825  -48.4011 C.3       2 UNK        -0.1800 
     64 N           1.6442  -11.1718  -47.4635 N.am      2 UNK        -0.5000 
     65 C           0.8312  -12.0665  -46.8877 C.2       1 UNK         0.5000 
     66 O          -0.1965  -11.7629  -46.2794 O.2       1 UNK        -0.5000 
     67 C           0.2132  -23.2314  -47.6315 C.2       11 UNK         0.5000 
     68 O           0.3848  -24.2616  -48.2790 O.2       11 UNK        -0.5000 
     69 N          -0.9801  -22.6307  -47.5179 N.am      12 UNK        -0.5000 
     70 CA         -2.2218  -23.1191  -48.1223 C.3       12 UNK         0.1400 
     71 CB         -3.3572  -22.1108  -47.8823 C.3       12 UNK        -0.1800 
     72 C          -2.6295  -24.5166  -47.6302 C.2       12 UNK         0.5000 
     73 O          -3.0438  -25.3466  -48.4401 O.2       12 UNK        -0.5000 
     74 N          -2.4641  -24.7685  -46.3242 N.am      13 UNK        -0.5000 
     75 CA         -2.6894  -26.0730  -45.7021 C.3       13 UNK         0.1400 
     76 CB         -2.6153  -25.9314  -44.1745 C.3       13 UNK        -0.1800 
     77 C          -1.7091  -27.1525  -46.2007 C.2       13 UNK         0.5000 
     78 O          -2.1168  -28.3003  -46.3810 O.2       13 UNK        -0.5000 
     79 N          -0.4470  -26.7655  -46.4326 N.am      14 UNK        -0.5000 
     80 CA          0.5953  -27.6343  -46.9796 C.3       14 UNK         0.1400 
     81 CB          1.9744  -27.0157  -46.7013 C.3       14 UNK        -0.1800 
     82 C           0.4048  -27.9053  -48.4844 C.2       14 UNK         0.5000 
     83 O           0.5421  -29.0496  -48.9185 O.2       14 UNK        -0.5000 
     84 N           0.0904  -26.8514  -49.2494 N.am      15 UNK        -0.5000 
     85 CA         -0.1258  -26.8917  -50.6970 C.3       15 UNK         0.1400 
     86 CB         -0.0896  -25.4560  -51.2474 C.3       15 UNK        -0.1800 
     87 C          -1.4438  -27.5748  -51.1046 C.2       15 UNK         0.5000 
     88 O          -1.5301  -28.0917  -52.2191 O.2       15 UNK        -0.5000 
     89 N          -2.4405  -27.5413  -50.2080 N.am      16 UNK        -0.5000 
     90 CA         -3.8270  -27.9766  -50.3984 C.3       16 UNK         0.1400 
     91 CB         -3.9114  -29.4969  -50.6497 C.3       16 UNK        -0.1800 
     92 C          -4.5549  -27.1306  -51.4653 C.2       16 UNK         0.5000 
     93 O          -5.3106  -27.6653  -52.2792 O.2       16 UNK        -0.5000 
     94 N          -4.3068  -25.8166  -51.4368 N.am      17 UNK        -0.5000 
     95 CA         -4.8984  -24.8142  -52.3148 C.3       17 UNK         0.1400 
     96 CB         -4.0027  -24.6043  -53.5471 C.3       17 UNK        -0.1800 
     97 C          -5.0393  -23.5187  -51.5105 C.2       17 UNK         0.5000 
     98 O          -4.1175  -23.1686  -50.7744 O.2       17 UNK        -0.5000 
     99 N          -6.1843  -22.8418  -51.6474 N.am      18 UNK        -0.5000 
    100 CA        -6.4975  -21.5962  -50.9460 C.3       18 UNK         0.1400 
    101 CB        -7.9963  -21.3032  -51.1220 C.3       18 UNK        -0.1800 
    102 C         -5.6679  -20.4062  -51.4588 C.2       18 UNK         0.5000 
    103 O         -5.2146  -20.4167  -52.6046 O.2       18 UNK        -0.5000 
    104 N         -5.5562  -19.3542  -50.6361 N.am      19 UNK        -0.5000 
    105 CA        -4.8955  -18.0902  -50.9861 C.3       19 UNK         0.1400 
    106 CB        -4.8871  -17.1612  -49.7637 C.3       19 UNK        -0.1800 
    107 C         -5.5143  -17.3877  -52.2120 C.2       19 UNK         0.5000 
    108 O         -4.7897  -16.7550  -52.9797 O.2       19 UNK        -0.5000 
    109 N         -6.8281  -17.5675  -52.4067 N.am      20 UNK        -0.5000 
    110 CA        -7.5729  -17.1104  -53.5805 C.3       20 UNK         0.1400 
    111 CB        -9.0766  -17.2568  -53.3013 C.3       20 UNK        -0.1800 
    112 C         -7.1931  -17.8510  -54.8802 C.2       20 UNK         0.5000 
    113 O         -7.3347  -17.2739  -55.9590 O.2       20 UNK        -0.5000 
    114 N         -6.7209  -19.1009  -54.7638 N.am      21 UNK        -0.5000 
    115 CA        -6.2130  -19.8963  -55.8813 C.3       21 UNK         0.1400 
    116 CB        -6.4259  -21.3927  -55.5968 C.3       21 UNK        -0.1800 
    117 C         -4.7295  -19.5883  -56.1461 C.2       21 UNK         0.5000 
    118 O         -4.3344  -19.4832  -57.3081 O.2       21 UNK        -0.5000 
    119 N         -3.9431  -19.4353  -55.0714 N.am      22 UNK        -0.5000 
    120 CA        -2.5253  -19.0429  -55.1243 C.3       22 UNK         0.1400 
    121 C         -2.2945  -17.6025  -55.6628 C.2       22 UNK         0.5000 
    122 N         -3.1101  -16.6250  -55.2878 N.am      22 UNK        -0.7600 
    123 O         -1.3654  -17.3707  -56.4315 O.2       22 UNK        -0.5000 
    124 C124       -1.8173  -19.2163  -53.7591 C.3       23 UNK        -0.0398 
    125 S125       -1.7789  -20.9486  -53.1898 S.3       23 UNK        -0.2404 
    126 C126       -1.7496  -20.7390  -51.3808 C.3       23 UNK        -0.0205 
    127 H127        5.5608  -14.5023  -46.1689 H         1 UNK         0.0600 
    128 H128        4.5412  -14.1921  -44.7602 H         1 UNK         0.0600 
    129 H129        5.4831  -12.8811  -45.4695 H         1 UNK         0.0600 
    130 H130        2.4006  -14.2173  -45.3559 H         1 UNK         0.3000 
    131 H131        0.5152  -14.0934  -46.3828 H         1 UNK         0.0600 
    132 H132        0.1989  -13.9316  -48.8301 H         1 UNK         0.0800 
    133 H133        1.8874  -13.5737  -49.0727 H         1 UNK         0.0800 
    134 H134        0.6870  -15.8798  -50.7427 H         1 UNK         0.0800 
    135 H135       -0.5696  -16.1813  -49.5615 H         1 UNK         0.0800 
    136 H136       -1.5296  -18.1045  -50.6581 H         1 UNK         0.1150 
    137 H137        0.7603  -21.7085  -51.0327 H         1 UNK         0.1150 
    138 H138        2.6550  -18.1003  -49.7273 H         1 UNK         0.1150 
    139 H139        3.9268  -20.0517  -49.7637 H         1 UNK         0.0800 
    140 H140        3.5268  -21.0416  -51.1463 H         1 UNK         0.0800 
    141 H141        1.4409  -20.7322  -47.8893 H         1 UNK         0.0800 
    142 H142        2.8838  -21.0503  -46.9695 H         1 UNK         0.0800 
    143 H143        2.1194  -23.4513  -46.7054 H         1 UNK         0.0600 
    144 H144        1.0080  -21.2104  -45.3252 H         1 UNK         0.3000 
    145 H145       -0.3202  -23.2049  -42.6274 H         1 UNK         0.0600 
    146 H146        1.0862  -21.5860  -41.4021 H         1 UNK         0.0600 
    147 H147        2.1116  -22.7506  -42.2261 H         1 UNK         0.0600 
    148 H148        1.9209  -21.1297  -42.8855 H         1 UNK         0.0600 
    149 H149       -0.4578  -20.4122  -43.0641 H         1 UNK         0.3000 
    150 H150       -3.5904  -20.3870  -44.8437 H         1 UNK         0.0600 
    151 H151       -4.0383  -20.5240  -42.3886 H         1 UNK         0.0600 
    152 H152       -4.0726  -18.8608  -42.9561 H         1 UNK         0.0600 
    153 H153       -2.6727  -19.4604  -42.0705 H         1 UNK         0.0600 
    154 H154       -1.9533  -18.2174  -44.1318 H         1 UNK         0.3000 
    155 H155        0.0607  -18.1065  -47.1126 H         1 UNK         0.0600 
    156 H156       -2.1845  -16.4192  -45.8681 H         1 UNK         0.0600 
    157 H157       -0.9086  -15.7849  -46.8964 H         1 UNK         0.0600 
    158 H158       -2.0593  -16.9397  -47.5368 H         1 UNK         0.0600 
    159 H159        0.1459  -16.5895  -44.6894 H         1 UNK         0.3000 
    160 H160        2.5014  -18.6043  -42.9360 H         1 UNK         0.0600 
    161 H161        2.8257  -15.9191  -44.3696 H         1 UNK         0.0600 
    162 H162        3.9317  -17.2798  -44.4477 H         1 UNK         0.0600 
    163 H163        3.7196  -16.4133  -42.9327 H         1 UNK         0.0600 
    164 H164        1.1553  -16.0723  -42.4917 H         1 UNK         0.3000 
    165 H165       -1.6338  -17.4626  -40.7469 H         1 UNK         0.0600 
    166 H166       -0.7931  -16.0166  -38.9153 H         1 UNK         0.0600 
    167 H167        0.1827  -17.4725  -39.0288 H         1 UNK         0.0600 
    168 H168        0.8052  -15.9523  -39.6594 H         1 UNK         0.0600 
    169 H169       -0.7773  -14.7735  -41.1680 H         1 UNK         0.3000 
    170 H170       -1.8407  -14.3137  -44.4622 H         1 UNK         0.0600 
    171 H171       -4.1247  -14.3171  -43.4424 H         1 UNK         0.0600 
    172 H172       -3.5144  -13.4271  -42.0523 H         1 UNK         0.0600 
    173 H173       -3.5176  -12.6831  -43.6525 H         1 UNK         0.0600 
    174 H174       -1.3113  -12.3468  -42.5366 H         1 UNK         0.3000 
    175 H175        1.0025  -11.9596  -41.6245 H         1 UNK         0.0600 
    176 H176        2.9788  -12.2512  -43.9482 H         1 UNK         0.0600 
    177 H177        3.2684  -11.4509  -42.4118 H         1 UNK         0.0600 
    178 H178        3.0662  -13.1942  -42.4608 H         1 UNK         0.0600 
    179 H179        0.3288  -11.0659  -44.3251 H         1 UNK         0.3000 
    180 H180       -0.7259   -8.4294  -43.7672 H         1 UNK         0.0600 
    181 H181        2.0763   -7.1915  -43.7368 H         1 UNK         0.0600 
    182 H182        0.7459   -6.8086  -42.6547 H         1 UNK         0.0600 
    183 H183        0.6282   -6.3998  -44.3574 H         1 UNK         0.0600 
    184 H184       -0.3737   -9.0529  -45.8508 H         1 UNK         0.3000 
    185 H185        0.4738   -9.4818  -47.7984 H         1 UNK         0.0600 
    186 H186        2.4040   -7.9953  -48.3960 H         1 UNK         0.0600 
    187 H187        3.5181   -9.3320  -48.1307 H         1 UNK         0.0600 
    188 H188        2.3252   -9.4175  -49.4251 H         1 UNK         0.0600 
    189 H189        2.5202  -11.5211  -47.8406 H         1 UNK         0.3000 
    190 H190       -1.0511  -21.7497  -47.0115 H         1 UNK         0.3000 
    191 H191       -2.0483  -23.1987  -49.1951 H         1 UNK         0.0600 
    192 H192       -3.4827  -21.8912  -46.8226 H         1 UNK         0.0600 
    193 H193       -4.3109  -22.4932  -48.2466 H         1 UNK         0.0600 
    194 H194       -3.1650  -21.1729  -48.4035 H         1 UNK         0.0600 
    195 H195       -2.1685  -24.0137  -45.7129 H         1 UNK         0.3000 
    196 H196       -3.6987  -26.3971  -45.9640 H         1 UNK         0.0600 
    197 H197       -2.7993  -26.8877  -43.6835 H         1 UNK         0.0600 
    198 H198       -3.3630  -25.2279  -43.8079 H         1 UNK         0.0600 
    199 H199       -1.6368  -25.5771  -43.8494 H         1 UNK         0.0600 
    200 H200       -0.1902  -25.8049  -46.2433 H         1 UNK         0.3000 
    201 H201        0.5491  -28.5936  -46.4596 H         1 UNK         0.0600 
    202 H202        2.1314  -26.8691  -45.6324 H         1 UNK         0.0600 
    203 H203        2.0926  -26.0487  -47.1904 H         1 UNK         0.0600 
    204 H204        2.7725  -27.6653  -47.0624 H         1 UNK         0.0600 
    205 H205        0.0622  -25.9281  -48.8181 H         1 UNK         0.3000 
    206 H206        0.6939  -27.4536  -51.1492 H         1 UNK         0.0600 
    207 H207        0.8615  -24.9711  -51.0259 H         1 UNK         0.0600 
    208 H208       -0.2152  -25.4470  -52.3309 H         1 UNK         0.0600 
    209 H209       -0.8844  -24.8424  -50.8206 H         1 UNK         0.0600 
    210 H210       -2.2780  -27.0179  -49.3546 H         1 UNK         0.3000 
    211 H211       -4.3359  -27.7745  -49.4549 H         1 UNK         0.0600 
    212 H212       -3.4888  -29.7762  -51.6150 H         1 UNK         0.0600 
    213 H213       -4.9480  -29.8352  -50.6389 H         1 UNK         0.0600 
    214 H214       -3.3807  -30.0530  -49.8768 H         1 UNK         0.0600 
    215 H215       -3.7248  -25.4398  -50.6960 H         1 UNK         0.3000 
    216 H216       -5.8893  -25.1412  -52.6370 H         1 UNK         0.0600 
    217 H217       -4.4205  -23.8445  -54.2087 H         1 UNK         0.0600 
    218 H218       -3.9032  -25.5235  -54.1244 H         1 UNK         0.0600 
    219 H219       -3.0014  -24.2768  -53.2629 H         1 UNK         0.0600 
    220 H220       -6.8794  -23.1767  -52.2974 H         1 UNK         0.3000 
    221 H221       -6.2851  -21.7352  -49.8838 H         1 UNK         0.0600 
    222 H222       -8.2567  -21.1512  -52.1706 H         1 UNK         0.0600 
    223 H223       -8.6055  -22.1233  -50.7413 H         1 UNK         0.0600 
    224 H224       -8.2911  -20.4055  -50.5772 H         1 UNK         0.0600 
    225 H225       -5.9676  -19.4049  -49.7152 H         1 UNK         0.3000 
    226 H226       -3.8606  -18.3152  -51.2403 H         1 UNK         0.0600 
    227 H227       -4.3601  -17.6177  -48.9254 H         1 UNK         0.0600 
    228 H228       -4.3807  -16.2220  -49.9905 H         1 UNK         0.0600 
    229 H229       -5.8983  -16.9187  -49.4350 H         1 UNK         0.0600 
    230 H230       -7.3446  -18.0986  -51.7218 H         1 UNK         0.3000 
    231 H231       -7.3533  -16.0511  -53.7294 H         1 UNK         0.0600 
    232 H232       -9.6675  -16.9000  -54.1459 H         1 UNK         0.0600 
    233 H233       -9.3749  -16.6746  -52.4292 H         1 UNK         0.0600 
    234 H234       -9.3534  -18.2968  -53.1230 H         1 UNK         0.0600 
    235 H235       -6.5633  -19.4845  -53.8404 H         1 UNK         0.3000 
    236 H236       -6.7754  -19.6492  -56.7843 H         1 UNK         0.0600 
    237 H237       -7.4764  -21.6123  -55.4066 H         1 UNK         0.0600 
    238 H238       -6.1167  -21.9957  -56.4513 H         1 UNK         0.0600 
    239 H239       -5.8511  -21.7336  -54.7361 H         1 UNK         0.0600 
    240 H240       -4.3314  -19.6181  -54.1515 H         1 UNK         0.3000 
    241 H241       -2.0370  -19.7176  -55.8303 H         1 UNK         0.0600 
    242 H242       -3.8258  -16.7782  -54.5815 H         1 UNK         0.3800 
    243 H243       -2.9604  -15.6950  -55.6442 H         1 UNK         0.3800 
    244 H244       -0.7828  -18.8718  -53.8137 H         1 UNK         0.0800 
    245 H245       -2.3072  -18.5966  -53.0082 H         1 UNK         0.0800 
    246 H246       -1.7633  -21.7284  -50.9254 H         1 UNK         0.0800 
    247 H247       -2.6613  -20.2468  -51.0472 H         1 UNK         0.0800 
@<TRIPOS>BOND
     1    1    2 1    
     2    1  127 1    
     3    1  128 1    
     4    1  129 1    
     5    2    3 2    
     6    2    4 am   BACKBONE|DICT|INTERRES
     7    4    5 1    
     8    4  130 1    
     9    5    6 1    
    10    5   65 1    
    11    5  131 1    
    12    6    7 1    
    13    6  132 1    
    14    6  133 1    
    15    7    8 1    
    16    8    9 1    
    17    8  134 1    
    18    8  135 1    
    19    9   10 ar   
    20    9   14 ar   
    21   10   11 ar   
    22   10  136 1    
    23   11   12 ar   
    24   11  126 1    
    25   12   13 ar   
    26   12  137 1    
    27   13   14 ar   
    28   13   15 1    
    29   14  138 1    
    30   15   16 1    
    31   15  139 1    
    32   15  140 1    
    33   16   17 1    
    34   17   18 1    
    35   17  141 1    
    36   17  142 1    
    37   18   19 1    
    38   18   67 1    
    39   18  143 1    
    40   19   20 am   BACKBONE|DICT|INTERRES
    41   19  144 1    
    42   20   21 2    
    43   20   22 1    
    44   22   23 1    
    45   22   24 1    
    46   22  145 1    
    47   23  146 1    
    48   23  147 1    
    49   23  148 1    
    50   24   25 am   BACKBONE|DICT|INTERRES
    51   24  149 1    
    52   25   26 2    
    53   25   27 1    
    54   27   28 1    
    55   27   29 1    
    56   27  150 1    
    57   28  151 1    
    58   28  152 1    
    59   28  153 1    
    60   29   30 am   BACKBONE|DICT|INTERRES
    61   29  154 1    
    62   30   31 2    
    63   30   32 1    
    64   32   33 1    
    65   32   34 1    
    66   32  155 1    
    67   33  156 1    
    68   33  157 1    
    69   33  158 1    
    70   34   35 am   BACKBONE|DICT|INTERRES
    71   34  159 1    
    72   35   36 2    
    73   35   37 1    
    74   37   38 1    
    75   37   39 1    
    76   37  160 1    
    77   38  161 1    
    78   38  162 1    
    79   38  163 1    
    80   39   40 am   BACKBONE|DICT|INTERRES
    81   39  164 1    
    82   40   41 2    
    83   40   42 1    
    84   42   43 1    
    85   42   44 1    
    86   42  165 1    
    87   43  166 1    
    88   43  167 1    
    89   43  168 1    
    90   44   45 am   BACKBONE|DICT|INTERRES
    91   44  169 1    
    92   45   46 2    
    93   45   47 1    
    94   47   48 1    
    95   47   49 1    
    96   47  170 1    
    97   48  171 1    
    98   48  172 1    
    99   48  173 1    
   100   49   50 am   BACKBONE|DICT|INTERRES
   101   49  174 1    
   102   50   51 2    
   103   50   52 1    
   104   52   53 1    
   105   52   54 1    
   106   52  175 1    
   107   53  176 1    
   108   53  177 1    
   109   53  178 1    
   110   54   55 am   BACKBONE|DICT|INTERRES
   111   54  179 1    
   112   55   56 2    
   113   55   57 1    
   114   57   58 1    
   115   57   59 1    
   116   57  180 1    
   117   58  181 1    
   118   58  182 1    
   119   58  183 1    
   120   59   60 am   BACKBONE|DICT|INTERRES
   121   59  184 1    
   122   60   61 2    
   123   60   62 1    
   124   62   63 1    
   125   62   64 1    
   126   62  185 1    
   127   63  186 1    
   128   63  187 1    
   129   63  188 1    
   130   64   65 am   BACKBONE|DICT|INTERRES
   131   64  189 1    
   132   65   66 2    
   133   67   68 2    
   134   67   69 am   BACKBONE|DICT|INTERRES
   135   69   70 1    
   136   69  190 1    
   137   70   71 1    
   138   70   72 1    
   139   70  191 1    
   140   71  192 1    
   141   71  193 1    
   142   71  194 1    
   143   72   73 2    
   144   72   74 am   BACKBONE|DICT|INTERRES
   145   74   75 1    
   146   74  195 1    
   147   75   76 1    
   148   75   77 1    
   149   75  196 1    
   150   76  197 1    
   151   76  198 1    
   152   76  199 1    
   153   77   78 2    
   154   77   79 am   BACKBONE|DICT|INTERRES
   155   79   80 1    
   156   79  200 1    
   157   80   81 1    
   158   80   82 1    
   159   80  201 1    
   160   81  202 1    
   161   81  203 1    
   162   81  204 1    
   163   82   83 2    
   164   82   84 am   BACKBONE|DICT|INTERRES
   165   84   85 1    
   166   84  205 1    
   167   85   86 1    
   168   85   87 1    
   169   85  206 1    
   170   86  207 1    
   171   86  208 1    
   172   86  209 1    
   173   87   88 2    
   174   87   89 am   BACKBONE|DICT|INTERRES
   175   89   90 1    
   176   89  210 1    
   177   90   91 1    
   178   90   92 1    
   179   90  211 1    
   180   91  212 1    
   181   91  213 1    
   182   91  214 1    
   183   92   93 2    
   184   92   94 am   BACKBONE|DICT|INTERRES
   185   94   95 1    
   186   94  215 1    
   187   95   96 1    
   188   95   97 1    
   189   95  216 1    
   190   96  217 1    
   191   96  218 1    
   192   96  219 1    
   193   97   98 2    
   194   97   99 am   BACKBONE|DICT|INTERRES
   195   99  100 1    
   196   99  220 1    
   197  100  101 1    
   198  100  102 1    
   199  100  221 1    
   200  101  222 1    
   201  101  223 1    
   202  101  224 1    
   203  102  103 2    
   204  102  104 am   BACKBONE|DICT|INTERRES
   205  104  105 1    
   206  104  225 1    
   207  105  106 1    
   208  105  107 1    
   209  105  226 1    
   210  106  227 1    
   211  106  228 1    
   212  106  229 1    
   213  107  108 2    
   214  107  109 am   BACKBONE|DICT|INTERRES
   215  109  110 1    
   216  109  230 1    
   217  110  111 1    
   218  110  112 1    
   219  110  231 1    
   220  111  232 1    
   221  111  233 1    
   222  111  234 1    
   223  112  113 2    
   224  112  114 am   BACKBONE|DICT|INTERRES
   225  114  115 1    
   226  114  235 1    
   227  115  116 1    
   228  115  117 1    
   229  115  236 1    
   230  116  237 1    
   231  116  238 1    
   232  116  239 1    
   233  117  118 2    
   234  117  119 am   BACKBONE|DICT|INTERRES
   235  119  120 1    
   236  119  240 1    
   237  120  121 1    
   238  120  124 1    
   239  120  241 1    
   240  121  122 am   BACKBONE|DICT|INTERRES
   241  121  123 2    
   242  122  242 1    
   243  122  243 1    
   244  124  125 1    
   245  124  244 1    
   246  124  245 1    
   247  125  126 1    
   248  126  246 1    
   249  126  247 1    
@<TRIPOS>SUBSTRUCTURE
     1 UNK         1 GROUP             0       ****    0 ROOT    
