@<TRIPOS>MOLECULE
3R540
247   249    1
SMALL
USER_CHARGES


@<TRIPOS>ATOM
      1 CA          4.7995  -14.4805  -43.3758 C.3       0 UNK        -0.1800 
      2 C           4.7644  -13.7725  -44.7230 C.2       0 UNK         0.5000 
      3 O           5.7633  -13.7755  -45.4408 O.2       0 UNK        -0.5000 
      4 N           3.6186  -13.1577  -45.0453 N.am      1 UNK        -0.5000 
      5 CA          3.3883  -12.2555  -46.1830 C.3       1 UNK         0.1400 
      6 C6          3.6045  -12.8947  -47.5810 C.3       23 UNK        -0.0398 
      7 S7          2.4472  -14.2666  -47.8946 S.3       23 UNK        -0.2404 
      8 C8          3.2717  -15.0662  -49.3087 C.3       23 UNK        -0.0205 
      9 C9          2.4081  -16.1447  -49.9500 C.ar      23 UNK        -0.0193 
     10 C10         1.1615  -15.8122  -50.4872 C.ar      23 UNK        -0.1150 
     11 C11         0.3539  -16.7783  -51.0923 C.ar      23 UNK        -0.0193 
     12 C12         0.8280  -18.0949  -51.1809 C.ar      23 UNK        -0.1150 
     13 C13         2.0840  -18.4396  -50.6739 C.ar      23 UNK        -0.0193 
     14 C14         2.8644  -17.4630  -50.0466 C.ar      23 UNK        -0.1150 
     15 C15         2.6152  -19.8562  -50.8506 C.3       23 UNK        -0.0205 
     16 S16         2.3271  -20.9076  -49.3945 S.3       23 UNK        -0.2404 
     17 C17         0.5244  -21.1786  -49.4741 C.3       23 UNK        -0.0398 
     18 CA          0.0594  -22.2581  -48.4664 C.3       11 UNK         0.1400 
     19 N           0.2164  -21.8342  -47.0701 N.am      11 UNK        -0.5000 
     20 C           0.0461  -22.6310  -46.0058 C.2       10 UNK         0.5000 
     21 O          -0.2257  -23.8277  -46.0881 O.2       10 UNK        -0.5000 
     22 CA          0.1466  -21.9823  -44.6135 C.3       10 UNK         0.1400 
     23 CB          1.6124  -21.8129  -44.1879 C.3       10 UNK        -0.1800 
     24 N          -0.5530  -20.6993  -44.5342 N.am      10 UNK        -0.5000 
     25 C          -1.8774  -20.5498  -44.6832 C.2       9 UNK         0.5000 
     26 O          -2.6539  -21.4874  -44.8619 O.2       9 UNK        -0.5000 
     27 CA         -2.4252  -19.1109  -44.6847 C.3       9 UNK         0.1400 
     28 CB         -2.5560  -18.5658  -43.2549 C.3       9 UNK        -0.1800 
     29 N          -1.6065  -18.2014  -45.4833 N.am      9 UNK        -0.5000 
     30 C          -1.3932  -18.3244  -46.8013 C.2       8 UNK         0.5000 
     31 O          -1.9119  -19.1898  -47.5071 O.2       8 UNK        -0.5000 
     32 CA         -0.3818  -17.3448  -47.4179 C.3       8 UNK         0.1400 
     33 CB         -1.0441  -15.9825  -47.6748 C.3       8 UNK        -0.1800 
     34 N           0.8069  -17.1786  -46.5775 N.am      8 UNK        -0.5000 
     35 C           1.6608  -18.1703  -46.2833 C.2       7 UNK         0.5000 
     36 O           1.5395  -19.3176  -46.7035 O.2       7 UNK        -0.5000 
     37 CA          2.7960  -17.8577  -45.2944 C.3       7 UNK         0.1400 
     38 CB          3.9887  -17.1922  -45.9945 C.3       7 UNK        -0.1800 
     39 N           2.3393  -17.0407  -44.1693 N.am      7 UNK        -0.5000 
     40 C           1.5171  -17.4960  -43.2130 C.2       6 UNK         0.5000 
     41 O           1.0988  -18.6525  -43.1679 O.2       6 UNK        -0.5000 
     42 CA          1.0495  -16.4852  -42.1499 C.3       6 UNK         0.1400 
     43 CB          2.0550  -16.4115  -40.9910 C.3       6 UNK        -0.1800 
     44 N           0.8080  -15.1365  -42.6694 N.am      6 UNK        -0.5000 
     45 C          -0.0852  -14.8224  -43.6189 C.2       5 UNK         0.5000 
     46 O          -0.7451  -15.6669  -44.2258 O.2       5 UNK        -0.5000 
     47 CA         -0.2825  -13.3214  -43.9237 C.3       5 UNK         0.1400 
     48 CB         -1.6690  -13.0277  -44.5231 C.3       5 UNK        -0.1800 
     49 N          -0.1063  -12.4935  -42.7263 N.am      5 UNK        -0.5000 
     50 C           1.0354  -11.9123  -42.3461 C.2       4 UNK         0.5000 
     51 O           2.0970  -12.0193  -42.9677 O.2       4 UNK        -0.5000 
     52 CA          0.9957  -11.1231  -41.0308 C.3       4 UNK         0.1400 
     53 CB          1.1098  -12.0686  -39.8236 C.3       4 UNK        -0.1800 
     54 N           2.1180  -10.1948  -41.0239 N.am      4 UNK        -0.5000 
     55 C           2.0979   -8.9322  -40.5847 C.2       3 UNK         0.5000 
     56 O           1.1360   -8.4214  -40.0092 O.2       3 UNK        -0.5000 
     57 CA          3.3642   -8.0894  -40.8468 C.3       3 UNK         0.1400 
     58 CB          4.2468   -8.0410  -39.5900 C.3       3 UNK        -0.1800 
     59 N           4.1678   -8.5778  -41.9736 N.am      3 UNK        -0.5000 
     60 C           3.7922   -8.5350  -43.2597 C.2       2 UNK         0.5000 
     61 O           2.7327   -8.0374  -43.6434 O.2       2 UNK        -0.5000 
     62 CA          4.7238   -9.1900  -44.2905 C.3       2 UNK         0.1400 
     63 CB          6.1379   -9.5173  -43.7656 C.3       2 UNK        -0.1800 
     64 N           4.0758  -10.4122  -44.7477 N.am      2 UNK        -0.5000 
     65 C           4.1648  -10.9368  -45.9753 C.2       1 UNK         0.5000 
     66 O           4.8227  -10.4376  -46.8903 O.2       1 UNK        -0.5000 
     67 C          -1.3828  -22.7165  -48.7675 C.2       11 UNK         0.5000 
     68 O          -1.5646  -23.7642  -49.3890 O.2       11 UNK        -0.5000 
     69 N          -2.3800  -21.9609  -48.2850 N.am      12 UNK        -0.5000 
     70 CA         -3.7983  -22.3072  -48.3897 C.3       12 UNK         0.1400 
     71 CB         -4.6584  -21.1255  -47.9202 C.3       12 UNK        -0.1800 
     72 C          -4.1582  -23.5912  -47.6208 C.2       12 UNK         0.5000 
     73 O          -4.8953  -24.4234  -48.1509 O.2       12 UNK        -0.5000 
     74 N          -3.6083  -23.7458  -46.4077 N.am      13 UNK        -0.5000 
     75 CA         -3.7650  -24.9326  -45.5665 C.3       13 UNK         0.1400 
     76 CB         -3.2081  -24.6559  -44.1624 C.3       13 UNK        -0.1800 
     77 C          -3.1125  -26.1849  -46.1774 C.2       13 UNK         0.5000 
     78 O          -3.7293  -27.2497  -46.1644 O.2       13 UNK        -0.5000 
     79 N          -1.9066  -26.0342  -46.7442 N.am      14 UNK        -0.5000 
     80 CA         -1.1812  -27.0879  -47.4610 C.3       14 UNK         0.1400 
     81 CB          0.2330  -26.5970  -47.8049 C.3       14 UNK        -0.1800 
     82 C          -1.9153  -27.5618  -48.7297 C.2       14 UNK         0.5000 
     83 O          -1.8997  -28.7545  -49.0350 O.2       14 UNK        -0.5000 
     84 N          -2.5834  -26.6255  -49.4152 N.am      15 UNK        -0.5000 
     85 CA         -3.4686  -26.8834  -50.5509 C.3       15 UNK         0.1400 
     86 CB         -3.5886  -25.5930  -51.3753 C.3       15 UNK        -0.1800 
     87 C          -4.8682  -27.3886  -50.1407 C.2       15 UNK         0.5000 
     88 O          -5.6810  -27.6647  -51.0235 O.2       15 UNK        -0.5000 
     89 N          -5.1536  -27.4527  -48.8297 N.am      16 UNK        -0.5000 
     90 CA         -6.4265  -27.8336  -48.2023 C.3       16 UNK         0.1400 
     91 CB         -6.6842  -29.3416  -48.3977 C.3       16 UNK        -0.1800 
     92 C          -7.6209  -26.9638  -48.6549 C.2       16 UNK         0.5000 
     93 O          -8.7550  -27.4439  -48.6863 O.2       16 UNK        -0.5000 
     94 N          -7.3292  -25.7117  -49.0413 N.am      17 UNK        -0.5000 
     95 CA         -8.2141  -24.7311  -49.6803 C.3       17 UNK         0.1400 
     96 CB         -9.3151  -24.2752  -48.7013 C.3       17 UNK        -0.1800 
     97 C          -8.7895  -25.1747  -51.0487 C.2       17 UNK         0.5000 
     98 O          -9.7064  -24.5251  -51.5539 O.2       17 UNK        -0.5000 
     99 N          -8.2480  -26.2508  -51.6393 N.am      18 UNK        -0.5000 
    100 CA        -8.6747  -26.8046  -52.9271 C.3       18 UNK         0.1400 
    101 CB        -8.4981  -28.3311  -52.8916 C.3       18 UNK        -0.1800 
    102 C         -7.9012  -26.1982  -54.1133 C.2       18 UNK         0.5000 
    103 O         -8.3199  -26.3684  -55.2593 O.2       18 UNK        -0.5000 
    104 N         -6.7965  -25.5040  -53.8227 N.am      19 UNK        -0.5000 
    105 CA        -5.9594  -24.7854  -54.7755 C.3       19 UNK         0.1400 
    106 CB        -4.8687  -25.7228  -55.3366 C.3       19 UNK        -0.1800 
    107 C         -5.4327  -23.5121  -54.0897 C.2       19 UNK         0.5000 
    108 O         -6.2045  -22.8528  -53.3903 O.2       19 UNK        -0.5000 
    109 N         -4.1473  -23.1880  -54.2959 N.am      20 UNK        -0.5000 
    110 CA        -3.4541  -21.9826  -53.8229 C.3       20 UNK         0.1400 
    111 CB        -3.3319  -21.9602  -52.2838 C.3       20 UNK        -0.1800 
    112 C         -4.0759  -20.6957  -54.4016 C.2       20 UNK         0.5000 
    113 O         -4.4130  -19.7694  -53.6627 O.2       20 UNK        -0.5000 
    114 N         -4.2037  -20.6550  -55.7352 N.am      21 UNK        -0.5000 
    115 CA        -4.6830  -19.5078  -56.5143 C.3       21 UNK         0.1400 
    116 CB        -5.2190  -20.0183  -57.8641 C.3       21 UNK        -0.1800 
    117 C         -3.5904  -18.4245  -56.6742 C.2       21 UNK         0.5000 
    118 O         -3.2716  -18.0126  -57.7909 O.2       21 UNK        -0.5000 
    119 N         -3.0114  -18.0129  -55.5434 N.am      22 UNK        -0.5000 
    120 CA        -1.9003  -17.0588  -55.4196 C.3       22 UNK         0.1400 
    121 C         -2.3216  -15.5595  -55.4071 C.2       22 UNK         0.5000 
    122 N         -3.6067  -15.2270  -55.4212 N.am      22 UNK        -0.7600 
    123 O         -1.4649  -14.6797  -55.4025 O.2       22 UNK        -0.5000 
    124 C124       -0.9959  -17.4299  -54.2144 C.3       23 UNK        -0.0398 
    125 S125       -1.9072  -17.5605  -52.6331 S.3       23 UNK        -0.2404 
    126 C126       -1.0224  -16.3451  -51.6024 C.3       23 UNK        -0.0205 
    127 H127        5.6272  -14.1002  -42.7772 H         1 UNK         0.0600 
    128 H128        3.8798  -14.3224  -42.8129 H         1 UNK         0.0600 
    129 H129        4.9424  -15.5521  -43.5104 H         1 UNK         0.0600 
    130 H130        2.8982  -13.1046  -44.3333 H         1 UNK         0.3000 
    131 H131        2.3362  -11.9717  -46.1249 H         1 UNK         0.0600 
    132 H132        3.4437  -12.1547  -48.3668 H         1 UNK         0.0800 
    133 H133        4.6303  -13.2447  -47.6993 H         1 UNK         0.0800 
    134 H134        3.5068  -14.3138  -50.0628 H         1 UNK         0.0800 
    135 H135        4.2235  -15.4811  -48.9734 H         1 UNK         0.0800 
    136 H136        0.8109  -14.7919  -50.4161 H         1 UNK         0.1150 
    137 H137        0.2314  -18.8643  -51.6472 H         1 UNK         0.1150 
    138 H138        3.8347  -17.7287  -49.6514 H         1 UNK         0.1150 
    139 H139        2.1732  -20.3240  -51.7317 H         1 UNK         0.0800 
    140 H140        3.6887  -19.8161  -51.0410 H         1 UNK         0.0800 
    141 H141        0.2752  -21.4729  -50.4955 H         1 UNK         0.0800 
    142 H142        0.0133  -20.2327  -49.2876 H         1 UNK         0.0800 
    143 H143        0.6949  -23.1355  -48.6047 H         1 UNK         0.0600 
    144 H144        0.5103  -20.8711  -46.9213 H         1 UNK         0.3000 
    145 H145       -0.3297  -22.6587  -43.9010 H         1 UNK         0.0600 
    146 H146        1.6854  -21.4215  -43.1732 H         1 UNK         0.0600 
    147 H147        2.1357  -22.7696  -44.2062 H         1 UNK         0.0600 
    148 H148        2.1505  -21.1335  -44.8482 H         1 UNK         0.0600 
    149 H149        0.0177  -19.8811  -44.3483 H         1 UNK         0.3000 
    150 H150       -3.4213  -19.1356  -45.1310 H         1 UNK         0.0600 
    151 H151       -3.2010  -19.2059  -42.6518 H         1 UNK         0.0600 
    152 H152       -2.9925  -17.5668  -43.2525 H         1 UNK         0.0600 
    153 H153       -1.5898  -18.5084  -42.7541 H         1 UNK         0.0600 
    154 H154       -1.1633  -17.4297  -44.9929 H         1 UNK         0.3000 
    155 H155       -0.0575  -17.7575  -48.3744 H         1 UNK         0.0600 
    156 H156       -1.9049  -16.0899  -48.3350 H         1 UNK         0.0600 
    157 H157       -0.3558  -15.2850  -48.1485 H         1 UNK         0.0600 
    158 H158       -1.4006  -15.5247  -46.7536 H         1 UNK         0.0600 
    159 H159        0.9486  -16.2692  -46.1656 H         1 UNK         0.3000 
    160 H160        3.1470  -18.8126  -44.8969 H         1 UNK         0.0600 
    161 H161        3.7665  -16.1693  -46.2889 H         1 UNK         0.0600 
    162 H162        4.2705  -17.7394  -46.8952 H         1 UNK         0.0600 
    163 H163        4.8629  -17.1695  -45.3445 H         1 UNK         0.0600 
    164 H164        2.6194  -16.0731  -44.1522 H         1 UNK         0.3000 
    165 H165        0.1018  -16.8519  -41.7501 H         1 UNK         0.0600 
    166 H166        3.0255  -16.0387  -41.3185 H         1 UNK         0.0600 
    167 H167        1.6946  -15.7587  -40.1957 H         1 UNK         0.0600 
    168 H168        2.2152  -17.3973  -40.5522 H         1 UNK         0.0600 
    169 H169        1.2982  -14.3821  -42.2131 H         1 UNK         0.3000 
    170 H170        0.4630  -13.0497  -44.6734 H         1 UNK         0.0600 
    171 H171       -1.8092  -13.5495  -45.4698 H         1 UNK         0.0600 
    172 H172       -2.4713  -13.3392  -43.8531 H         1 UNK         0.0600 
    173 H173       -1.7935  -11.9635  -44.7239 H         1 UNK         0.0600 
    174 H174       -0.9228  -12.3905  -42.1400 H         1 UNK         0.3000 
    175 H175        0.0515  -10.5761  -40.9855 H         1 UNK         0.0600 
    176 H176        1.0897  -11.5118  -38.8866 H         1 UNK         0.0600 
    177 H177        0.2812  -12.7773  -39.7971 H         1 UNK         0.0600 
    178 H178        2.0359  -12.6446  -39.8493 H         1 UNK         0.0600 
    179 H179        2.9306  -10.5207  -41.5285 H         1 UNK         0.3000 
    180 H180        3.0393   -7.0724  -41.0762 H         1 UNK         0.0600 
    181 H181        4.6159   -9.0309  -39.3189 H         1 UNK         0.0600 
    182 H182        3.6897   -7.6534  -38.7360 H         1 UNK         0.0600 
    183 H183        5.1079   -7.3888  -39.7369 H         1 UNK         0.0600 
    184 H184        5.0552   -9.0015  -41.7437 H         1 UNK         0.3000 
    185 H185        4.8149   -8.4869  -45.1212 H         1 UNK         0.0600 
    186 H186        6.7691   -9.8990  -44.5685 H         1 UNK         0.0600 
    187 H187        6.6290   -8.6273  -43.3700 H         1 UNK         0.0600 
    188 H188        6.1191  -10.2733  -42.9798 H         1 UNK         0.0600 
    189 H189        3.4751  -10.8743  -44.0735 H         1 UNK         0.3000 
    190 H190       -2.1570  -21.0870  -47.8155 H         1 UNK         0.3000 
    191 H191       -4.0197  -22.4865  -49.4429 H         1 UNK         0.0600 
    192 H192       -4.4669  -20.2372  -48.5225 H         1 UNK         0.0600 
    193 H193       -5.7208  -21.3562  -48.0075 H         1 UNK         0.0600 
    194 H194       -4.4603  -20.8712  -46.8786 H         1 UNK         0.0600 
    195 H195       -3.0591  -22.9845  -46.0181 H         1 UNK         0.3000 
    196 H196       -4.8346  -25.1314  -45.4710 H         1 UNK         0.0600 
    197 H197       -3.3319  -25.5245  -43.5144 H         1 UNK         0.0600 
    198 H198       -3.7274  -23.8217  -43.6905 H         1 UNK         0.0600 
    199 H199       -2.1453  -24.4152  -44.1900 H         1 UNK         0.0600 
    200 H200       -1.4345  -25.1366  -46.6605 H         1 UNK         0.3000 
    201 H201       -1.0909  -27.9452  -46.7910 H         1 UNK         0.0600 
    202 H202        0.7903  -26.3395  -46.9041 H         1 UNK         0.0600 
    203 H203        0.2077  -25.7151  -48.4457 H         1 UNK         0.0600 
    204 H204        0.7991  -27.3685  -48.3282 H         1 UNK         0.0600 
    205 H205       -2.4902  -25.6570  -49.1282 H         1 UNK         0.3000 
    206 H206       -3.0195  -27.6516  -51.1835 H         1 UNK         0.0600 
    207 H207       -2.6137  -25.2679  -51.7384 H         1 UNK         0.0600 
    208 H208       -4.2255  -25.7411  -52.2458 H         1 UNK         0.0600 
    209 H209       -4.0183  -24.7796  -50.7899 H         1 UNK         0.0600 
    210 H210       -4.4273  -27.1839  -48.1774 H         1 UNK         0.3000 
    211 H211       -6.3085  -27.6513  -47.1335 H         1 UNK         0.0600 
    212 H212       -6.8741  -29.5866  -49.4433 H         1 UNK         0.0600 
    213 H213       -7.5496  -29.6706  -47.8215 H         1 UNK         0.0600 
    214 H214       -5.8311  -29.9325  -48.0641 H         1 UNK         0.0600 
    215 H215       -6.3705  -25.3984  -48.9054 H         1 UNK         0.3000 
    216 H216       -7.5859  -23.8646  -49.8920 H         1 UNK         0.0600 
    217 H217       -8.8878  -23.9479  -47.7534 H         1 UNK         0.0600 
    218 H218      -10.0269  -25.0739  -48.4914 H         1 UNK         0.0600 
    219 H219       -9.8789  -23.4349  -49.1077 H         1 UNK         0.0600 
    220 H220       -7.4793  -26.7322  -51.1832 H         1 UNK         0.3000 
    221 H221       -9.7348  -26.5935  -53.0822 H         1 UNK         0.0600 
    222 H222       -7.4496  -28.6147  -52.7963 H         1 UNK         0.0600 
    223 H223       -9.0418  -28.7720  -52.0558 H         1 UNK         0.0600 
    224 H224       -8.8784  -28.7892  -53.8055 H         1 UNK         0.0600 
    225 H225       -6.5673  -25.3670  -52.8487 H         1 UNK         0.3000 
    226 H226       -6.5777  -24.4434  -55.6080 H         1 UNK         0.0600 
    227 H227       -5.3136  -26.6093  -55.7891 H         1 UNK         0.0600 
    228 H228       -4.2847  -25.2326  -56.1162 H         1 UNK         0.0600 
    229 H229       -4.1805  -26.0618  -54.5624 H         1 UNK         0.0600 
    230 H230       -3.5976  -23.8038  -54.8786 H         1 UNK         0.3000 
    231 H231       -2.4402  -22.0326  -54.2227 H         1 UNK         0.0600 
    232 H232       -2.7616  -21.0923  -51.9497 H         1 UNK         0.0600 
    233 H233       -2.8110  -22.8428  -51.9160 H         1 UNK         0.0600 
    234 H234       -4.3058  -21.9139  -51.7971 H         1 UNK         0.0600 
    235 H235       -3.8875  -21.4507  -56.2700 H         1 UNK         0.3000 
    236 H236       -5.5169  -19.0453  -55.9821 H         1 UNK         0.0600 
    237 H237       -5.6324  -19.2008  -58.4562 H         1 UNK         0.0600 
    238 H238       -4.4347  -20.4909  -58.4567 H         1 UNK         0.0600 
    239 H239       -6.0167  -20.7474  -57.7207 H         1 UNK         0.0600 
    240 H240       -3.3549  -18.3983  -54.6687 H         1 UNK         0.3000 
    241 H241       -1.2817  -17.1643  -56.3128 H         1 UNK         0.0600 
    242 H242       -4.3185  -15.9396  -55.4232 H         1 UNK         0.3800 
    243 H243       -3.8693  -14.2538  -55.4203 H         1 UNK         0.3800 
    244 H244       -0.5291  -18.3978  -54.4010 H         1 UNK         0.0800 
    245 H245       -0.1678  -16.7256  -54.1181 H         1 UNK         0.0800 
    246 H246       -0.9311  -15.4121  -52.1612 H         1 UNK         0.0800 
    247 H247       -1.6492  -16.1230  -50.7389 H         1 UNK         0.0800 
@<TRIPOS>BOND
     1    1    2 1    
     2    1  127 1    
     3    1  128 1    
     4    1  129 1    
     5    2    3 2    
     6    2    4 am   BACKBONE|DICT|INTERRES
     7    4    5 1    
     8    4  130 1    
     9    5    6 1    
    10    5   65 1    
    11    5  131 1    
    12    6    7 1    
    13    6  132 1    
    14    6  133 1    
    15    7    8 1    
    16    8    9 1    
    17    8  134 1    
    18    8  135 1    
    19    9   10 ar   
    20    9   14 ar   
    21   10   11 ar   
    22   10  136 1    
    23   11   12 ar   
    24   11  126 1    
    25   12   13 ar   
    26   12  137 1    
    27   13   14 ar   
    28   13   15 1    
    29   14  138 1    
    30   15   16 1    
    31   15  139 1    
    32   15  140 1    
    33   16   17 1    
    34   17   18 1    
    35   17  141 1    
    36   17  142 1    
    37   18   19 1    
    38   18   67 1    
    39   18  143 1    
    40   19   20 am   BACKBONE|DICT|INTERRES
    41   19  144 1    
    42   20   21 2    
    43   20   22 1    
    44   22   23 1    
    45   22   24 1    
    46   22  145 1    
    47   23  146 1    
    48   23  147 1    
    49   23  148 1    
    50   24   25 am   BACKBONE|DICT|INTERRES
    51   24  149 1    
    52   25   26 2    
    53   25   27 1    
    54   27   28 1    
    55   27   29 1    
    56   27  150 1    
    57   28  151 1    
    58   28  152 1    
    59   28  153 1    
    60   29   30 am   BACKBONE|DICT|INTERRES
    61   29  154 1    
    62   30   31 2    
    63   30   32 1    
    64   32   33 1    
    65   32   34 1    
    66   32  155 1    
    67   33  156 1    
    68   33  157 1    
    69   33  158 1    
    70   34   35 am   BACKBONE|DICT|INTERRES
    71   34  159 1    
    72   35   36 2    
    73   35   37 1    
    74   37   38 1    
    75   37   39 1    
    76   37  160 1    
    77   38  161 1    
    78   38  162 1    
    79   38  163 1    
    80   39   40 am   BACKBONE|DICT|INTERRES
    81   39  164 1    
    82   40   41 2    
    83   40   42 1    
    84   42   43 1    
    85   42   44 1    
    86   42  165 1    
    87   43  166 1    
    88   43  167 1    
    89   43  168 1    
    90   44   45 am   BACKBONE|DICT|INTERRES
    91   44  169 1    
    92   45   46 2    
    93   45   47 1    
    94   47   48 1    
    95   47   49 1    
    96   47  170 1    
    97   48  171 1    
    98   48  172 1    
    99   48  173 1    
   100   49   50 am   BACKBONE|DICT|INTERRES
   101   49  174 1    
   102   50   51 2    
   103   50   52 1    
   104   52   53 1    
   105   52   54 1    
   106   52  175 1    
   107   53  176 1    
   108   53  177 1    
   109   53  178 1    
   110   54   55 am   BACKBONE|DICT|INTERRES
   111   54  179 1    
   112   55   56 2    
   113   55   57 1    
   114   57   58 1    
   115   57   59 1    
   116   57  180 1    
   117   58  181 1    
   118   58  182 1    
   119   58  183 1    
   120   59   60 am   BACKBONE|DICT|INTERRES
   121   59  184 1    
   122   60   61 2    
   123   60   62 1    
   124   62   63 1    
   125   62   64 1    
   126   62  185 1    
   127   63  186 1    
   128   63  187 1    
   129   63  188 1    
   130   64   65 am   BACKBONE|DICT|INTERRES
   131   64  189 1    
   132   65   66 2    
   133   67   68 2    
   134   67   69 am   BACKBONE|DICT|INTERRES
   135   69   70 1    
   136   69  190 1    
   137   70   71 1    
   138   70   72 1    
   139   70  191 1    
   140   71  192 1    
   141   71  193 1    
   142   71  194 1    
   143   72   73 2    
   144   72   74 am   BACKBONE|DICT|INTERRES
   145   74   75 1    
   146   74  195 1    
   147   75   76 1    
   148   75   77 1    
   149   75  196 1    
   150   76  197 1    
   151   76  198 1    
   152   76  199 1    
   153   77   78 2    
   154   77   79 am   BACKBONE|DICT|INTERRES
   155   79   80 1    
   156   79  200 1    
   157   80   81 1    
   158   80   82 1    
   159   80  201 1    
   160   81  202 1    
   161   81  203 1    
   162   81  204 1    
   163   82   83 2    
   164   82   84 am   BACKBONE|DICT|INTERRES
   165   84   85 1    
   166   84  205 1    
   167   85   86 1    
   168   85   87 1    
   169   85  206 1    
   170   86  207 1    
   171   86  208 1    
   172   86  209 1    
   173   87   88 2    
   174   87   89 am   BACKBONE|DICT|INTERRES
   175   89   90 1    
   176   89  210 1    
   177   90   91 1    
   178   90   92 1    
   179   90  211 1    
   180   91  212 1    
   181   91  213 1    
   182   91  214 1    
   183   92   93 2    
   184   92   94 am   BACKBONE|DICT|INTERRES
   185   94   95 1    
   186   94  215 1    
   187   95   96 1    
   188   95   97 1    
   189   95  216 1    
   190   96  217 1    
   191   96  218 1    
   192   96  219 1    
   193   97   98 2    
   194   97   99 am   BACKBONE|DICT|INTERRES
   195   99  100 1    
   196   99  220 1    
   197  100  101 1    
   198  100  102 1    
   199  100  221 1    
   200  101  222 1    
   201  101  223 1    
   202  101  224 1    
   203  102  103 2    
   204  102  104 am   BACKBONE|DICT|INTERRES
   205  104  105 1    
   206  104  225 1    
   207  105  106 1    
   208  105  107 1    
   209  105  226 1    
   210  106  227 1    
   211  106  228 1    
   212  106  229 1    
   213  107  108 2    
   214  107  109 am   BACKBONE|DICT|INTERRES
   215  109  110 1    
   216  109  230 1    
   217  110  111 1    
   218  110  112 1    
   219  110  231 1    
   220  111  232 1    
   221  111  233 1    
   222  111  234 1    
   223  112  113 2    
   224  112  114 am   BACKBONE|DICT|INTERRES
   225  114  115 1    
   226  114  235 1    
   227  115  116 1    
   228  115  117 1    
   229  115  236 1    
   230  116  237 1    
   231  116  238 1    
   232  116  239 1    
   233  117  118 2    
   234  117  119 am   BACKBONE|DICT|INTERRES
   235  119  120 1    
   236  119  240 1    
   237  120  121 1    
   238  120  124 1    
   239  120  241 1    
   240  121  122 am   BACKBONE|DICT|INTERRES
   241  121  123 2    
   242  122  242 1    
   243  122  243 1    
   244  124  125 1    
   245  124  244 1    
   246  124  245 1    
   247  125  126 1    
   248  126  246 1    
   249  126  247 1    
@<TRIPOS>SUBSTRUCTURE
     1 UNK         1 GROUP             0       ****    0 ROOT    
