@<TRIPOS>MOLECULE
3R540
247   249    1
SMALL
USER_CHARGES


@<TRIPOS>ATOM
      1 CA          4.6036  -15.9351  -47.8543 C.3       0 UNK        -0.1800 
      2 C           3.2948  -15.5831  -47.1638 C.2       0 UNK         0.5000 
      3 O           3.2445  -15.5259  -45.9371 O.2       0 UNK        -0.5000 
      4 N           2.2393  -15.3289  -47.9458 N.am      1 UNK        -0.5000 
      5 CA          0.8596  -15.0315  -47.5310 C.3       1 UNK         0.1400 
      6 C6         -0.1612  -15.3363  -48.6656 C.3       23 UNK        -0.0398 
      7 S7          0.3552  -14.7353  -50.3179 S.3       23 UNK        -0.2404 
      8 C8         -0.4186  -15.9538  -51.4425 C.3       23 UNK        -0.0205 
      9 C9          0.2258  -17.3432  -51.5204 C.ar      23 UNK        -0.0193 
     10 C10        -0.1937  -18.2047  -52.5390 C.ar      23 UNK        -0.1150 
     11 C11         0.3171  -19.5011  -52.6475 C.ar      23 UNK        -0.0193 
     12 C12         1.2473  -19.9481  -51.7075 C.ar      23 UNK        -0.1150 
     13 C13         1.6846  -19.1070  -50.6822 C.ar      23 UNK        -0.0193 
     14 C14         1.1920  -17.7994  -50.6147 C.ar      23 UNK        -0.1150 
     15 C15         2.6860  -19.6317  -49.6572 C.3       23 UNK        -0.0205 
     16 S16         2.3499  -19.1150  -47.9379 S.3       23 UNK        -0.2404 
     17 C17         0.6212  -19.6387  -47.6831 C.3       23 UNK        -0.0398 
     18 CA          0.4797  -21.0975  -47.1933 C.3       11 UNK         0.1400 
     19 N           1.1828  -21.3531  -45.9244 N.am      11 UNK        -0.5000 
     20 C           1.2897  -22.5538  -45.3321 C.2       10 UNK         0.5000 
     21 O           0.8234  -23.5880  -45.8089 O.2       10 UNK        -0.5000 
     22 CA          1.9687  -22.6047  -43.9516 C.3       10 UNK         0.1400 
     23 CB          3.5004  -22.5905  -44.0739 C.3       10 UNK        -0.1800 
     24 N           1.5134  -21.5046  -43.1008 N.am      10 UNK        -0.5000 
     25 C           0.3455  -21.5067  -42.4401 C.2       9 UNK         0.5000 
     26 O          -0.3979  -22.4862  -42.3843 O.2       9 UNK        -0.5000 
     27 CA         -0.0922  -20.1977  -41.7488 C.3       9 UNK         0.1400 
     28 CB          0.2891  -20.2087  -40.2612 C.3       9 UNK        -0.1800 
     29 N           0.4555  -18.9963  -42.3772 N.am      9 UNK        -0.5000 
     30 C           0.1749  -18.5859  -43.6210 C.2       8 UNK         0.5000 
     31 O          -0.6423  -19.1373  -44.3561 O.2       8 UNK        -0.5000 
     32 CA          1.0056  -17.4103  -44.1597 C.3       8 UNK         0.1400 
     33 CB          0.3561  -16.0651  -43.8083 C.3       8 UNK        -0.1800 
     34 N           2.3849  -17.4393  -43.6732 N.am      8 UNK        -0.5000 
     35 C           3.2813  -18.3780  -44.0061 C.2       7 UNK         0.5000 
     36 O           3.0182  -19.3380  -44.7273 O.2       7 UNK        -0.5000 
     37 CA          4.6796  -18.2634  -43.3731 C.3       7 UNK         0.1400 
     38 CB          5.5473  -17.2510  -44.1348 C.3       7 UNK        -0.1800 
     39 N           4.6087  -17.8819  -41.9632 N.am      7 UNK        -0.5000 
     40 C           4.1228  -18.6683  -40.9920 C.2       6 UNK         0.5000 
     41 O           3.7890  -19.8403  -41.1655 O.2       6 UNK        -0.5000 
     42 CA          3.9335  -18.0177  -39.6068 C.3       6 UNK         0.1400 
     43 CB          5.1943  -18.1975  -38.7484 C.3       6 UNK        -0.1800 
     44 N           3.5938  -16.5914  -39.6786 N.am      6 UNK        -0.5000 
     45 C           2.4802  -16.1051  -40.2439 C.2       5 UNK         0.5000 
     46 O           1.6166  -16.8191  -40.7576 O.2       5 UNK        -0.5000 
     47 CA          2.3626  -14.5680  -40.3080 C.3       5 UNK         0.1400 
     48 CB          3.2201  -14.0309  -41.4652 C.3       5 UNK        -0.1800 
     49 N           0.9887  -14.0845  -40.4804 N.am      5 UNK        -0.5000 
     50 C          -0.0196  -14.3040  -39.6230 C.2       4 UNK         0.5000 
     51 O           0.1194  -14.9109  -38.5591 O.2       4 UNK        -0.5000 
     52 CA         -1.4099  -13.7376  -39.9789 C.3       4 UNK         0.1400 
     53 CB         -1.9808  -12.9086  -38.8147 C.3       4 UNK        -0.1800 
     54 N          -1.4025  -12.8938  -41.1751 N.am      4 UNK        -0.5000 
     55 C          -1.8367  -13.2545  -42.3889 C.2       3 UNK         0.5000 
     56 O          -2.2395  -14.3840  -42.6660 O.2       3 UNK        -0.5000 
     57 CA         -1.8556  -12.1601  -43.4778 C.3       3 UNK         0.1400 
     58 CB         -2.0557  -10.7367  -42.9111 C.3       3 UNK        -0.1800 
     59 N          -0.6852  -12.1942  -44.3590 N.am      3 UNK        -0.5000 
     60 C           0.6055  -12.1024  -44.0134 C.2       2 UNK         0.5000 
     61 O           1.0000  -12.0631  -42.8467 O.2       2 UNK        -0.5000 
     62 CA          1.6148  -12.0501  -45.1802 C.3       2 UNK         0.1400 
     63 CB          3.0587  -11.8022  -44.7086 C.3       2 UNK        -0.1800 
     64 N           1.5935  -13.2773  -45.9717 N.am      2 UNK        -0.5000 
     65 C           0.6877  -13.6294  -46.8903 C.2       1 UNK         0.5000 
     66 O          -0.2587  -12.9043  -47.2030 O.2       1 UNK        -0.5000 
     67 C          -1.0176  -21.4715  -47.1356 C.2       11 UNK         0.5000 
     68 O          -1.5831  -21.8889  -48.1482 O.2       11 UNK        -0.5000 
     69 N          -1.6253  -21.3517  -45.9469 N.am      12 UNK        -0.5000 
     70 CA         -3.0022  -21.7384  -45.6405 C.3       12 UNK         0.1400 
     71 CB         -3.3385  -21.3249  -44.2009 C.3       12 UNK        -0.1800 
     72 C          -3.3115  -23.2334  -45.8638 C.2       12 UNK         0.5000 
     73 O          -4.4806  -23.5710  -46.0470 O.2       12 UNK        -0.5000 
     74 N          -2.2846  -24.0972  -45.9212 N.am      13 UNK        -0.5000 
     75 CA         -2.4137  -25.5050  -46.3163 C.3       13 UNK         0.1400 
     76 CB         -1.0934  -26.2387  -46.0406 C.3       13 UNK        -0.1800 
     77 C          -2.8326  -25.6839  -47.7923 C.2       13 UNK         0.5000 
     78 O          -3.4536  -26.6933  -48.1256 O.2       13 UNK        -0.5000 
     79 N          -2.5198  -24.6886  -48.6335 N.am      14 UNK        -0.5000 
     80 CA         -2.9713  -24.5613  -50.0208 C.3       14 UNK         0.1400 
     81 CB         -1.7386  -24.3767  -50.9186 C.3       14 UNK        -0.1800 
     82 C          -3.9705  -23.3922  -50.1675 C.2       14 UNK         0.5000 
     83 O          -4.1927  -22.9036  -51.2763 O.2       14 UNK        -0.5000 
     84 N          -4.5395  -22.9497  -49.0349 N.am      15 UNK        -0.5000 
     85 CA         -5.5193  -21.8744  -48.8647 C.3       15 UNK         0.1400 
     86 CB         -6.8764  -22.2980  -49.4567 C.3       15 UNK        -0.1800 
     87 C          -5.0558  -20.4920  -49.3721 C.2       15 UNK         0.5000 
     88 O          -5.9039  -19.6487  -49.6621 O.2       15 UNK        -0.5000 
     89 N          -3.7330  -20.2766  -49.4722 N.am      16 UNK        -0.5000 
     90 CA         -3.0725  -19.0457  -49.9260 C.3       16 UNK         0.1400 
     91 CB         -3.1041  -17.9913  -48.8018 C.3       16 UNK        -0.1800 
     92 C          -3.6287  -18.5202  -51.2699 C.2       16 UNK         0.5000 
     93 O          -4.0457  -17.3654  -51.3656 O.2       16 UNK        -0.5000 
     94 N          -3.6564  -19.4167  -52.2648 N.am      17 UNK        -0.5000 
     95 CA         -4.1432  -19.2520  -53.6393 C.3       17 UNK         0.1400 
     96 CB         -3.4776  -18.0734  -54.3881 C.3       17 UNK        -0.1800 
     97 C          -5.6717  -19.2766  -53.8206 C.2       17 UNK         0.5000 
     98 O          -6.1184  -19.3050  -54.9695 O.2       17 UNK        -0.5000 
     99 N          -6.4597  -19.3343  -52.7359 N.am      18 UNK        -0.5000 
    100 CA        -7.9208  -19.4594  -52.8195 C.3       18 UNK         0.1400 
    101 CB        -8.5550  -19.2022  -51.4461 C.3       18 UNK        -0.1800 
    102 C         -8.3721  -20.8215  -53.3846 C.2       18 UNK         0.5000 
    103 O         -9.4081  -20.8927  -54.0468 O.2       18 UNK        -0.5000 
    104 N         -7.5650  -21.8675  -53.1599 N.am      19 UNK        -0.5000 
    105 CA        -7.7366  -23.1994  -53.7336 C.3       19 UNK         0.1400 
    106 CB        -7.1932  -24.2516  -52.7508 C.3       19 UNK        -0.1800 
    107 C         -7.0534  -23.2656  -55.1120 C.2       19 UNK         0.5000 
    108 O         -6.0251  -23.9272  -55.2611 O.2       19 UNK        -0.5000 
    109 N         -7.6320  -22.5451  -56.0839 N.am      20 UNK        -0.5000 
    110 CA        -7.2776  -22.5194  -57.5083 C.3       20 UNK         0.1400 
    111 CB        -7.7281  -23.8328  -58.1808 C.3       20 UNK        -0.1800 
    112 C         -5.7912  -22.1968  -57.7714 C.2       20 UNK         0.5000 
    113 O         -5.0962  -22.9683  -58.4366 O.2       20 UNK        -0.5000 
    114 N         -5.3191  -21.0758  -57.2054 N.am      21 UNK        -0.5000 
    115 CA        -3.9505  -20.5510  -57.3179 C.3       21 UNK         0.1400 
    116 CB        -3.6494  -20.1130  -58.7667 C.3       21 UNK        -0.1800 
    117 C         -2.8732  -21.4963  -56.7405 C.2       21 UNK         0.5000 
    118 O         -1.7295  -21.4734  -57.1967 O.2       21 UNK        -0.5000 
    119 N         -3.2706  -22.3123  -55.7542 N.am      22 UNK        -0.5000 
    120 CA        -2.4912  -23.4012  -55.1414 C.3       22 UNK         0.1400 
    121 C         -2.3142  -24.6479  -56.0646 C.2       22 UNK         0.5000 
    122 N         -3.0237  -24.7668  -57.1819 N.am      22 UNK        -0.7600 
    123 O         -1.5365  -25.5458  -55.7524 O.2       22 UNK        -0.5000 
    124 C124       -1.1449  -22.9459  -54.5030 C.3       23 UNK        -0.0398 
    125 S125       -1.3276  -21.6506  -53.2272 S.3       23 UNK        -0.2404 
    126 C126       -0.1085  -20.4207  -53.7832 C.3       23 UNK        -0.0205 
    127 H127        4.5208  -15.8653  -48.9391 H         1 UNK         0.0600 
    128 H128        4.8937  -16.9547  -47.6008 H         1 UNK         0.0600 
    129 H129        5.3950  -15.2612  -47.5267 H         1 UNK         0.0600 
    130 H130        2.3716  -15.3266  -48.9473 H         1 UNK         0.3000 
    131 H131        0.6226  -15.7260  -46.7247 H         1 UNK         0.0600 
    132 H132       -0.3009  -16.4156  -48.7184 H         1 UNK         0.0800 
    133 H133       -1.1535  -14.9431  -48.4382 H         1 UNK         0.0800 
    134 H134       -1.4682  -16.0665  -51.1680 H         1 UNK         0.0800 
    135 H135       -0.4137  -15.5178  -52.4426 H         1 UNK         0.0800 
    136 H136       -0.9204  -17.8546  -53.2538 H         1 UNK         0.1150 
    137 H137        1.6320  -20.9559  -51.7796 H         1 UNK         0.1150 
    138 H138        1.5556  -17.1574  -49.8309 H         1 UNK         0.1150 
    139 H139        3.6820  -19.2862  -49.9361 H         1 UNK         0.0800 
    140 H140        2.7193  -20.7219  -49.6818 H         1 UNK         0.0800 
    141 H141        0.0622  -19.4911  -48.6076 H         1 UNK         0.0800 
    142 H142        0.1737  -18.9544  -46.9616 H         1 UNK         0.0800 
    143 H143        0.9336  -21.7475  -47.9441 H         1 UNK         0.0600 
    144 H144        1.6503  -20.5578  -45.4988 H         1 UNK         0.3000 
    145 H145        1.6912  -23.5490  -43.4781 H         1 UNK         0.0600 
    146 H146        3.8514  -23.4791  -44.5995 H         1 UNK         0.0600 
    147 H147        3.8647  -21.7261  -44.6269 H         1 UNK         0.0600 
    148 H148        3.9745  -22.5840  -43.0922 H         1 UNK         0.0600 
    149 H149        2.0702  -20.6602  -43.1120 H         1 UNK         0.3000 
    150 H150       -1.1804  -20.1394  -41.8197 H         1 UNK         0.0600 
    151 H151       -0.0508  -19.3025  -39.7593 H         1 UNK         0.0600 
    152 H152        1.3673  -20.2838  -40.1222 H         1 UNK         0.0600 
    153 H153       -0.1667  -21.0566  -39.7485 H         1 UNK         0.0600 
    154 H154        1.0924  -18.4330  -41.8221 H         1 UNK         0.3000 
    155 H155        1.0443  -17.4982  -45.2464 H         1 UNK         0.0600 
    156 H156       -0.6007  -15.9535  -44.3192 H         1 UNK         0.0600 
    157 H157        0.9867  -15.2296  -44.1063 H         1 UNK         0.0600 
    158 H158        0.1645  -15.9696  -42.7398 H         1 UNK         0.0600 
    159 H159        2.6556  -16.7085  -43.0347 H         1 UNK         0.3000 
    160 H160        5.1582  -19.2428  -43.4424 H         1 UNK         0.0600 
    161 H161        5.6057  -17.5077  -45.1932 H         1 UNK         0.0600 
    162 H162        6.5660  -17.2341  -43.7474 H         1 UNK         0.0600 
    163 H163        5.1445  -16.2398  -44.0653 H         1 UNK         0.0600 
    164 H164        4.8747  -16.9373  -41.7299 H         1 UNK         0.3000 
    165 H165        3.1069  -18.5330  -39.1129 H         1 UNK         0.0600 
    166 H166        5.0420  -17.8159  -37.7386 H         1 UNK         0.0600 
    167 H167        5.4582  -19.2522  -38.6592 H         1 UNK         0.0600 
    168 H168        6.0525  -17.6796  -39.1784 H         1 UNK         0.0600 
    169 H169        4.2649  -15.9492  -39.2818 H         1 UNK         0.3000 
    170 H170        2.7421  -14.1590  -39.3696 H         1 UNK         0.0600 
    171 H171        3.2197  -12.9409  -41.4804 H         1 UNK         0.0600 
    172 H172        4.2595  -14.3481  -41.3748 H         1 UNK         0.0600 
    173 H173        2.8520  -14.3788  -42.4313 H         1 UNK         0.0600 
    174 H174        0.8017  -13.5481  -41.3199 H         1 UNK         0.3000 
    175 H175       -2.0677  -14.5954  -40.1326 H         1 UNK         0.0600 
    176 H176       -1.3451  -12.0539  -38.5804 H         1 UNK         0.0600 
    177 H177       -2.9760  -12.5315  -39.0511 H         1 UNK         0.0600 
    178 H178       -2.0725  -13.5089  -37.9087 H         1 UNK         0.0600 
    179 H179       -1.0367  -11.9589  -41.0606 H         1 UNK         0.3000 
    180 H180       -2.7179  -12.3788  -44.1096 H         1 UNK         0.0600 
    181 H181       -2.2261  -10.0207  -43.7151 H         1 UNK         0.0600 
    182 H182       -1.1930  -10.3894  -42.3419 H         1 UNK         0.0600 
    183 H183       -2.9259  -10.6940  -42.2546 H         1 UNK         0.0600 
    184 H184       -0.8840  -12.2889  -45.3497 H         1 UNK         0.3000 
    185 H185        1.3269  -11.2132  -45.8197 H         1 UNK         0.0600 
    186 H186        3.4333  -12.6287  -44.1046 H         1 UNK         0.0600 
    187 H187        3.7324  -11.6790  -45.5567 H         1 UNK         0.0600 
    188 H188        3.1261  -10.8950  -44.1067 H         1 UNK         0.0600 
    189 H189        2.3164  -13.9630  -45.7625 H         1 UNK         0.3000 
    190 H190       -1.1098  -20.9011  -45.1978 H         1 UNK         0.3000 
    191 H191       -3.6493  -21.1719  -46.3126 H         1 UNK         0.0600 
    192 H192       -2.7271  -21.8614  -43.4763 H         1 UNK         0.0600 
    193 H193       -4.3827  -21.5367  -43.9674 H         1 UNK         0.0600 
    194 H194       -3.1832  -20.2567  -44.0481 H         1 UNK         0.0600 
    195 H195       -1.3415  -23.7551  -45.7749 H         1 UNK         0.3000 
    196 H196       -3.1896  -25.9573  -45.6951 H         1 UNK         0.0600 
    197 H197       -1.1946  -27.3074  -46.2334 H         1 UNK         0.0600 
    198 H198       -0.7842  -26.1226  -45.0016 H         1 UNK         0.0600 
    199 H199       -0.2877  -25.8679  -46.6751 H         1 UNK         0.0600 
    200 H200       -2.0214  -23.8822  -48.2710 H         1 UNK         0.3000 
    201 H201       -3.4931  -25.4653  -50.3398 H         1 UNK         0.0600 
    202 H202       -1.0306  -25.1955  -50.7912 H         1 UNK         0.0600 
    203 H203       -1.2175  -23.4443  -50.6972 H         1 UNK         0.0600 
    204 H204       -2.0244  -24.3587  -51.9702 H         1 UNK         0.0600 
    205 H205       -4.2970  -23.4318  -48.1786 H         1 UNK         0.3000 
    206 H206       -5.6576  -21.7623  -47.7890 H         1 UNK         0.0600 
    207 H207       -7.6682  -21.6145  -49.1500 H         1 UNK         0.0600 
    208 H208       -6.8486  -22.3074  -50.5443 H         1 UNK         0.0600 
    209 H209       -7.1639  -23.2935  -49.1186 H         1 UNK         0.0600 
    210 H210       -3.1094  -21.0319  -49.2061 H         1 UNK         0.3000 
    211 H211       -2.0275  -19.3016  -50.1093 H         1 UNK         0.0600 
    212 H212       -4.1255  -17.7172  -48.5361 H         1 UNK         0.0600 
    213 H213       -2.6105  -18.3600  -47.9023 H         1 UNK         0.0600 
    214 H214       -2.5913  -17.0792  -49.1054 H         1 UNK         0.0600 
    215 H215       -3.3172  -20.3473  -52.0529 H         1 UNK         0.3000 
    216 H216       -3.8151  -20.1571  -54.1470 H         1 UNK         0.0600 
    217 H217       -4.0176  -17.8113  -55.2981 H         1 UNK         0.0600 
    218 H218       -2.4699  -18.3383  -54.7011 H         1 UNK         0.0600 
    219 H219       -3.4215  -17.1623  -53.7953 H         1 UNK         0.0600 
    220 H220       -6.0497  -19.3042  -51.8090 H         1 UNK         0.3000 
    221 H221       -8.2823  -18.6860  -53.5007 H         1 UNK         0.0600 
    222 H222       -8.3053  -19.9871  -50.7340 H         1 UNK         0.0600 
    223 H223       -8.2259  -18.2506  -51.0281 H         1 UNK         0.0600 
    224 H224       -9.6424  -19.1673  -51.5218 H         1 UNK         0.0600 
    225 H225       -6.7119  -21.7108  -52.6430 H         1 UNK         0.3000 
    226 H226       -8.7990  -23.4065  -53.8790 H         1 UNK         0.0600 
    227 H227       -7.7246  -24.2163  -51.8000 H         1 UNK         0.0600 
    228 H228       -7.3168  -25.2582  -53.1520 H         1 UNK         0.0600 
    229 H229       -6.1319  -24.1091  -52.5503 H         1 UNK         0.0600 
    230 H230       -8.4347  -21.9848  -55.8242 H         1 UNK         0.3000 
    231 H231       -7.8503  -21.7065  -57.9570 H         1 UNK         0.0600 
    232 H232       -7.1896  -24.6947  -57.7850 H         1 UNK         0.0600 
    233 H233       -8.7937  -24.0067  -58.0315 H         1 UNK         0.0600 
    234 H234       -7.5532  -23.8023  -59.2569 H         1 UNK         0.0600 
    235 H235       -5.9395  -20.5268  -56.6177 H         1 UNK         0.3000 
    236 H236       -3.9204  -19.6539  -56.7034 H         1 UNK         0.0600 
    237 H237       -3.5856  -20.9651  -59.4439 H         1 UNK         0.0600 
    238 H238       -4.4203  -19.4409  -59.1436 H         1 UNK         0.0600 
    239 H239       -2.7002  -19.5790  -58.8249 H         1 UNK         0.0600 
    240 H240       -4.2496  -22.3067  -55.5043 H         1 UNK         0.3000 
    241 H241       -3.1183  -23.7620  -54.3251 H         1 UNK         0.0600 
    242 H242       -2.9017  -25.5853  -57.7561 H         1 UNK         0.3800 
    243 H243       -3.6935  -24.0583  -57.4621 H         1 UNK         0.3800 
    244 H244       -0.6560  -23.7903  -54.0152 H         1 UNK         0.0800 
    245 H245       -0.4503  -22.6167  -55.2758 H         1 UNK         0.0800 
    246 H246       -0.5244  -19.8503  -54.6147 H         1 UNK         0.0800 
    247 H247        0.7758  -20.9286  -54.1709 H         1 UNK         0.0800 
@<TRIPOS>BOND
     1    1    2 1    
     2    1  127 1    
     3    1  128 1    
     4    1  129 1    
     5    2    3 2    
     6    2    4 am   BACKBONE|DICT|INTERRES
     7    4    5 1    
     8    4  130 1    
     9    5    6 1    
    10    5   65 1    
    11    5  131 1    
    12    6    7 1    
    13    6  132 1    
    14    6  133 1    
    15    7    8 1    
    16    8    9 1    
    17    8  134 1    
    18    8  135 1    
    19    9   10 ar   
    20    9   14 ar   
    21   10   11 ar   
    22   10  136 1    
    23   11   12 ar   
    24   11  126 1    
    25   12   13 ar   
    26   12  137 1    
    27   13   14 ar   
    28   13   15 1    
    29   14  138 1    
    30   15   16 1    
    31   15  139 1    
    32   15  140 1    
    33   16   17 1    
    34   17   18 1    
    35   17  141 1    
    36   17  142 1    
    37   18   19 1    
    38   18   67 1    
    39   18  143 1    
    40   19   20 am   BACKBONE|DICT|INTERRES
    41   19  144 1    
    42   20   21 2    
    43   20   22 1    
    44   22   23 1    
    45   22   24 1    
    46   22  145 1    
    47   23  146 1    
    48   23  147 1    
    49   23  148 1    
    50   24   25 am   BACKBONE|DICT|INTERRES
    51   24  149 1    
    52   25   26 2    
    53   25   27 1    
    54   27   28 1    
    55   27   29 1    
    56   27  150 1    
    57   28  151 1    
    58   28  152 1    
    59   28  153 1    
    60   29   30 am   BACKBONE|DICT|INTERRES
    61   29  154 1    
    62   30   31 2    
    63   30   32 1    
    64   32   33 1    
    65   32   34 1    
    66   32  155 1    
    67   33  156 1    
    68   33  157 1    
    69   33  158 1    
    70   34   35 am   BACKBONE|DICT|INTERRES
    71   34  159 1    
    72   35   36 2    
    73   35   37 1    
    74   37   38 1    
    75   37   39 1    
    76   37  160 1    
    77   38  161 1    
    78   38  162 1    
    79   38  163 1    
    80   39   40 am   BACKBONE|DICT|INTERRES
    81   39  164 1    
    82   40   41 2    
    83   40   42 1    
    84   42   43 1    
    85   42   44 1    
    86   42  165 1    
    87   43  166 1    
    88   43  167 1    
    89   43  168 1    
    90   44   45 am   BACKBONE|DICT|INTERRES
    91   44  169 1    
    92   45   46 2    
    93   45   47 1    
    94   47   48 1    
    95   47   49 1    
    96   47  170 1    
    97   48  171 1    
    98   48  172 1    
    99   48  173 1    
   100   49   50 am   BACKBONE|DICT|INTERRES
   101   49  174 1    
   102   50   51 2    
   103   50   52 1    
   104   52   53 1    
   105   52   54 1    
   106   52  175 1    
   107   53  176 1    
   108   53  177 1    
   109   53  178 1    
   110   54   55 am   BACKBONE|DICT|INTERRES
   111   54  179 1    
   112   55   56 2    
   113   55   57 1    
   114   57   58 1    
   115   57   59 1    
   116   57  180 1    
   117   58  181 1    
   118   58  182 1    
   119   58  183 1    
   120   59   60 am   BACKBONE|DICT|INTERRES
   121   59  184 1    
   122   60   61 2    
   123   60   62 1    
   124   62   63 1    
   125   62   64 1    
   126   62  185 1    
   127   63  186 1    
   128   63  187 1    
   129   63  188 1    
   130   64   65 am   BACKBONE|DICT|INTERRES
   131   64  189 1    
   132   65   66 2    
   133   67   68 2    
   134   67   69 am   BACKBONE|DICT|INTERRES
   135   69   70 1    
   136   69  190 1    
   137   70   71 1    
   138   70   72 1    
   139   70  191 1    
   140   71  192 1    
   141   71  193 1    
   142   71  194 1    
   143   72   73 2    
   144   72   74 am   BACKBONE|DICT|INTERRES
   145   74   75 1    
   146   74  195 1    
   147   75   76 1    
   148   75   77 1    
   149   75  196 1    
   150   76  197 1    
   151   76  198 1    
   152   76  199 1    
   153   77   78 2    
   154   77   79 am   BACKBONE|DICT|INTERRES
   155   79   80 1    
   156   79  200 1    
   157   80   81 1    
   158   80   82 1    
   159   80  201 1    
   160   81  202 1    
   161   81  203 1    
   162   81  204 1    
   163   82   83 2    
   164   82   84 am   BACKBONE|DICT|INTERRES
   165   84   85 1    
   166   84  205 1    
   167   85   86 1    
   168   85   87 1    
   169   85  206 1    
   170   86  207 1    
   171   86  208 1    
   172   86  209 1    
   173   87   88 2    
   174   87   89 am   BACKBONE|DICT|INTERRES
   175   89   90 1    
   176   89  210 1    
   177   90   91 1    
   178   90   92 1    
   179   90  211 1    
   180   91  212 1    
   181   91  213 1    
   182   91  214 1    
   183   92   93 2    
   184   92   94 am   BACKBONE|DICT|INTERRES
   185   94   95 1    
   186   94  215 1    
   187   95   96 1    
   188   95   97 1    
   189   95  216 1    
   190   96  217 1    
   191   96  218 1    
   192   96  219 1    
   193   97   98 2    
   194   97   99 am   BACKBONE|DICT|INTERRES
   195   99  100 1    
   196   99  220 1    
   197  100  101 1    
   198  100  102 1    
   199  100  221 1    
   200  101  222 1    
   201  101  223 1    
   202  101  224 1    
   203  102  103 2    
   204  102  104 am   BACKBONE|DICT|INTERRES
   205  104  105 1    
   206  104  225 1    
   207  105  106 1    
   208  105  107 1    
   209  105  226 1    
   210  106  227 1    
   211  106  228 1    
   212  106  229 1    
   213  107  108 2    
   214  107  109 am   BACKBONE|DICT|INTERRES
   215  109  110 1    
   216  109  230 1    
   217  110  111 1    
   218  110  112 1    
   219  110  231 1    
   220  111  232 1    
   221  111  233 1    
   222  111  234 1    
   223  112  113 2    
   224  112  114 am   BACKBONE|DICT|INTERRES
   225  114  115 1    
   226  114  235 1    
   227  115  116 1    
   228  115  117 1    
   229  115  236 1    
   230  116  237 1    
   231  116  238 1    
   232  116  239 1    
   233  117  118 2    
   234  117  119 am   BACKBONE|DICT|INTERRES
   235  119  120 1    
   236  119  240 1    
   237  120  121 1    
   238  120  124 1    
   239  120  241 1    
   240  121  122 am   BACKBONE|DICT|INTERRES
   241  121  123 2    
   242  122  242 1    
   243  122  243 1    
   244  124  125 1    
   245  124  244 1    
   246  124  245 1    
   247  125  126 1    
   248  126  246 1    
   249  126  247 1    
@<TRIPOS>SUBSTRUCTURE
     1 UNK         1 GROUP             0       ****    0 ROOT    
