@<TRIPOS>MOLECULE
3R540
247   249    1
SMALL
USER_CHARGES


@<TRIPOS>ATOM
      1 CA         -0.7990  -15.6548  -53.3620 C.3       0 UNK        -0.1800 
      2 C          -0.7639  -14.7896  -52.1098 C.2       0 UNK         0.5000 
      3 O          -1.4244  -13.7523  -52.0603 O.2       0 UNK        -0.5000 
      4 N           0.0190  -15.2047  -51.1090 N.am      1 UNK        -0.5000 
      5 CA          0.1887  -14.5180  -49.8272 C.3       1 UNK         0.1400 
      6 C6          1.5279  -14.8986  -49.1424 C.3       23 UNK        -0.0398 
      7 S7          1.7843  -16.6967  -48.9416 S.3       23 UNK        -0.2404 
      8 C8          2.8647  -17.0726  -50.3596 C.3       23 UNK        -0.0205 
      9 C9          2.8487  -18.5637  -50.6468 C.ar      23 UNK        -0.0193 
     10 C10         2.0919  -19.0810  -51.7039 C.ar      23 UNK        -0.1150 
     11 C11         2.0242  -20.4645  -51.9218 C.ar      23 UNK        -0.0193 
     12 C12         2.7034  -21.3197  -51.0482 C.ar      23 UNK        -0.1150 
     13 C13         3.4509  -20.8147  -49.9811 C.ar      23 UNK        -0.0193 
     14 C14         3.5496  -19.4326  -49.8095 C.ar      23 UNK        -0.1150 
     15 C15         4.0621  -21.7669  -48.9592 C.3       23 UNK        -0.0205 
     16 S16         3.5614  -21.3982  -47.2357 S.3       23 UNK        -0.2404 
     17 C17         1.7662  -21.0745  -47.3713 C.3       23 UNK        -0.0398 
     18 CA          0.8972  -22.2116  -46.7957 C.3       11 UNK         0.1400 
     19 N           0.9048  -22.2459  -45.3299 N.am      11 UNK        -0.5000 
     20 C           0.3101  -23.1921  -44.5890 C.2       10 UNK         0.5000 
     21 O          -0.2414  -24.1842  -45.0644 O.2       10 UNK        -0.5000 
     22 CA          0.2564  -22.9576  -43.0687 C.3       10 UNK         0.1400 
     23 CB          1.5863  -23.3333  -42.3989 C.3       10 UNK        -0.1800 
     24 N          -0.1037  -21.5785  -42.7352 N.am      10 UNK        -0.5000 
     25 C          -1.2822  -21.0132  -43.0360 C.2       9 UNK         0.5000 
     26 O          -2.2154  -21.6218  -43.5598 O.2       9 UNK        -0.5000 
     27 CA         -1.4275  -19.5063  -42.7555 C.3       9 UNK         0.1400 
     28 CB         -1.7727  -19.2505  -41.2812 C.3       9 UNK        -0.1800 
     29 N          -0.2289  -18.7507  -43.1198 N.am      9 UNK        -0.5000 
     30 C           0.2432  -18.6246  -44.3679 C.2       8 UNK         0.5000 
     31 O          -0.3319  -19.0691  -45.3580 O.2       8 UNK        -0.5000 
     32 CA          1.6096  -17.9364  -44.5351 C.3       8 UNK         0.1400 
     33 CB          1.4586  -16.4154  -44.6510 C.3       8 UNK        -0.1800 
     34 N           2.5256  -18.2612  -43.4435 N.am      8 UNK        -0.5000 
     35 C           3.0699  -19.4718  -43.2604 C.2       7 UNK         0.5000 
     36 O           2.8664  -20.4304  -44.0041 O.2       7 UNK        -0.5000 
     37 CA          3.9446  -19.6487  -42.0066 C.3       7 UNK         0.1400 
     38 CB          5.3524  -19.0800  -42.2388 C.3       7 UNK        -0.1800 
     39 N           3.3514  -19.0191  -40.8255 N.am      7 UNK        -0.5000 
     40 C           2.2187  -19.4352  -40.2421 C.2       6 UNK         0.5000 
     41 O           1.5817  -20.4199  -40.6148 O.2       6 UNK        -0.5000 
     42 CA          1.6828  -18.5824  -39.0764 C.3       6 UNK         0.1400 
     43 CB          2.3174  -19.0251  -37.7497 C.3       6 UNK        -0.1800 
     44 N           1.8810  -17.1394  -39.2527 N.am      6 UNK        -0.5000 
     45 C           1.3821  -16.4161  -40.2633 C.2       5 UNK         0.5000 
     46 O           0.7492  -16.8991  -41.2059 O.2       5 UNK        -0.5000 
     47 CA          1.6644  -14.9090  -40.2367 C.3       5 UNK         0.1400 
     48 CB          3.0931  -14.6108  -40.7206 C.3       5 UNK        -0.1800 
     49 N           0.7113  -14.2505  -41.1214 N.am      5 UNK        -0.5000 
     50 C           0.1208  -13.0701  -40.9125 C.2       4 UNK         0.5000 
     51 O           0.3589  -12.3515  -39.9407 O.2       4 UNK        -0.5000 
     52 CA         -0.9033  -12.6021  -41.9665 C.3       4 UNK         0.1400 
     53 CB         -0.3301  -11.4413  -42.7948 C.3       4 UNK        -0.1800 
     54 N          -1.3174  -13.6627  -42.8876 N.am      4 UNK        -0.5000 
     55 C          -2.2303  -14.6078  -42.6383 C.2       3 UNK         0.5000 
     56 O          -2.8370  -14.6920  -41.5696 O.2       3 UNK        -0.5000 
     57 CA         -2.5136  -15.6107  -43.7835 C.3       3 UNK         0.1400 
     58 CB         -3.6655  -16.5768  -43.4525 C.3       3 UNK        -0.1800 
     59 N          -2.8120  -14.9685  -45.0689 N.am      3 UNK        -0.5000 
     60 C          -1.9380  -14.3453  -45.8684 C.2       2 UNK         0.5000 
     61 O          -0.7504  -14.1752  -45.5828 O.2       2 UNK        -0.5000 
     62 CA         -2.4962  -13.7667  -47.1793 C.3       2 UNK         0.1400 
     63 CB         -3.0503  -12.3527  -46.9470 C.3       2 UNK        -0.1800 
     64 N          -1.4522  -13.7031  -48.2007 N.am      2 UNK        -0.5000 
     65 C          -1.0255  -14.7578  -48.9055 C.2       1 UNK         0.5000 
     66 O          -1.5472  -15.8740  -48.8455 O.2       1 UNK        -0.5000 
     67 C          -0.5318  -22.1182  -47.3677 C.2       11 UNK         0.5000 
     68 O          -0.8450  -22.8482  -48.3049 O.2       11 UNK        -0.5000 
     69 N          -1.3793  -21.2527  -46.7955 N.am      12 UNK        -0.5000 
     70 CA         -2.7770  -21.0884  -47.1965 C.3       12 UNK         0.1400 
     71 CB         -3.3890  -19.8716  -46.4867 C.3       12 UNK        -0.1800 
     72 C          -3.6232  -22.3541  -46.9707 C.2       12 UNK         0.5000 
     73 O          -4.4794  -22.6655  -47.7971 O.2       12 UNK        -0.5000 
     74 N          -3.3475  -23.0853  -45.8839 N.am      13 UNK        -0.5000 
     75 CA         -3.9560  -24.3827  -45.5999 C.3       13 UNK         0.1400 
     76 CB         -3.6829  -24.7666  -44.1373 C.3       13 UNK        -0.1800 
     77 C          -3.4693  -25.4858  -46.5605 C.2       13 UNK         0.5000 
     78 O          -4.2864  -26.2659  -47.0509 O.2       13 UNK        -0.5000 
     79 N          -2.1525  -25.5412  -46.7996 N.am      14 UNK        -0.5000 
     80 CA         -1.5018  -26.5971  -47.5749 C.3       14 UNK         0.1400 
     81 CB         -0.0210  -26.6732  -47.1708 C.3       14 UNK        -0.1800 
     82 C          -1.6212  -26.4277  -49.1001 C.2       14 UNK         0.5000 
     83 O          -1.7964  -27.4256  -49.8008 O.2       14 UNK        -0.5000 
     84 N          -1.4763  -25.1911  -49.5905 N.am      15 UNK        -0.5000 
     85 CA         -1.2521  -24.8721  -51.0021 C.3       15 UNK         0.1400 
     86 CB          0.2369  -24.5264  -51.1942 C.3       15 UNK        -0.1800 
     87 C          -2.1594  -23.7406  -51.5159 C.2       15 UNK         0.5000 
     88 O          -1.8767  -23.1906  -52.5813 O.2       15 UNK        -0.5000 
     89 N          -3.2260  -23.4070  -50.7763 N.am      16 UNK        -0.5000 
     90 CA         -4.2590  -22.3988  -51.0635 C.3       16 UNK         0.1400 
     91 CB         -4.9347  -22.6414  -52.4270 C.3       16 UNK        -0.1800 
     92 C          -3.7866  -20.9379  -50.9215 C.2       16 UNK         0.5000 
     93 O          -4.4859  -20.1423  -50.2930 O.2       16 UNK        -0.5000 
     94 N          -2.6108  -20.6122  -51.4750 N.am      17 UNK        -0.5000 
     95 CA         -1.9579  -19.2987  -51.4696 C.3       17 UNK         0.1400 
     96 CB         -1.3461  -19.0091  -50.0840 C.3       17 UNK        -0.1800 
     97 C          -2.8899  -18.1863  -51.9991 C.2       17 UNK         0.5000 
     98 O          -3.1471  -18.1519  -53.2002 O.2       17 UNK        -0.5000 
     99 N          -3.3916  -17.3043  -51.1235 N.am      18 UNK        -0.5000 
    100 CA        -4.3441  -16.2443  -51.4698 C.3       18 UNK         0.1400 
    101 CB        -4.4892  -15.2744  -50.2870 C.3       18 UNK        -0.1800 
    102 C         -5.7356  -16.7393  -51.9154 C.2       18 UNK         0.5000 
    103 O         -6.4515  -15.9760  -52.5667 O.2       18 UNK        -0.5000 
    104 N         -6.1169  -17.9760  -51.5626 N.am      19 UNK        -0.5000 
    105 CA        -7.4206  -18.5682  -51.8737 C.3       19 UNK         0.1400 
    106 CB        -7.6955  -19.7330  -50.9057 C.3       19 UNK        -0.1800 
    107 C         -7.5333  -18.9851  -53.3560 C.2       19 UNK         0.5000 
    108 O         -7.5090  -20.1760  -53.6676 O.2       19 UNK        -0.5000 
    109 N         -7.6626  -17.9798  -54.2334 N.am      20 UNK        -0.5000 
    110 CA        -7.7916  -18.0697  -55.6927 C.3       20 UNK         0.1400 
    111 CB        -9.0805  -18.8189  -56.0949 C.3       20 UNK        -0.1800 
    112 C         -6.5204  -18.6212  -56.3727 C.2       20 UNK         0.5000 
    113 O         -6.6143  -19.4511  -57.2795 O.2       20 UNK        -0.5000 
    114 N         -5.3630  -18.1119  -55.9232 N.am      21 UNK        -0.5000 
    115 CA        -3.9924  -18.4585  -56.3217 C.3       21 UNK         0.1400 
    116 CB        -3.7834  -18.3011  -57.8431 C.3       21 UNK        -0.1800 
    117 C         -3.5415  -19.8453  -55.8171 C.2       21 UNK         0.5000 
    118 O         -4.3555  -20.6452  -55.3514 O.2       21 UNK        -0.5000 
    119 N         -2.2253  -20.0821  -55.8880 N.am      22 UNK        -0.5000 
    120 CA        -1.5614  -21.3080  -55.4236 C.3       22 UNK         0.1400 
    121 C         -2.0703  -22.5977  -56.1258 C.2       22 UNK         0.5000 
    122 N         -2.2713  -23.6690  -55.3721 N.am      22 UNK        -0.7600 
    123 O         -2.2285  -22.6461  -57.3439 O.2       22 UNK        -0.5000 
    124 C124       -0.0215  -21.2071  -55.5539 C.3       23 UNK        -0.0398 
    125 S125        0.7100  -19.9881  -54.4094 S.3       23 UNK        -0.2404 
    126 C126        1.1993  -21.0983  -53.0427 C.3       23 UNK        -0.0205 
    127 H127       -0.3899  -16.6491  -53.1798 H         1 UNK         0.0600 
    128 H128       -0.2177  -15.1865  -54.1560 H         1 UNK         0.0600 
    129 H129       -1.8234  -15.7690  -53.7155 H         1 UNK         0.0600 
    130 H130        0.4918  -16.0930  -51.1757 H         1 UNK         0.3000 
    131 H131        0.2345  -13.4466  -50.0354 H         1 UNK         0.0600 
    132 H132        1.5977  -14.4325  -48.1577 H         1 UNK         0.0800 
    133 H133        2.3594  -14.4859  -49.7152 H         1 UNK         0.0800 
    134 H134        2.5465  -16.5146  -51.2409 H         1 UNK         0.0800 
    135 H135        3.8818  -16.7463  -50.1376 H         1 UNK         0.0800 
    136 H136        1.5441  -18.4015  -52.3394 H         1 UNK         0.1150 
    137 H137        2.6230  -22.3894  -51.1828 H         1 UNK         0.1150 
    138 H138        4.1102  -19.0344  -48.9753 H         1 UNK         0.1150 
    139 H139        3.7839  -22.7981  -49.1820 H         1 UNK         0.0800 
    140 H140        5.1491  -21.7177  -49.0319 H         1 UNK         0.0800 
    141 H141        1.4979  -20.8888  -48.4100 H         1 UNK         0.0800 
    142 H142        1.5550  -20.1368  -46.8595 H         1 UNK         0.0800 
    143 H143        1.3087  -23.1616  -47.1437 H         1 UNK         0.0600 
    144 H144        1.3944  -21.4905  -44.8600 H         1 UNK         0.3000 
    145 H145       -0.5194  -23.6097  -42.6618 H         1 UNK         0.0600 
    146 H146        1.8496  -24.3700  -42.6116 H         1 UNK         0.0600 
    147 H147        2.4084  -22.7087  -42.7472 H         1 UNK         0.0600 
    148 H148        1.5243  -23.2286  -41.3156 H         1 UNK         0.0600 
    149 H149        0.5956  -21.0287  -42.2464 H         1 UNK         0.3000 
    150 H150       -2.2505  -19.1354  -43.3677 H         1 UNK         0.0600 
    151 H151       -1.8579  -18.1842  -41.0710 H         1 UNK         0.0600 
    152 H152       -1.0168  -19.6611  -40.6128 H         1 UNK         0.0600 
    153 H153       -2.7252  -19.7131  -41.0205 H         1 UNK         0.0600 
    154 H154        0.2719  -18.2925  -42.3630 H         1 UNK         0.3000 
    155 H155        2.0551  -18.2950  -45.4651 H         1 UNK         0.0600 
    156 H156        0.8761  -16.1655  -45.5378 H         1 UNK         0.0600 
    157 H157        2.4269  -15.9260  -44.7553 H         1 UNK         0.0600 
    158 H158        0.9534  -15.9847  -43.7867 H         1 UNK         0.0600 
    159 H159        2.6899  -17.5425  -42.7551 H         1 UNK         0.3000 
    160 H160        4.0369  -20.7197  -41.8129 H         1 UNK         0.0600 
    161 H161        5.8201  -19.5419  -43.1094 H         1 UNK         0.0600 
    162 H162        6.0004  -19.2715  -41.3833 H         1 UNK         0.0600 
    163 H163        5.3314  -18.0030  -42.4099 H         1 UNK         0.0600 
    164 H164        3.8137  -18.2016  -40.4564 H         1 UNK         0.3000 
    165 H165        0.6074  -18.7587  -39.0115 H         1 UNK         0.0600 
    166 H166        1.8722  -18.4999  -36.9045 H         1 UNK         0.0600 
    167 H167        2.1675  -20.0926  -37.5821 H         1 UNK         0.0600 
    168 H168        3.3918  -18.8380  -37.7343 H         1 UNK         0.0600 
    169 H169        2.4013  -16.6686  -38.5263 H         1 UNK         0.3000 
    170 H170        1.5371  -14.5537  -39.2120 H         1 UNK         0.0600 
    171 H171        3.2953  -13.5396  -40.7089 H         1 UNK         0.0600 
    172 H172        3.8354  -15.0869  -40.0790 H         1 UNK         0.0600 
    173 H173        3.2564  -14.9694  -41.7379 H         1 UNK         0.0600 
    174 H174        0.4010  -14.8181  -41.8980 H         1 UNK         0.3000 
    175 H175       -1.7825  -12.2386  -41.4306 H         1 UNK         0.0600 
    176 H176        0.5511  -11.7485  -43.3597 H         1 UNK         0.0600 
    177 H177       -1.0665  -11.0616  -43.5034 H         1 UNK         0.0600 
    178 H178       -0.0371  -10.6085  -42.1542 H         1 UNK         0.0600 
    179 H179       -0.8825  -13.6690  -43.8077 H         1 UNK         0.3000 
    180 H180       -1.6086  -16.2081  -43.9052 H         1 UNK         0.0600 
    181 H181       -3.7834  -17.3308  -44.2312 H         1 UNK         0.0600 
    182 H182       -4.6144  -16.0492  -43.3497 H         1 UNK         0.0600 
    183 H183       -3.4841  -17.1048  -42.5165 H         1 UNK         0.0600 
    184 H184       -3.7772  -15.0153  -45.3616 H         1 UNK         0.3000 
    185 H185       -3.3065  -14.4075  -47.5333 H         1 UNK         0.0600 
    186 H186       -2.2796  -11.6720  -46.5827 H         1 UNK         0.0600 
    187 H187       -3.4607  -11.9346  -47.8665 H         1 UNK         0.0600 
    188 H188       -3.8537  -12.3625  -46.2093 H         1 UNK         0.0600 
    189 H189       -0.9575  -12.8265  -48.2744 H         1 UNK         0.3000 
    190 H190       -1.0331  -20.6194  -46.0784 H         1 UNK         0.3000 
    191 H191       -2.7801  -20.8886  -48.2667 H         1 UNK         0.0600 
    192 H192       -3.4119  -20.0045  -45.4054 H         1 UNK         0.0600 
    193 H193       -4.4137  -19.7034  -46.8203 H         1 UNK         0.0600 
    194 H194       -2.8247  -18.9638  -46.7021 H         1 UNK         0.0600 
    195 H195       -2.6720  -22.7320  -45.2140 H         1 UNK         0.3000 
    196 H196       -5.0368  -24.2860  -45.7237 H         1 UNK         0.0600 
    197 H197       -4.1507  -25.7202  -43.8902 H         1 UNK         0.0600 
    198 H198       -4.0849  -24.0189  -43.4532 H         1 UNK         0.0600 
    199 H199       -2.6159  -24.8618  -43.9353 H         1 UNK         0.0600 
    200 H200       -1.5394  -24.8873  -46.3204 H         1 UNK         0.3000 
    201 H201       -1.9647  -27.5510  -47.3127 H         1 UNK         0.0600 
    202 H202        0.0866  -26.8832  -46.1064 H         1 UNK         0.0600 
    203 H203        0.5011  -25.7386  -47.3809 H         1 UNK         0.0600 
    204 H204        0.4941  -27.4674  -47.7127 H         1 UNK         0.0600 
    205 H205       -1.3280  -24.4123  -48.9481 H         1 UNK         0.3000 
    206 H206       -1.4805  -25.7377  -51.6265 H         1 UNK         0.0600 
    207 H207        0.4718  -24.3431  -52.2434 H         1 UNK         0.0600 
    208 H208        0.5127  -23.6327  -50.6333 H         1 UNK         0.0600 
    209 H209        0.8777  -25.3420  -50.8592 H         1 UNK         0.0600 
    210 H210       -3.3410  -23.8901  -49.8957 H         1 UNK         0.3000 
    211 H211       -5.0308  -22.5487  -50.3085 H         1 UNK         0.0600 
    212 H212       -4.2583  -22.4611  -53.2622 H         1 UNK         0.0600 
    213 H213       -5.7854  -21.9741  -52.5620 H         1 UNK         0.0600 
    214 H214       -5.3067  -23.6623  -52.5092 H         1 UNK         0.0600 
    215 H215       -2.1381  -21.3487  -51.9884 H         1 UNK         0.3000 
    216 H216       -1.1340  -19.3648  -52.1791 H         1 UNK         0.0600 
    217 H217       -2.1029  -18.8938  -49.3085 H         1 UNK         0.0600 
    218 H218       -0.7543  -18.0943  -50.1075 H         1 UNK         0.0600 
    219 H219       -0.6757  -19.8122  -49.7766 H         1 UNK         0.0600 
    220 H220       -3.1132  -17.3654  -50.1533 H         1 UNK         0.3000 
    221 H221       -3.9303  -15.6837  -52.3103 H         1 UNK         0.0600 
    222 H222       -4.7002  -15.7997  -49.3550 H         1 UNK         0.0600 
    223 H223       -3.5820  -14.6891  -50.1534 H         1 UNK         0.0600 
    224 H224       -5.2965  -14.5595  -50.4524 H         1 UNK         0.0600 
    225 H225       -5.4620  -18.5697  -51.0616 H         1 UNK         0.3000 
    226 H226       -8.1905  -17.8157  -51.6894 H         1 UNK         0.0600 
    227 H227       -7.6402  -19.4056  -49.8675 H         1 UNK         0.0600 
    228 H228       -8.6936  -20.1424  -51.0653 H         1 UNK         0.0600 
    229 H229       -6.9856  -20.5486  -51.0362 H         1 UNK         0.0600 
    230 H230       -7.5924  -17.0399  -53.8553 H         1 UNK         0.3000 
    231 H231       -7.8957  -17.0431  -56.0468 H         1 UNK         0.0600 
    232 H232       -9.2480  -18.7548  -57.1706 H         1 UNK         0.0600 
    233 H233       -9.0350  -19.8770  -55.8362 H         1 UNK         0.0600 
    234 H234       -9.9551  -18.3905  -55.6056 H         1 UNK         0.0600 
    235 H235       -5.4198  -17.4784  -55.1390 H         1 UNK         0.3000 
    236 H236       -3.3560  -17.7223  -55.8287 H         1 UNK         0.0600 
    237 H237       -4.2891  -19.0841  -58.4084 H         1 UNK         0.0600 
    238 H238       -4.1524  -17.3381  -58.1961 H         1 UNK         0.0600 
    239 H239       -2.7251  -18.3539  -58.1001 H         1 UNK         0.0600 
    240 H240       -1.6193  -19.3740  -56.2736 H         1 UNK         0.3000 
    241 H241       -1.8041  -21.3900  -54.3642 H         1 UNK         0.0600 
    242 H242       -2.5847  -24.5273  -55.7962 H         1 UNK         0.3800 
    243 H243       -2.1394  -23.6169  -54.3644 H         1 UNK         0.3800 
    244 H244        0.4470  -22.1763  -55.3725 H         1 UNK         0.0800 
    245 H245        0.2553  -20.9349  -56.5738 H         1 UNK         0.0800 
    246 H246        1.7718  -21.9264  -53.4635 H         1 UNK         0.0800 
    247 H247        0.3003  -21.5331  -52.6049 H         1 UNK         0.0800 
@<TRIPOS>BOND
     1    1    2 1    
     2    1  127 1    
     3    1  128 1    
     4    1  129 1    
     5    2    3 2    
     6    2    4 am   BACKBONE|DICT|INTERRES
     7    4    5 1    
     8    4  130 1    
     9    5    6 1    
    10    5   65 1    
    11    5  131 1    
    12    6    7 1    
    13    6  132 1    
    14    6  133 1    
    15    7    8 1    
    16    8    9 1    
    17    8  134 1    
    18    8  135 1    
    19    9   10 ar   
    20    9   14 ar   
    21   10   11 ar   
    22   10  136 1    
    23   11   12 ar   
    24   11  126 1    
    25   12   13 ar   
    26   12  137 1    
    27   13   14 ar   
    28   13   15 1    
    29   14  138 1    
    30   15   16 1    
    31   15  139 1    
    32   15  140 1    
    33   16   17 1    
    34   17   18 1    
    35   17  141 1    
    36   17  142 1    
    37   18   19 1    
    38   18   67 1    
    39   18  143 1    
    40   19   20 am   BACKBONE|DICT|INTERRES
    41   19  144 1    
    42   20   21 2    
    43   20   22 1    
    44   22   23 1    
    45   22   24 1    
    46   22  145 1    
    47   23  146 1    
    48   23  147 1    
    49   23  148 1    
    50   24   25 am   BACKBONE|DICT|INTERRES
    51   24  149 1    
    52   25   26 2    
    53   25   27 1    
    54   27   28 1    
    55   27   29 1    
    56   27  150 1    
    57   28  151 1    
    58   28  152 1    
    59   28  153 1    
    60   29   30 am   BACKBONE|DICT|INTERRES
    61   29  154 1    
    62   30   31 2    
    63   30   32 1    
    64   32   33 1    
    65   32   34 1    
    66   32  155 1    
    67   33  156 1    
    68   33  157 1    
    69   33  158 1    
    70   34   35 am   BACKBONE|DICT|INTERRES
    71   34  159 1    
    72   35   36 2    
    73   35   37 1    
    74   37   38 1    
    75   37   39 1    
    76   37  160 1    
    77   38  161 1    
    78   38  162 1    
    79   38  163 1    
    80   39   40 am   BACKBONE|DICT|INTERRES
    81   39  164 1    
    82   40   41 2    
    83   40   42 1    
    84   42   43 1    
    85   42   44 1    
    86   42  165 1    
    87   43  166 1    
    88   43  167 1    
    89   43  168 1    
    90   44   45 am   BACKBONE|DICT|INTERRES
    91   44  169 1    
    92   45   46 2    
    93   45   47 1    
    94   47   48 1    
    95   47   49 1    
    96   47  170 1    
    97   48  171 1    
    98   48  172 1    
    99   48  173 1    
   100   49   50 am   BACKBONE|DICT|INTERRES
   101   49  174 1    
   102   50   51 2    
   103   50   52 1    
   104   52   53 1    
   105   52   54 1    
   106   52  175 1    
   107   53  176 1    
   108   53  177 1    
   109   53  178 1    
   110   54   55 am   BACKBONE|DICT|INTERRES
   111   54  179 1    
   112   55   56 2    
   113   55   57 1    
   114   57   58 1    
   115   57   59 1    
   116   57  180 1    
   117   58  181 1    
   118   58  182 1    
   119   58  183 1    
   120   59   60 am   BACKBONE|DICT|INTERRES
   121   59  184 1    
   122   60   61 2    
   123   60   62 1    
   124   62   63 1    
   125   62   64 1    
   126   62  185 1    
   127   63  186 1    
   128   63  187 1    
   129   63  188 1    
   130   64   65 am   BACKBONE|DICT|INTERRES
   131   64  189 1    
   132   65   66 2    
   133   67   68 2    
   134   67   69 am   BACKBONE|DICT|INTERRES
   135   69   70 1    
   136   69  190 1    
   137   70   71 1    
   138   70   72 1    
   139   70  191 1    
   140   71  192 1    
   141   71  193 1    
   142   71  194 1    
   143   72   73 2    
   144   72   74 am   BACKBONE|DICT|INTERRES
   145   74   75 1    
   146   74  195 1    
   147   75   76 1    
   148   75   77 1    
   149   75  196 1    
   150   76  197 1    
   151   76  198 1    
   152   76  199 1    
   153   77   78 2    
   154   77   79 am   BACKBONE|DICT|INTERRES
   155   79   80 1    
   156   79  200 1    
   157   80   81 1    
   158   80   82 1    
   159   80  201 1    
   160   81  202 1    
   161   81  203 1    
   162   81  204 1    
   163   82   83 2    
   164   82   84 am   BACKBONE|DICT|INTERRES
   165   84   85 1    
   166   84  205 1    
   167   85   86 1    
   168   85   87 1    
   169   85  206 1    
   170   86  207 1    
   171   86  208 1    
   172   86  209 1    
   173   87   88 2    
   174   87   89 am   BACKBONE|DICT|INTERRES
   175   89   90 1    
   176   89  210 1    
   177   90   91 1    
   178   90   92 1    
   179   90  211 1    
   180   91  212 1    
   181   91  213 1    
   182   91  214 1    
   183   92   93 2    
   184   92   94 am   BACKBONE|DICT|INTERRES
   185   94   95 1    
   186   94  215 1    
   187   95   96 1    
   188   95   97 1    
   189   95  216 1    
   190   96  217 1    
   191   96  218 1    
   192   96  219 1    
   193   97   98 2    
   194   97   99 am   BACKBONE|DICT|INTERRES
   195   99  100 1    
   196   99  220 1    
   197  100  101 1    
   198  100  102 1    
   199  100  221 1    
   200  101  222 1    
   201  101  223 1    
   202  101  224 1    
   203  102  103 2    
   204  102  104 am   BACKBONE|DICT|INTERRES
   205  104  105 1    
   206  104  225 1    
   207  105  106 1    
   208  105  107 1    
   209  105  226 1    
   210  106  227 1    
   211  106  228 1    
   212  106  229 1    
   213  107  108 2    
   214  107  109 am   BACKBONE|DICT|INTERRES
   215  109  110 1    
   216  109  230 1    
   217  110  111 1    
   218  110  112 1    
   219  110  231 1    
   220  111  232 1    
   221  111  233 1    
   222  111  234 1    
   223  112  113 2    
   224  112  114 am   BACKBONE|DICT|INTERRES
   225  114  115 1    
   226  114  235 1    
   227  115  116 1    
   228  115  117 1    
   229  115  236 1    
   230  116  237 1    
   231  116  238 1    
   232  116  239 1    
   233  117  118 2    
   234  117  119 am   BACKBONE|DICT|INTERRES
   235  119  120 1    
   236  119  240 1    
   237  120  121 1    
   238  120  124 1    
   239  120  241 1    
   240  121  122 am   BACKBONE|DICT|INTERRES
   241  121  123 2    
   242  122  242 1    
   243  122  243 1    
   244  124  125 1    
   245  124  244 1    
   246  124  245 1    
   247  125  126 1    
   248  126  246 1    
   249  126  247 1    
@<TRIPOS>SUBSTRUCTURE
     1 UNK         1 GROUP             0       ****    0 ROOT    
