@<TRIPOS>MOLECULE
3R540
247   249    1
SMALL
USER_CHARGES


@<TRIPOS>ATOM
      1 CA         -5.4981  -16.6834  -47.0817 C.3       0 UNK        -0.1800 
      2 C          -5.9146  -15.2240  -47.1019 C.2       0 UNK         0.5000 
      3 O          -6.4001  -14.7102  -46.0941 O.2       0 UNK        -0.5000 
      4 N          -5.7103  -14.5489  -48.2405 N.am      1 UNK        -0.5000 
      5 CA         -5.9628  -13.1099  -48.4132 C.3       1 UNK         0.1400 
      6 C6         -6.0299  -12.6793  -49.9005 C.3       23 UNK        -0.0398 
      7 S7         -7.0765  -13.7666  -50.9315 S.3       23 UNK        -0.2404 
      8 C8         -5.8619  -14.4497  -52.1068 C.3       23 UNK        -0.0205 
      9 C9         -4.8740  -15.4045  -51.4486 C.ar      23 UNK        -0.0193 
     10 C10        -3.6209  -14.9467  -51.0288 C.ar      23 UNK        -0.1150 
     11 C11        -2.6971  -15.8250  -50.4573 C.ar      23 UNK        -0.0193 
     12 C12        -3.0297  -17.1741  -50.3195 C.ar      23 UNK        -0.1150 
     13 C13        -4.2681  -17.6522  -50.7538 C.ar      23 UNK        -0.0193 
     14 C14        -5.1934  -16.7582  -51.3022 C.ar      23 UNK        -0.1150 
     15 C15        -4.5800  -19.1403  -50.6960 C.3       23 UNK        -0.0205 
     16 S16        -5.3358  -19.6473  -49.1200 S.3       23 UNK        -0.2404 
     17 C17        -3.9048  -19.7700  -47.9824 C.3       23 UNK        -0.0398 
     18 CA         -3.6103  -21.1967  -47.4537 C.3       11 UNK         0.1400 
     19 N          -2.3969  -21.2135  -46.6303 N.am      11 UNK        -0.5000 
     20 C          -1.8826  -22.2861  -46.0075 C.2       10 UNK         0.5000 
     21 O          -2.3566  -23.4179  -46.1032 O.2       10 UNK        -0.5000 
     22 CA         -0.6585  -22.0771  -45.0948 C.3       10 UNK         0.1400 
     23 CB          0.5957  -22.6601  -45.7633 C.3       10 UNK        -0.1800 
     24 N          -0.4031  -20.6863  -44.7109 N.am      10 UNK        -0.5000 
     25 C          -1.2424  -19.8797  -44.0434 C.2       9 UNK         0.5000 
     26 O          -2.3533  -20.2309  -43.6424 O.2       9 UNK        -0.5000 
     27 CA         -0.7865  -18.4210  -43.8347 C.3       9 UNK         0.1400 
     28 CB         -0.0816  -18.2673  -42.4794 C.3       9 UNK        -0.1800 
     29 N           0.0981  -17.9191  -44.8898 N.am      9 UNK        -0.5000 
     30 C          -0.2227  -17.8131  -46.1889 C.2       8 UNK         0.5000 
     31 O          -1.3054  -18.1624  -46.6609 O.2       8 UNK        -0.5000 
     32 CA          0.8849  -17.2857  -47.1163 C.3       8 UNK         0.1400 
     33 CB          1.0713  -15.7657  -46.9722 C.3       8 UNK        -0.1800 
     34 N           2.1551  -17.9552  -46.8419 N.am      8 UNK        -0.5000 
     35 C           2.4643  -19.1848  -47.2748 C.2       7 UNK         0.5000 
     36 O           1.7401  -19.8503  -48.0106 O.2       7 UNK        -0.5000 
     37 CA          3.7988  -19.7840  -46.7927 C.3       7 UNK         0.1400 
     38 CB          4.9256  -19.4453  -47.7805 C.3       7 UNK        -0.1800 
     39 N           4.1827  -19.3383  -45.4517 N.am      7 UNK        -0.5000 
     40 C           3.5162  -19.6416  -44.3285 C.2       6 UNK         0.5000 
     41 O           2.5115  -20.3492  -44.2988 O.2       6 UNK        -0.5000 
     42 CA          4.0270  -18.9981  -43.0260 C.3       6 UNK         0.1400 
     43 CB          5.1246  -19.8643  -42.3907 C.3       6 UNK        -0.1800 
     44 N           4.5276  -17.6319  -43.2057 N.am      6 UNK        -0.5000 
     45 C           3.8031  -16.6091  -43.6762 C.2       5 UNK         0.5000 
     46 O           2.6290  -16.7112  -44.0478 O.2       5 UNK        -0.5000 
     47 CA          4.5254  -15.2622  -43.7968 C.3       5 UNK         0.1400 
     48 CB          5.4065  -15.2252  -45.0566 C.3       5 UNK        -0.1800 
     49 N           3.5180  -14.2154  -43.8853 N.am      5 UNK        -0.5000 
     50 C           3.5844  -13.0041  -43.3262 C.2       4 UNK         0.5000 
     51 O           4.5687  -12.5865  -42.7145 O.2       4 UNK        -0.5000 
     52 CA          2.3439  -12.0995  -43.4757 C.3       4 UNK         0.1400 
     53 CB          2.6154  -10.9814  -44.4948 C.3       4 UNK        -0.1800 
     54 N           1.1303  -12.8160  -43.8829 N.am      4 UNK        -0.5000 
     55 C           0.4132  -13.6354  -43.0994 C.2       3 UNK         0.5000 
     56 O           0.7121  -13.8948  -41.9335 O.2       3 UNK        -0.5000 
     57 CA         -0.8558  -14.2355  -43.7320 C.3       3 UNK         0.1400 
     58 CB         -1.8786  -14.7399  -42.6961 C.3       3 UNK        -0.1800 
     59 N          -1.4857  -13.2528  -44.6153 N.am      3 UNK        -0.5000 
     60 C          -2.1281  -13.5425  -45.7494 C.2       2 UNK         0.5000 
     61 O          -2.2717  -14.6869  -46.1876 O.2       2 UNK        -0.5000 
     62 CA         -2.6860  -12.3496  -46.5391 C.3       2 UNK         0.1400 
     63 CB         -1.5972  -11.7095  -47.4160 C.3       2 UNK        -0.1800 
     64 N          -3.7538  -12.8535  -47.3865 N.am      2 UNK        -0.5000 
     65 C          -4.9188  -12.2557  -47.6575 C.2       1 UNK         0.5000 
     66 O          -5.1905  -11.0994  -47.3316 O.2       1 UNK        -0.5000 
     67 C          -4.8276  -21.7922  -46.7135 C.2       11 UNK         0.5000 
     68 O          -5.5351  -22.6230  -47.2848 O.2       11 UNK        -0.5000 
     69 N          -5.0153  -21.3927  -45.4483 N.am      12 UNK        -0.5000 
     70 CA         -6.1155  -21.8490  -44.5994 C.3       12 UNK         0.1400 
     71 CB         -6.2251  -20.9136  -43.3859 C.3       12 UNK        -0.1800 
     72 C          -5.9664  -23.3122  -44.1412 C.2       12 UNK         0.5000 
     73 O          -6.9757  -23.9779  -43.9087 O.2       12 UNK        -0.5000 
     74 N          -4.7191  -23.7815  -44.0107 N.am      13 UNK        -0.5000 
     75 CA         -4.3878  -25.1305  -43.5578 C.3       13 UNK         0.1400 
     76 CB         -2.9870  -25.1198  -42.9243 C.3       13 UNK        -0.1800 
     77 C          -4.4585  -26.1571  -44.6999 C.2       13 UNK         0.5000 
     78 O          -5.0335  -27.2312  -44.5203 O.2       13 UNK        -0.5000 
     79 N          -3.8598  -25.8133  -45.8464 N.am      14 UNK        -0.5000 
     80 CA         -3.6831  -26.7078  -46.9910 C.3       14 UNK         0.1400 
     81 CB         -2.3455  -26.3641  -47.6608 C.3       14 UNK        -0.1800 
     82 C          -4.8208  -26.6279  -48.0231 C.2       14 UNK         0.5000 
     83 O          -4.7995  -27.3995  -48.9822 O.2       14 UNK        -0.5000 
     84 N          -5.7593  -25.6862  -47.8415 N.am      15 UNK        -0.5000 
     85 CA         -6.8202  -25.3098  -48.7832 C.3       15 UNK         0.1400 
     86 CB         -7.8225  -26.4630  -49.0003 C.3       15 UNK        -0.1800 
     87 C          -6.2124  -24.7651  -50.0913 C.2       15 UNK         0.5000 
     88 O          -6.4132  -25.3295  -51.1674 O.2       15 UNK        -0.5000 
     89 N          -5.4159  -23.6995  -49.9369 N.am      16 UNK        -0.5000 
     90 CA         -4.6684  -22.9384  -50.9467 C.3       16 UNK         0.1400 
     91 CB         -5.6065  -22.3701  -52.0282 C.3       16 UNK        -0.1800 
     92 C          -3.4643  -23.6597  -51.5841 C.2       16 UNK         0.5000 
     93 O          -2.5587  -22.9747  -52.0584 O.2       16 UNK        -0.5000 
     94 N          -3.4484  -24.9993  -51.5798 N.am      17 UNK        -0.5000 
     95 CA         -2.4922  -25.8503  -52.2981 C.3       17 UNK         0.1400 
     96 CB         -2.8496  -27.3227  -52.0461 C.3       17 UNK        -0.1800 
     97 C          -1.0061  -25.5966  -51.9753 C.2       17 UNK         0.5000 
     98 O          -0.1733  -25.6381  -52.8816 O.2       17 UNK        -0.5000 
     99 N          -0.7019  -25.3229  -50.7005 N.am      18 UNK        -0.5000 
    100 CA         0.6536  -25.0365  -50.2197 C.3       18 UNK         0.1400 
    101 CB         0.7585  -25.4597  -48.7467 C.3       18 UNK        -0.1800 
    102 C          1.0541  -23.5561  -50.3715 C.2       18 UNK         0.5000 
    103 O          2.2257  -23.2317  -50.1775 O.2       18 UNK        -0.5000 
    104 N          0.0898  -22.6863  -50.6964 N.am      19 UNK        -0.5000 
    105 CA         0.2415  -21.2327  -50.7349 C.3       19 UNK         0.1400 
    106 CB        -0.8481  -20.6051  -49.8565 C.3       19 UNK        -0.1800 
    107 C          0.2268  -20.6881  -52.1734 C.2       19 UNK         0.5000 
    108 O         -0.1167  -19.5253  -52.3909 O.2       19 UNK        -0.5000 
    109 N          0.6522  -21.5198  -53.1361 N.am      20 UNK        -0.5000 
    110 CA         0.8052  -21.1765  -54.5547 C.3       20 UNK         0.1400 
    111 CB         1.2294  -22.4348  -55.3263 C.3       20 UNK        -0.1800 
    112 C          1.7942  -20.0190  -54.8149 C.2       20 UNK         0.5000 
    113 O          1.6827  -19.3408  -55.8373 O.2       20 UNK        -0.5000 
    114 N          2.7052  -19.7793  -53.8594 N.am      21 UNK        -0.5000 
    115 CA         3.6365  -18.6503  -53.8053 C.3       21 UNK         0.1400 
    116 CB         4.5200  -18.8030  -52.5568 C.3       21 UNK        -0.1800 
    117 C          2.9581  -17.2631  -53.8148 C.2       21 UNK         0.5000 
    118 O          3.5953  -16.2918  -54.2247 O.2       21 UNK        -0.5000 
    119 N          1.6865  -17.1902  -53.3950 N.am      22 UNK        -0.5000 
    120 CA         0.8402  -15.9917  -53.5162 C.3       22 UNK         0.1400 
    121 C          0.3882  -15.6738  -54.9748 C.2       22 UNK         0.5000 
    122 N          0.5632  -16.5612  -55.9487 N.am      22 UNK        -0.7600 
    123 O         -0.1266  -14.5890  -55.2316 O.2       22 UNK        -0.5000 
    124 C124       -0.3893  -16.0518  -52.5754 C.3       23 UNK        -0.0398 
    125 S125        0.0517  -16.2042  -50.8098 S.3       23 UNK        -0.2404 
    126 C126       -1.3315  -15.3200  -50.0102 C.3       23 UNK        -0.0205 
    127 H127       -4.8736  -16.9220  -47.9418 H         1 UNK         0.0600 
    128 H128       -4.9233  -16.8985  -46.1807 H         1 UNK         0.0600 
    129 H129       -6.3747  -17.3308  -47.0976 H         1 UNK         0.0600 
    130 H130       -5.3480  -15.0307  -49.0526 H         1 UNK         0.3000 
    131 H131       -6.9360  -12.8937  -47.9672 H         1 UNK         0.0600 
    132 H132       -6.4391  -11.6699  -49.9697 H         1 UNK         0.0800 
    133 H133       -5.0325  -12.6144  -50.3342 H         1 UNK         0.0800 
    134 H134       -5.3326  -13.6328  -52.6000 H         1 UNK         0.0800 
    135 H135       -6.4009  -14.9750  -52.8968 H         1 UNK         0.0800 
    136 H136       -3.3550  -13.9079  -51.1619 H         1 UNK         0.1150 
    137 H137       -2.3004  -17.8523  -49.9053 H         1 UNK         0.1150 
    138 H138       -6.1528  -17.1214  -51.6436 H         1 UNK         0.1150 
    139 H139       -3.6795  -19.7211  -50.8902 H         1 UNK         0.0800 
    140 H140       -5.2716  -19.3924  -51.5008 H         1 UNK         0.0800 
    141 H141       -4.0786  -19.0962  -47.1431 H         1 UNK         0.0800 
    142 H142       -3.0189  -19.3835  -48.4804 H         1 UNK         0.0800 
    143 H143       -3.4029  -21.8425  -48.3071 H         1 UNK         0.0600 
    144 H144       -1.9383  -20.3202  -46.4938 H         1 UNK         0.3000 
    145 H145       -0.8470  -22.6371  -44.1771 H         1 UNK         0.0600 
    146 H146        1.4537  -22.6293  -45.0927 H         1 UNK         0.0600 
    147 H147        0.4444  -23.7053  -46.0347 H         1 UNK         0.0600 
    148 H148        0.8569  -22.1176  -46.6728 H         1 UNK         0.0600 
    149 H149        0.5207  -20.3293  -44.9286 H         1 UNK         0.3000 
    150 H150       -1.6795  -17.7928  -43.8323 H         1 UNK         0.0600 
    151 H151        0.7924  -18.9148  -42.4095 H         1 UNK         0.0600 
    152 H152       -0.7513  -18.5300  -41.6597 H         1 UNK         0.0600 
    153 H153        0.2500  -17.2417  -42.3157 H         1 UNK         0.0600 
    154 H154        1.0195  -17.6093  -44.5942 H         1 UNK         0.3000 
    155 H155        0.5858  -17.4952  -48.1453 H         1 UNK         0.0600 
    156 H156        1.4108  -15.4843  -45.9770 H         1 UNK         0.0600 
    157 H157        0.1379  -15.2363  -47.1530 H         1 UNK         0.0600 
    158 H158        1.7990  -15.3914  -47.6923 H         1 UNK         0.0600 
    159 H159        2.7760  -17.4997  -46.1886 H         1 UNK         0.3000 
    160 H160        3.6806  -20.8696  -46.7665 H         1 UNK         0.0600 
    161 H161        5.1072  -18.3710  -47.8320 H         1 UNK         0.0600 
    162 H162        4.6768  -19.7847  -48.7871 H         1 UNK         0.0600 
    163 H163        5.8590  -19.9316  -47.4966 H         1 UNK         0.0600 
    164 H164        4.9972  -18.7465  -45.3825 H         1 UNK         0.3000 
    165 H165        3.1872  -18.9517  -42.3305 H         1 UNK         0.0600 
    166 H166        5.4281  -19.4687  -41.4213 H         1 UNK         0.0600 
    167 H167        6.0111  -19.9211  -43.0236 H         1 UNK         0.0600 
    168 H168        4.7717  -20.8836  -42.2276 H         1 UNK         0.0600 
    169 H169        5.4864  -17.4678  -42.9340 H         1 UNK         0.3000 
    170 H170        5.1419  -15.1202  -42.9066 H         1 UNK         0.0600 
    171 H171        6.1793  -15.9939  -45.0212 H         1 UNK         0.0600 
    172 H172        4.8206  -15.3871  -45.9625 H         1 UNK         0.0600 
    173 H173        5.9113  -14.2639  -45.1540 H         1 UNK         0.0600 
    174 H174        2.6456  -14.5129  -44.2992 H         1 UNK         0.3000 
    175 H175        2.1594  -11.6382  -42.5032 H         1 UNK         0.0600 
    176 H176        2.7981  -11.3824  -45.4926 H         1 UNK         0.0600 
    177 H177        1.7739  -10.2912  -44.5581 H         1 UNK         0.0600 
    178 H178        3.4914  -10.3967  -44.2109 H         1 UNK         0.0600 
    179 H179        0.8218  -12.6669  -44.8325 H         1 UNK         0.3000 
    180 H180       -0.5193  -15.0917  -44.3197 H         1 UNK         0.0600 
    181 H181       -2.2520  -13.9255  -42.0746 H         1 UNK         0.0600 
    182 H182       -1.4384  -15.4853  -42.0336 H         1 UNK         0.0600 
    183 H183       -2.7332  -15.2087  -43.1843 H         1 UNK         0.0600 
    184 H184       -1.4115  -12.2884  -44.3200 H         1 UNK         0.3000 
    185 H185       -3.0800  -11.6137  -45.8350 H         1 UNK         0.0600 
    186 H186       -1.9997  -10.8820  -48.0005 H         1 UNK         0.0600 
    187 H187       -0.7848  -11.3118  -46.8068 H         1 UNK         0.0600 
    188 H188       -1.1657  -12.4309  -48.1115 H         1 UNK         0.0600 
    189 H189       -3.6522  -13.8335  -47.6205 H         1 UNK         0.3000 
    190 H190       -4.3538  -20.7512  -45.0309 H         1 UNK         0.3000 
    191 H191       -7.0430  -21.7755  -45.1716 H         1 UNK         0.0600 
    192 H192       -7.0479  -21.2115  -42.7346 H         1 UNK         0.0600 
    193 H193       -6.4131  -19.8856  -43.6963 H         1 UNK         0.0600 
    194 H194       -5.3123  -20.9220  -42.7884 H         1 UNK         0.0600 
    195 H195       -3.9485  -23.1817  -44.2664 H         1 UNK         0.3000 
    196 H196       -5.1003  -25.4336  -42.7873 H         1 UNK         0.0600 
    197 H197       -2.2193  -24.8210  -43.6390 H         1 UNK         0.0600 
    198 H198       -2.9426  -24.4330  -42.0789 H         1 UNK         0.0600 
    199 H199       -2.7204  -26.1100  -42.5526 H         1 UNK         0.0600 
    200 H200       -3.3934  -24.9099  -45.9092 H         1 UNK         0.3000 
    201 H201       -3.6299  -27.7415  -46.6430 H         1 UNK         0.0600 
    202 H202       -2.3548  -25.3531  -48.0695 H         1 UNK         0.0600 
    203 H203       -2.1239  -27.0523  -48.4775 H         1 UNK         0.0600 
    204 H204       -1.5235  -26.4316  -46.9480 H         1 UNK         0.0600 
    205 H205       -5.6559  -25.0793  -47.0395 H         1 UNK         0.3000 
    206 H206       -7.3675  -24.4853  -48.3235 H         1 UNK         0.0600 
    207 H207       -8.2315  -26.8118  -48.0522 H         1 UNK         0.0600 
    208 H208       -8.6609  -26.1342  -49.6152 H         1 UNK         0.0600 
    209 H209       -7.3685  -27.3169  -49.5035 H         1 UNK         0.0600 
    210 H210       -5.3462  -23.3358  -48.9888 H         1 UNK         0.3000 
    211 H211       -4.2468  -22.0888  -50.4141 H         1 UNK         0.0600 
    212 H212       -5.0653  -21.7037  -52.7010 H         1 UNK         0.0600 
    213 H213       -6.4169  -21.7931  -51.5826 H         1 UNK         0.0600 
    214 H214       -6.0492  -23.1559  -52.6405 H         1 UNK         0.0600 
    215 H215       -4.2619  -25.4663  -51.1978 H         1 UNK         0.3000 
    216 H216       -2.6269  -25.6486  -53.3626 H         1 UNK         0.0600 
    217 H217       -2.7725  -27.5793  -50.9889 H         1 UNK         0.0600 
    218 H218       -2.1830  -27.9884  -52.5959 H         1 UNK         0.0600 
    219 H219       -3.8673  -27.5430  -52.3690 H         1 UNK         0.0600 
    220 H220       -1.4470  -25.2961  -50.0214 H         1 UNK         0.3000 
    221 H221        1.3713  -25.6296  -50.7905 H         1 UNK         0.0600 
    222 H222        0.5121  -26.5137  -48.6187 H         1 UNK         0.0600 
    223 H223        0.0918  -24.8730  -48.1148 H         1 UNK         0.0600 
    224 H224        1.7720  -25.3180  -48.3690 H         1 UNK         0.0600 
    225 H225       -0.8260  -23.0365  -50.9555 H         1 UNK         0.3000 
    226 H226        1.2070  -20.9427  -50.3185 H         1 UNK         0.0600 
    227 H227       -1.8435  -20.8513  -50.2211 H         1 UNK         0.0600 
    228 H228       -0.7638  -20.9609  -48.8307 H         1 UNK         0.0600 
    229 H229       -0.7496  -19.5200  -49.8242 H         1 UNK         0.0600 
    230 H230        0.9010  -22.4611  -52.8694 H         1 UNK         0.3000 
    231 H231       -0.1717  -20.8581  -54.9238 H         1 UNK         0.0600 
    232 H232        2.1936  -22.8112  -54.9825 H         1 UNK         0.0600 
    233 H233        1.3186  -22.2277  -56.3936 H         1 UNK         0.0600 
    234 H234        0.4966  -23.2340  -55.2113 H         1 UNK         0.0600 
    235 H235        2.7117  -20.3972  -53.0620 H         1 UNK         0.3000 
    236 H236        4.2739  -18.7073  -54.6898 H         1 UNK         0.0600 
    237 H237        5.0755  -19.7408  -52.5770 H         1 UNK         0.0600 
    238 H238        5.2511  -17.9958  -52.4936 H         1 UNK         0.0600 
    239 H239        3.9279  -18.7817  -51.6407 H         1 UNK         0.0600 
    240 H240        1.2211  -18.0263  -53.0598 H         1 UNK         0.3000 
    241 H241        1.4424  -15.1371  -53.2020 H         1 UNK         0.0600 
    242 H242        0.2675  -16.3282  -56.8834 H         1 UNK         0.3800 
    243 H243        0.9891  -17.4651  -55.7737 H         1 UNK         0.3800 
    244 H244       -1.0329  -16.8926  -52.8409 H         1 UNK         0.0800 
    245 H245       -0.9962  -15.1528  -52.6971 H         1 UNK         0.0800 
    246 H246       -1.2267  -14.2519  -50.2058 H         1 UNK         0.0800 
    247 H247       -1.2597  -15.4451  -48.9305 H         1 UNK         0.0800 
@<TRIPOS>BOND
     1    1    2 1    
     2    1  127 1    
     3    1  128 1    
     4    1  129 1    
     5    2    3 2    
     6    2    4 am   BACKBONE|DICT|INTERRES
     7    4    5 1    
     8    4  130 1    
     9    5    6 1    
    10    5   65 1    
    11    5  131 1    
    12    6    7 1    
    13    6  132 1    
    14    6  133 1    
    15    7    8 1    
    16    8    9 1    
    17    8  134 1    
    18    8  135 1    
    19    9   10 ar   
    20    9   14 ar   
    21   10   11 ar   
    22   10  136 1    
    23   11   12 ar   
    24   11  126 1    
    25   12   13 ar   
    26   12  137 1    
    27   13   14 ar   
    28   13   15 1    
    29   14  138 1    
    30   15   16 1    
    31   15  139 1    
    32   15  140 1    
    33   16   17 1    
    34   17   18 1    
    35   17  141 1    
    36   17  142 1    
    37   18   19 1    
    38   18   67 1    
    39   18  143 1    
    40   19   20 am   BACKBONE|DICT|INTERRES
    41   19  144 1    
    42   20   21 2    
    43   20   22 1    
    44   22   23 1    
    45   22   24 1    
    46   22  145 1    
    47   23  146 1    
    48   23  147 1    
    49   23  148 1    
    50   24   25 am   BACKBONE|DICT|INTERRES
    51   24  149 1    
    52   25   26 2    
    53   25   27 1    
    54   27   28 1    
    55   27   29 1    
    56   27  150 1    
    57   28  151 1    
    58   28  152 1    
    59   28  153 1    
    60   29   30 am   BACKBONE|DICT|INTERRES
    61   29  154 1    
    62   30   31 2    
    63   30   32 1    
    64   32   33 1    
    65   32   34 1    
    66   32  155 1    
    67   33  156 1    
    68   33  157 1    
    69   33  158 1    
    70   34   35 am   BACKBONE|DICT|INTERRES
    71   34  159 1    
    72   35   36 2    
    73   35   37 1    
    74   37   38 1    
    75   37   39 1    
    76   37  160 1    
    77   38  161 1    
    78   38  162 1    
    79   38  163 1    
    80   39   40 am   BACKBONE|DICT|INTERRES
    81   39  164 1    
    82   40   41 2    
    83   40   42 1    
    84   42   43 1    
    85   42   44 1    
    86   42  165 1    
    87   43  166 1    
    88   43  167 1    
    89   43  168 1    
    90   44   45 am   BACKBONE|DICT|INTERRES
    91   44  169 1    
    92   45   46 2    
    93   45   47 1    
    94   47   48 1    
    95   47   49 1    
    96   47  170 1    
    97   48  171 1    
    98   48  172 1    
    99   48  173 1    
   100   49   50 am   BACKBONE|DICT|INTERRES
   101   49  174 1    
   102   50   51 2    
   103   50   52 1    
   104   52   53 1    
   105   52   54 1    
   106   52  175 1    
   107   53  176 1    
   108   53  177 1    
   109   53  178 1    
   110   54   55 am   BACKBONE|DICT|INTERRES
   111   54  179 1    
   112   55   56 2    
   113   55   57 1    
   114   57   58 1    
   115   57   59 1    
   116   57  180 1    
   117   58  181 1    
   118   58  182 1    
   119   58  183 1    
   120   59   60 am   BACKBONE|DICT|INTERRES
   121   59  184 1    
   122   60   61 2    
   123   60   62 1    
   124   62   63 1    
   125   62   64 1    
   126   62  185 1    
   127   63  186 1    
   128   63  187 1    
   129   63  188 1    
   130   64   65 am   BACKBONE|DICT|INTERRES
   131   64  189 1    
   132   65   66 2    
   133   67   68 2    
   134   67   69 am   BACKBONE|DICT|INTERRES
   135   69   70 1    
   136   69  190 1    
   137   70   71 1    
   138   70   72 1    
   139   70  191 1    
   140   71  192 1    
   141   71  193 1    
   142   71  194 1    
   143   72   73 2    
   144   72   74 am   BACKBONE|DICT|INTERRES
   145   74   75 1    
   146   74  195 1    
   147   75   76 1    
   148   75   77 1    
   149   75  196 1    
   150   76  197 1    
   151   76  198 1    
   152   76  199 1    
   153   77   78 2    
   154   77   79 am   BACKBONE|DICT|INTERRES
   155   79   80 1    
   156   79  200 1    
   157   80   81 1    
   158   80   82 1    
   159   80  201 1    
   160   81  202 1    
   161   81  203 1    
   162   81  204 1    
   163   82   83 2    
   164   82   84 am   BACKBONE|DICT|INTERRES
   165   84   85 1    
   166   84  205 1    
   167   85   86 1    
   168   85   87 1    
   169   85  206 1    
   170   86  207 1    
   171   86  208 1    
   172   86  209 1    
   173   87   88 2    
   174   87   89 am   BACKBONE|DICT|INTERRES
   175   89   90 1    
   176   89  210 1    
   177   90   91 1    
   178   90   92 1    
   179   90  211 1    
   180   91  212 1    
   181   91  213 1    
   182   91  214 1    
   183   92   93 2    
   184   92   94 am   BACKBONE|DICT|INTERRES
   185   94   95 1    
   186   94  215 1    
   187   95   96 1    
   188   95   97 1    
   189   95  216 1    
   190   96  217 1    
   191   96  218 1    
   192   96  219 1    
   193   97   98 2    
   194   97   99 am   BACKBONE|DICT|INTERRES
   195   99  100 1    
   196   99  220 1    
   197  100  101 1    
   198  100  102 1    
   199  100  221 1    
   200  101  222 1    
   201  101  223 1    
   202  101  224 1    
   203  102  103 2    
   204  102  104 am   BACKBONE|DICT|INTERRES
   205  104  105 1    
   206  104  225 1    
   207  105  106 1    
   208  105  107 1    
   209  105  226 1    
   210  106  227 1    
   211  106  228 1    
   212  106  229 1    
   213  107  108 2    
   214  107  109 am   BACKBONE|DICT|INTERRES
   215  109  110 1    
   216  109  230 1    
   217  110  111 1    
   218  110  112 1    
   219  110  231 1    
   220  111  232 1    
   221  111  233 1    
   222  111  234 1    
   223  112  113 2    
   224  112  114 am   BACKBONE|DICT|INTERRES
   225  114  115 1    
   226  114  235 1    
   227  115  116 1    
   228  115  117 1    
   229  115  236 1    
   230  116  237 1    
   231  116  238 1    
   232  116  239 1    
   233  117  118 2    
   234  117  119 am   BACKBONE|DICT|INTERRES
   235  119  120 1    
   236  119  240 1    
   237  120  121 1    
   238  120  124 1    
   239  120  241 1    
   240  121  122 am   BACKBONE|DICT|INTERRES
   241  121  123 2    
   242  122  242 1    
   243  122  243 1    
   244  124  125 1    
   245  124  244 1    
   246  124  245 1    
   247  125  126 1    
   248  126  246 1    
   249  126  247 1    
@<TRIPOS>SUBSTRUCTURE
     1 UNK         1 GROUP             0       ****    0 ROOT    
