@<TRIPOS>MOLECULE
3R540
247   249    1
SMALL
USER_CHARGES


@<TRIPOS>ATOM
      1 CA          5.5657  -10.7406  -45.7331 C.3       0 UNK        -0.1800 
      2 C           5.6391  -12.2472  -45.9321 C.2       0 UNK         0.5000 
      3 O           6.6966  -12.8416  -45.7195 O.2       0 UNK        -0.5000 
      4 N           4.5205  -12.8637  -46.3358 N.am      1 UNK        -0.5000 
      5 CA          4.3465  -14.3089  -46.5290 C.3       1 UNK         0.1400 
      6 C6          2.9372  -14.6654  -47.0621 C.3       23 UNK        -0.0398 
      7 S7          2.5097  -13.7440  -48.5789 S.3       23 UNK        -0.2404 
      8 C8          2.9696  -14.9261  -49.8865 C.3       23 UNK        -0.0205 
      9 C9          1.9952  -16.0910  -49.9900 C.ar      23 UNK        -0.0193 
     10 C10         0.6519  -15.8558  -50.2970 C.ar      23 UNK        -0.1150 
     11 C11        -0.2537  -16.9147  -50.4033 C.ar      23 UNK        -0.0193 
     12 C12         0.2017  -18.2223  -50.2043 C.ar      23 UNK        -0.1150 
     13 C13         1.5475  -18.4758  -49.9198 C.ar      23 UNK        -0.0193 
     14 C14         2.4388  -17.4044  -49.8096 C.ar      23 UNK        -0.1150 
     15 C15         2.0398  -19.9092  -49.7611 C.3       23 UNK        -0.0205 
     16 S16         2.6694  -20.2799  -48.0887 S.3       23 UNK        -0.2404 
     17 C17         1.2339  -19.8966  -47.0314 C.3       23 UNK        -0.0398 
     18 CA          0.3622  -21.1238  -46.6737 C.3       11 UNK         0.1400 
     19 N          -0.5115  -20.8332  -45.5394 N.am      11 UNK        -0.5000 
     20 C          -1.3158  -21.7062  -44.9194 C.2       10 UNK         0.5000 
     21 O          -1.3484  -22.9113  -45.1673 O.2       10 UNK        -0.5000 
     22 CA         -2.2793  -21.1132  -43.8762 C.3       10 UNK         0.1400 
     23 CB         -1.5924  -20.9797  -42.5085 C.3       10 UNK        -0.1800 
     24 N          -2.8037  -19.8088  -44.2888 N.am      10 UNK        -0.5000 
     25 C          -3.6502  -19.6197  -45.3111 C.2       9 UNK         0.5000 
     26 O          -4.1049  -20.5327  -46.0001 O.2       9 UNK        -0.5000 
     27 CA         -4.0157  -18.1603  -45.6415 C.3       9 UNK         0.1400 
     28 CB         -5.0669  -17.6240  -44.6586 C.3       9 UNK        -0.1800 
     29 N          -2.8515  -17.2724  -45.6401 N.am      9 UNK        -0.5000 
     30 C          -1.8458  -17.3507  -46.5234 C.2       8 UNK         0.5000 
     31 O          -1.8093  -18.1694  -47.4389 O.2       8 UNK        -0.5000 
     32 CA         -0.6574  -16.3901  -46.3229 C.3       8 UNK         0.1400 
     33 CB         -0.9621  -15.0413  -46.9908 C.3       8 UNK        -0.1800 
     34 N          -0.3022  -16.1730  -44.9155 N.am      8 UNK        -0.5000 
     35 C          -0.0405  -17.1417  -44.0215 C.2       7 UNK         0.5000 
     36 O          -0.0170  -18.3360  -44.3141 O.2       7 UNK        -0.5000 
     37 CA          0.2076  -16.7463  -42.5514 C.3       7 UNK         0.1400 
     38 CB          1.6457  -17.0851  -42.1348 C.3       7 UNK        -0.1800 
     39 N          -0.0451  -15.3385  -42.2538 N.am      7 UNK        -0.5000 
     40 C          -1.2378  -14.7275  -42.2604 C.2       6 UNK         0.5000 
     41 O          -2.3037  -15.3113  -42.4586 O.2       6 UNK        -0.5000 
     42 CA         -1.2223  -13.1971  -42.0602 C.3       6 UNK         0.1400 
     43 CB         -1.5881  -12.8408  -40.6119 C.3       6 UNK        -0.1800 
     44 N           0.0706  -12.5843  -42.3870 N.am      6 UNK        -0.5000 
     45 C           0.6479  -12.5768  -43.5956 C.2       5 UNK         0.5000 
     46 O           0.1153  -13.0461  -44.6006 O.2       5 UNK        -0.5000 
     47 CA          2.0852  -12.0340  -43.6875 C.3       5 UNK         0.1400 
     48 CB          2.1155  -10.4961  -43.7563 C.3       5 UNK        -0.1800 
     49 N           2.9856  -12.5620  -42.6521 N.am      5 UNK        -0.5000 
     50 C           2.9934  -12.3071  -41.3347 C.2       4 UNK         0.5000 
     51 O           2.1940  -11.5527  -40.7790 O.2       4 UNK        -0.5000 
     52 CA          4.0372  -13.0473  -40.4782 C.3       4 UNK         0.1400 
     53 CB          3.4131  -14.3026  -39.8512 C.3       4 UNK        -0.1800 
     54 N           5.2395  -13.4398  -41.2125 N.am      4 UNK        -0.5000 
     55 C           6.1888  -12.6076  -41.6555 C.2       3 UNK         0.5000 
     56 O           6.1387  -11.3854  -41.5137 O.2       3 UNK        -0.5000 
     57 CA          7.3976  -13.2309  -42.3841 C.3       3 UNK         0.1400 
     58 CB          8.5363  -13.5560  -41.3989 C.3       3 UNK        -0.1800 
     59 N           7.0718  -14.3829  -43.2363 N.am      3 UNK        -0.5000 
     60 C           6.6574  -15.6132  -42.8935 C.2       2 UNK         0.5000 
     61 O           6.5165  -15.9846  -41.7275 O.2       2 UNK        -0.5000 
     62 CA          6.2893  -16.5616  -44.0589 C.3       2 UNK         0.1400 
     63 CB          5.3702  -17.7213  -43.6235 C.3       2 UNK        -0.1800 
     64 N           5.7177  -15.8576  -45.2149 N.am      2 UNK        -0.5000 
     65 C           4.6352  -15.0651  -45.2172 C.2       1 UNK         0.5000 
     66 O           3.9186  -14.8622  -44.2339 O.2       1 UNK        -0.5000 
     67 C          -0.4556  -21.6285  -47.8790 C.2       11 UNK         0.5000 
     68 O          -0.1718  -22.7100  -48.3917 O.2       11 UNK        -0.5000 
     69 N          -1.4865  -20.8690  -48.2777 N.am      12 UNK        -0.5000 
     70 CA         -2.3875  -21.1968  -49.3833 C.3       12 UNK         0.1400 
     71 CB         -3.3705  -20.0442  -49.6031 C.3       12 UNK        -0.1800 
     72 C          -3.1593  -22.5071  -49.1706 C.2       12 UNK         0.5000 
     73 O          -3.3021  -23.2827  -50.1160 O.2       12 UNK        -0.5000 
     74 N          -3.5992  -22.7521  -47.9289 N.am      13 UNK        -0.5000 
     75 CA         -4.2765  -23.9791  -47.5075 C.3       13 UNK         0.1400 
     76 CB         -4.7805  -23.8137  -46.0662 C.3       13 UNK        -0.1800 
     77 C          -3.4110  -25.2495  -47.6374 C.2       13 UNK         0.5000 
     78 O          -3.9702  -26.3389  -47.7588 O.2       13 UNK        -0.5000 
     79 N          -2.0809  -25.0946  -47.6244 N.am      14 UNK        -0.5000 
     80 CA         -1.1223  -26.1691  -47.8650 C.3       14 UNK         0.1400 
     81 CB          0.0962  -25.9724  -46.9486 C.3       14 UNK        -0.1800 
     82 C          -0.6926  -26.2166  -49.3420 C.2       14 UNK         0.5000 
     83 O          -0.6674  -27.2977  -49.9308 O.2       14 UNK        -0.5000 
     84 N          -0.3358  -25.0534  -49.9042 N.am      15 UNK        -0.5000 
     85 CA          0.2640  -24.9158  -51.2314 C.3       15 UNK         0.1400 
     86 CB          0.9008  -23.5218  -51.3553 C.3       15 UNK        -0.1800 
     87 C          -0.7170  -25.1605  -52.3903 C.2       15 UNK         0.5000 
     88 O          -0.3470  -25.8234  -53.3606 O.2       15 UNK        -0.5000 
     89 N          -1.9306  -24.6085  -52.2805 N.am      16 UNK        -0.5000 
     90 CA         -2.9747  -24.6837  -53.3037 C.3       16 UNK         0.1400 
     91 CB         -3.4307  -23.2613  -53.6587 C.3       16 UNK        -0.1800 
     92 C          -4.1628  -25.5302  -52.8278 C.2       16 UNK         0.5000 
     93 O          -4.7345  -26.2713  -53.6289 O.2       16 UNK        -0.5000 
     94 N          -4.5026  -25.4195  -51.5350 N.am      17 UNK        -0.5000 
     95 CA         -5.5639  -26.1482  -50.8399 C.3       17 UNK         0.1400 
     96 CB         -5.1599  -27.6305  -50.6646 C.3       17 UNK        -0.1800 
     97 C          -6.9337  -25.9400  -51.5177 C.2       17 UNK         0.5000 
     98 O          -7.4448  -24.8183  -51.5152 O.2       17 UNK        -0.5000 
     99 N          -7.4844  -27.0102  -52.1051 N.am      18 UNK        -0.5000 
    100 CA        -8.7645  -27.0393  -52.8112 C.3       18 UNK         0.1400 
    101 CB        -9.1226  -28.5009  -53.1216 C.3       18 UNK        -0.1800 
    102 C         -8.8065  -26.1912  -54.0980 C.2       18 UNK         0.5000 
    103 O         -9.9022  -25.8567  -54.5502 O.2       18 UNK        -0.5000 
    104 N         -7.6432  -25.8275  -54.6599 N.am      19 UNK        -0.5000 
    105 CA        -7.5024  -25.0053  -55.8681 C.3       19 UNK         0.1400 
    106 CB        -6.1282  -25.2807  -56.5049 C.3       19 UNK        -0.1800 
    107 C         -7.7513  -23.4982  -55.6166 C.2       19 UNK         0.5000 
    108 O         -6.9910  -22.6592  -56.1005 O.2       19 UNK        -0.5000 
    109 N         -8.8178  -23.1873  -54.8657 N.am      20 UNK        -0.5000 
    110 CA        -9.3330  -21.8581  -54.5148 C.3       20 UNK         0.1400 
    111 CB        -9.8458  -21.1295  -55.7749 C.3       20 UNK        -0.1800 
    112 C         -8.3667  -20.9861  -53.6828 C.2       20 UNK         0.5000 
    113 O         -8.5081  -19.7606  -53.6812 O.2       20 UNK        -0.5000 
    114 N         -7.4188  -21.6195  -52.9732 N.am      21 UNK        -0.5000 
    115 CA        -6.3707  -20.9887  -52.1625 C.3       21 UNK         0.1400 
    116 CB        -6.9914  -20.3907  -50.8777 C.3       21 UNK        -0.1800 
    117 C         -5.5346  -19.9893  -53.0009 C.2       21 UNK         0.5000 
    118 O         -5.0209  -20.3747  -54.0516 O.2       21 UNK        -0.5000 
    119 N         -5.4389  -18.7335  -52.5492 N.am      22 UNK        -0.5000 
    120 CA        -4.8864  -17.5993  -53.3120 C.3       22 UNK         0.1400 
    121 C         -5.9923  -16.7354  -53.9948 C.2       22 UNK         0.5000 
    122 N         -7.2483  -17.1632  -54.0555 N.am      22 UNK        -0.7600 
    123 O         -5.7085  -15.6531  -54.5014 O.2       22 UNK        -0.5000 
    124 C124       -3.9255  -16.7396  -52.4448 C.3       23 UNK        -0.0398 
    125 S125       -2.3265  -17.5670  -52.1555 S.3       23 UNK        -0.2404 
    126 C126       -1.7197  -16.6312  -50.7135 C.3       23 UNK        -0.0205 
    127 H127        5.7307  -10.4954  -44.6837 H         1 UNK         0.0600 
    128 H128        4.5961  -10.3391  -46.0290 H         1 UNK         0.0600 
    129 H129        6.3343  -10.2452  -46.3262 H         1 UNK         0.0600 
    130 H130        3.7007  -12.3093  -46.5338 H         1 UNK         0.3000 
    131 H131        5.0754  -14.6213  -47.2797 H         1 UNK         0.0600 
    132 H132        2.8549  -15.7369  -47.2527 H         1 UNK         0.0800 
    133 H133        2.1788  -14.4349  -46.3117 H         1 UNK         0.0800 
    134 H134        2.9857  -14.4004  -50.8421 H         1 UNK         0.0800 
    135 H135        3.9880  -15.2773  -49.7138 H         1 UNK         0.0800 
    136 H136        0.3128  -14.8399  -50.4440 H         1 UNK         0.1150 
    137 H137       -0.4941  -19.0440  -50.2863 H         1 UNK         0.1150 
    138 H138        3.4790  -17.5987  -49.5888 H         1 UNK         0.1150 
    139 H139        1.2520  -20.6193  -50.0145 H         1 UNK         0.0800 
    140 H140        2.8412  -20.0852  -50.4798 H         1 UNK         0.0800 
    141 H141        0.6367  -19.1021  -47.4746 H         1 UNK         0.0800 
    142 H142        1.6453  -19.4694  -46.1160 H         1 UNK         0.0800 
    143 H143        1.0244  -21.9340  -46.3611 H         1 UNK         0.0600 
    144 H144       -0.5089  -19.8717  -45.2070 H         1 UNK         0.3000 
    145 H145       -3.1212  -21.8005  -43.7698 H         1 UNK         0.0600 
    146 H146       -2.2869  -20.6131  -41.7525 H         1 UNK         0.0600 
    147 H147       -1.2191  -21.9455  -42.1654 H         1 UNK         0.0600 
    148 H148       -0.7441  -20.2954  -42.5452 H         1 UNK         0.0600 
    149 H149       -2.4356  -19.0002  -43.8105 H         1 UNK         0.3000 
    150 H150       -4.4492  -18.1473  -46.6440 H         1 UNK         0.0600 
    151 H151       -5.9488  -18.2657  -44.6413 H         1 UNK         0.0600 
    152 H152       -5.3983  -16.6253  -44.9436 H         1 UNK         0.0600 
    153 H153       -4.6787  -17.5698  -43.6406 H         1 UNK         0.0600 
    154 H154       -2.7981  -16.5835  -44.9028 H         1 UNK         0.3000 
    155 H155        0.2110  -16.8267  -46.8195 H         1 UNK         0.0600 
    156 H156       -0.0924  -14.3866  -46.9825 H         1 UNK         0.0600 
    157 H157       -1.7766  -14.5183  -46.4884 H         1 UNK         0.0600 
    158 H158       -1.2509  -15.1750  -48.0336 H         1 UNK         0.0600 
    159 H159       -0.2808  -15.2087  -44.6067 H         1 UNK         0.3000 
    160 H160       -0.4728  -17.3475  -41.9450 H         1 UNK         0.0600 
    161 H161        2.3657  -16.4404  -42.6386 H         1 UNK         0.0600 
    162 H162        1.8992  -18.1178  -42.3788 H         1 UNK         0.0600 
    163 H163        1.7802  -16.9683  -41.0597 H         1 UNK         0.0600 
    164 H164        0.7691  -14.7645  -42.0955 H         1 UNK         0.3000 
    165 H165       -1.9761  -12.7706  -42.7249 H         1 UNK         0.0600 
    166 H166       -1.6530  -11.7611  -40.4761 H         1 UNK         0.0600 
    167 H167       -2.5567  -13.2611  -40.3377 H         1 UNK         0.0600 
    168 H168       -0.8505  -13.2241  -39.9055 H         1 UNK         0.0600 
    169 H169        0.5976  -12.1753  -41.6199 H         1 UNK         0.3000 
    170 H170        2.4847  -12.4038  -44.6303 H         1 UNK         0.0600 
    171 H171        1.5604  -10.1373  -44.6237 H         1 UNK         0.0600 
    172 H172        1.6695  -10.0359  -42.8745 H         1 UNK         0.0600 
    173 H173        3.1366  -10.1258  -43.8465 H         1 UNK         0.0600 
    174 H174        3.6270  -13.2738  -42.9889 H         1 UNK         0.3000 
    175 H175        4.3352  -12.3737  -39.6721 H         1 UNK         0.0600 
    176 H176        3.1490  -15.0365  -40.6120 H         1 UNK         0.0600 
    177 H177        4.1024  -14.7785  -39.1536 H         1 UNK         0.0600 
    178 H178        2.5059  -14.0589  -39.2964 H         1 UNK         0.0600 
    179 H179        5.3958  -14.4338  -41.3472 H         1 UNK         0.3000 
    180 H180        7.7697  -12.4656  -43.0672 H         1 UNK         0.0600 
    181 H181        9.4090  -13.9492  -41.9205 H         1 UNK         0.0600 
    182 H182        8.2339  -14.2877  -40.6495 H         1 UNK         0.0600 
    183 H183        8.8534  -12.6594  -40.8651 H         1 UNK         0.0600 
    184 H184        7.0747  -14.1600  -44.2272 H         1 UNK         0.3000 
    185 H185        7.2297  -16.9975  -44.3990 H         1 UNK         0.0600 
    186 H186        5.1306  -18.3730  -44.4638 H         1 UNK         0.0600 
    187 H187        5.8502  -18.3374  -42.8624 H         1 UNK         0.0600 
    188 H188        4.4334  -17.3573  -43.2045 H         1 UNK         0.0600 
    189 H189        6.2609  -15.9227  -46.0648 H         1 UNK         0.3000 
    190 H190       -1.6492  -19.9737  -47.8212 H         1 UNK         0.3000 
    191 H191       -1.7788  -21.3059  -50.2830 H         1 UNK         0.0600 
    192 H192       -2.8492  -19.0974  -49.7085 H         1 UNK         0.0600 
    193 H193       -4.0747  -19.9427  -48.7765 H         1 UNK         0.0600 
    194 H194       -3.9382  -20.2010  -50.5176 H         1 UNK         0.0600 
    195 H195       -3.4868  -22.0320  -47.2221 H         1 UNK         0.3000 
    196 H196       -5.1462  -24.1088  -48.1537 H         1 UNK         0.0600 
    197 H197       -3.9585  -23.6510  -45.3694 H         1 UNK         0.0600 
    198 H198       -5.4646  -22.9692  -45.9817 H         1 UNK         0.0600 
    199 H199       -5.3201  -24.7020  -45.7356 H         1 UNK         0.0600 
    200 H200       -1.7007  -24.1634  -47.5109 H         1 UNK         0.3000 
    201 H201       -1.5705  -27.1331  -47.6152 H         1 UNK         0.0600 
    202 H202        0.5962  -25.0209  -47.1330 H         1 UNK         0.0600 
    203 H203        0.8303  -26.7647  -47.0994 H         1 UNK         0.0600 
    204 H204       -0.1964  -25.9941  -45.8986 H         1 UNK         0.0600 
    205 H205       -0.3563  -24.2084  -49.3357 H         1 UNK         0.3000 
    206 H206        1.0630  -25.6557  -51.3147 H         1 UNK         0.0600 
    207 H207        1.6591  -23.3647  -50.5877 H         1 UNK         0.0600 
    208 H208        1.3874  -23.3974  -52.3235 H         1 UNK         0.0600 
    209 H209        0.1577  -22.7296  -51.2565 H         1 UNK         0.0600 
    210 H210       -2.1713  -24.1125  -51.4281 H         1 UNK         0.3000 
    211 H211       -2.5938  -25.1483  -54.2156 H         1 UNK         0.0600 
    212 H212       -4.2693  -23.2725  -54.3563 H         1 UNK         0.0600 
    213 H213       -2.6250  -22.6978  -54.1292 H         1 UNK         0.0600 
    214 H214       -3.7455  -22.7086  -52.7745 H         1 UNK         0.0600 
    215 H215       -4.0209  -24.7186  -50.9775 H         1 UNK         0.3000 
    216 H216       -5.6499  -25.7079  -49.8473 H         1 UNK         0.0600 
    217 H217       -5.9044  -28.1756  -50.0830 H         1 UNK         0.0600 
    218 H218       -5.0337  -28.1447  -51.6178 H         1 UNK         0.0600 
    219 H219       -4.2148  -27.7115  -50.1272 H         1 UNK         0.0600 
    220 H220       -6.9673  -27.8771  -52.0842 H         1 UNK         0.3000 
    221 H221       -9.5237  -26.6375  -52.1371 H         1 UNK         0.0600 
    222 H222       -9.1850  -29.0950  -52.2096 H         1 UNK         0.0600 
    223 H223       -8.3838  -28.9650  -53.7763 H         1 UNK         0.0600 
    224 H224      -10.0912  -28.5704  -53.6187 H         1 UNK         0.0600 
    225 H225       -6.7787  -26.1133  -54.2127 H         1 UNK         0.3000 
    226 H226       -8.2590  -25.3275  -56.5865 H         1 UNK         0.0600 
    227 H227       -5.3136  -24.9206  -55.8770 H         1 UNK         0.0600 
    228 H228       -5.9758  -26.3470  -56.6731 H         1 UNK         0.0600 
    229 H229       -6.0386  -24.7852  -57.4723 H         1 UNK         0.0600 
    230 H230       -9.3776  -23.9704  -54.5425 H         1 UNK         0.3000 
    231 H231      -10.1944  -22.0363  -53.8698 H         1 UNK         0.0600 
    232 H232       -9.0286  -20.8531  -56.4417 H         1 UNK         0.0600 
    233 H233      -10.3760  -20.2135  -55.5117 H         1 UNK         0.0600 
    234 H234      -10.5414  -21.7533  -56.3362 H         1 UNK         0.0600 
    235 H235       -7.3805  -22.6276  -53.0355 H         1 UNK         0.3000 
    236 H236       -5.6914  -21.7854  -51.8577 H         1 UNK         0.0600 
    237 H237       -6.2323  -19.9905  -50.2069 H         1 UNK         0.0600 
    238 H238       -7.6977  -19.5887  -51.0945 H         1 UNK         0.0600 
    239 H239       -7.5299  -21.1567  -50.3194 H         1 UNK         0.0600 
    240 H240       -5.9164  -18.4925  -51.6934 H         1 UNK         0.3000 
    241 H241       -4.3003  -17.9813  -54.1496 H         1 UNK         0.0600 
    242 H242       -7.9372  -16.5832  -54.5071 H         1 UNK         0.3800 
    243 H243       -7.5212  -18.0866  -53.7313 H         1 UNK         0.3800 
    244 H244       -4.3922  -16.4907  -51.4905 H         1 UNK         0.0800 
    245 H245       -3.6944  -15.7890  -52.9282 H         1 UNK         0.0800 
    246 H246       -1.8643  -15.5669  -50.9056 H         1 UNK         0.0800 
    247 H247       -2.3242  -16.8677  -49.8378 H         1 UNK         0.0800 
@<TRIPOS>BOND
     1    1    2 1    
     2    1  127 1    
     3    1  128 1    
     4    1  129 1    
     5    2    3 2    
     6    2    4 am   BACKBONE|DICT|INTERRES
     7    4    5 1    
     8    4  130 1    
     9    5    6 1    
    10    5   65 1    
    11    5  131 1    
    12    6    7 1    
    13    6  132 1    
    14    6  133 1    
    15    7    8 1    
    16    8    9 1    
    17    8  134 1    
    18    8  135 1    
    19    9   10 ar   
    20    9   14 ar   
    21   10   11 ar   
    22   10  136 1    
    23   11   12 ar   
    24   11  126 1    
    25   12   13 ar   
    26   12  137 1    
    27   13   14 ar   
    28   13   15 1    
    29   14  138 1    
    30   15   16 1    
    31   15  139 1    
    32   15  140 1    
    33   16   17 1    
    34   17   18 1    
    35   17  141 1    
    36   17  142 1    
    37   18   19 1    
    38   18   67 1    
    39   18  143 1    
    40   19   20 am   BACKBONE|DICT|INTERRES
    41   19  144 1    
    42   20   21 2    
    43   20   22 1    
    44   22   23 1    
    45   22   24 1    
    46   22  145 1    
    47   23  146 1    
    48   23  147 1    
    49   23  148 1    
    50   24   25 am   BACKBONE|DICT|INTERRES
    51   24  149 1    
    52   25   26 2    
    53   25   27 1    
    54   27   28 1    
    55   27   29 1    
    56   27  150 1    
    57   28  151 1    
    58   28  152 1    
    59   28  153 1    
    60   29   30 am   BACKBONE|DICT|INTERRES
    61   29  154 1    
    62   30   31 2    
    63   30   32 1    
    64   32   33 1    
    65   32   34 1    
    66   32  155 1    
    67   33  156 1    
    68   33  157 1    
    69   33  158 1    
    70   34   35 am   BACKBONE|DICT|INTERRES
    71   34  159 1    
    72   35   36 2    
    73   35   37 1    
    74   37   38 1    
    75   37   39 1    
    76   37  160 1    
    77   38  161 1    
    78   38  162 1    
    79   38  163 1    
    80   39   40 am   BACKBONE|DICT|INTERRES
    81   39  164 1    
    82   40   41 2    
    83   40   42 1    
    84   42   43 1    
    85   42   44 1    
    86   42  165 1    
    87   43  166 1    
    88   43  167 1    
    89   43  168 1    
    90   44   45 am   BACKBONE|DICT|INTERRES
    91   44  169 1    
    92   45   46 2    
    93   45   47 1    
    94   47   48 1    
    95   47   49 1    
    96   47  170 1    
    97   48  171 1    
    98   48  172 1    
    99   48  173 1    
   100   49   50 am   BACKBONE|DICT|INTERRES
   101   49  174 1    
   102   50   51 2    
   103   50   52 1    
   104   52   53 1    
   105   52   54 1    
   106   52  175 1    
   107   53  176 1    
   108   53  177 1    
   109   53  178 1    
   110   54   55 am   BACKBONE|DICT|INTERRES
   111   54  179 1    
   112   55   56 2    
   113   55   57 1    
   114   57   58 1    
   115   57   59 1    
   116   57  180 1    
   117   58  181 1    
   118   58  182 1    
   119   58  183 1    
   120   59   60 am   BACKBONE|DICT|INTERRES
   121   59  184 1    
   122   60   61 2    
   123   60   62 1    
   124   62   63 1    
   125   62   64 1    
   126   62  185 1    
   127   63  186 1    
   128   63  187 1    
   129   63  188 1    
   130   64   65 am   BACKBONE|DICT|INTERRES
   131   64  189 1    
   132   65   66 2    
   133   67   68 2    
   134   67   69 am   BACKBONE|DICT|INTERRES
   135   69   70 1    
   136   69  190 1    
   137   70   71 1    
   138   70   72 1    
   139   70  191 1    
   140   71  192 1    
   141   71  193 1    
   142   71  194 1    
   143   72   73 2    
   144   72   74 am   BACKBONE|DICT|INTERRES
   145   74   75 1    
   146   74  195 1    
   147   75   76 1    
   148   75   77 1    
   149   75  196 1    
   150   76  197 1    
   151   76  198 1    
   152   76  199 1    
   153   77   78 2    
   154   77   79 am   BACKBONE|DICT|INTERRES
   155   79   80 1    
   156   79  200 1    
   157   80   81 1    
   158   80   82 1    
   159   80  201 1    
   160   81  202 1    
   161   81  203 1    
   162   81  204 1    
   163   82   83 2    
   164   82   84 am   BACKBONE|DICT|INTERRES
   165   84   85 1    
   166   84  205 1    
   167   85   86 1    
   168   85   87 1    
   169   85  206 1    
   170   86  207 1    
   171   86  208 1    
   172   86  209 1    
   173   87   88 2    
   174   87   89 am   BACKBONE|DICT|INTERRES
   175   89   90 1    
   176   89  210 1    
   177   90   91 1    
   178   90   92 1    
   179   90  211 1    
   180   91  212 1    
   181   91  213 1    
   182   91  214 1    
   183   92   93 2    
   184   92   94 am   BACKBONE|DICT|INTERRES
   185   94   95 1    
   186   94  215 1    
   187   95   96 1    
   188   95   97 1    
   189   95  216 1    
   190   96  217 1    
   191   96  218 1    
   192   96  219 1    
   193   97   98 2    
   194   97   99 am   BACKBONE|DICT|INTERRES
   195   99  100 1    
   196   99  220 1    
   197  100  101 1    
   198  100  102 1    
   199  100  221 1    
   200  101  222 1    
   201  101  223 1    
   202  101  224 1    
   203  102  103 2    
   204  102  104 am   BACKBONE|DICT|INTERRES
   205  104  105 1    
   206  104  225 1    
   207  105  106 1    
   208  105  107 1    
   209  105  226 1    
   210  106  227 1    
   211  106  228 1    
   212  106  229 1    
   213  107  108 2    
   214  107  109 am   BACKBONE|DICT|INTERRES
   215  109  110 1    
   216  109  230 1    
   217  110  111 1    
   218  110  112 1    
   219  110  231 1    
   220  111  232 1    
   221  111  233 1    
   222  111  234 1    
   223  112  113 2    
   224  112  114 am   BACKBONE|DICT|INTERRES
   225  114  115 1    
   226  114  235 1    
   227  115  116 1    
   228  115  117 1    
   229  115  236 1    
   230  116  237 1    
   231  116  238 1    
   232  116  239 1    
   233  117  118 2    
   234  117  119 am   BACKBONE|DICT|INTERRES
   235  119  120 1    
   236  119  240 1    
   237  120  121 1    
   238  120  124 1    
   239  120  241 1    
   240  121  122 am   BACKBONE|DICT|INTERRES
   241  121  123 2    
   242  122  242 1    
   243  122  243 1    
   244  124  125 1    
   245  124  244 1    
   246  124  245 1    
   247  125  126 1    
   248  126  246 1    
   249  126  247 1    
@<TRIPOS>SUBSTRUCTURE
     1 UNK         1 GROUP             0       ****    0 ROOT    
