@<TRIPOS>MOLECULE
3R540
247   249    1
SMALL
USER_CHARGES


@<TRIPOS>ATOM
      1 CA         -2.8525  -12.5338  -51.1548 C.3       0 UNK        -0.1800 
      2 C          -1.9624  -13.4791  -50.3626 C.2       0 UNK         0.5000 
      3 O          -2.2994  -14.6550  -50.2171 O.2       0 UNK        -0.5000 
      4 N          -0.8395  -12.9663  -49.8397 N.am      1 UNK        -0.5000 
      5 CA          0.1693  -13.6378  -48.9995 C.3       1 UNK         0.1400 
      6 C6          0.8103  -14.8956  -49.6371 C.3       23 UNK        -0.0398 
      7 S7          1.7236  -14.5448  -51.1755 S.3       23 UNK        -0.2404 
      8 C8          2.6189  -16.1139  -51.4224 C.3       23 UNK        -0.0205 
      9 C9          1.7061  -17.2689  -51.8213 C.ar      23 UNK        -0.0193 
     10 C10         1.5845  -17.6523  -53.1615 C.ar      23 UNK        -0.1150 
     11 C11         0.8038  -18.7580  -53.5212 C.ar      23 UNK        -0.0193 
     12 C12         0.1256  -19.4656  -52.5242 C.ar      23 UNK        -0.1150 
     13 C13         0.2096  -19.0754  -51.1847 C.ar      23 UNK        -0.0193 
     14 C14         1.0152  -17.9867  -50.8417 C.ar      23 UNK        -0.1150 
     15 C15        -0.6103  -19.8057  -50.1282 C.3       23 UNK        -0.0205 
     16 S16         0.3201  -20.2085  -48.6187 S.3       23 UNK        -0.2404 
     17 C17        -0.9679  -21.0624  -47.6443 C.3       23 UNK        -0.0398 
     18 CA         -0.4111  -22.3561  -47.0102 C.3       11 UNK         0.1400 
     19 N           0.5684  -22.0835  -45.9575 N.am      11 UNK        -0.5000 
     20 C           1.3819  -23.0022  -45.4227 C.2       10 UNK         0.5000 
     21 O           1.4050  -24.1817  -45.7754 O.2       10 UNK        -0.5000 
     22 CA          2.2879  -22.5342  -44.2701 C.3       10 UNK         0.1400 
     23 CB          3.4898  -21.7398  -44.8029 C.3       10 UNK        -0.1800 
     24 N           1.5670  -21.7346  -43.2782 N.am      10 UNK        -0.5000 
     25 C           0.5600  -22.1980  -42.5235 C.2       9 UNK         0.5000 
     26 O           0.1511  -23.3588  -42.5658 O.2       9 UNK        -0.5000 
     27 CA         -0.1331  -21.1889  -41.5908 C.3       9 UNK         0.1400 
     28 CB          0.7032  -20.9539  -40.3242 C.3       9 UNK        -0.1800 
     29 N          -0.4113  -19.9083  -42.2409 N.am      9 UNK        -0.5000 
     30 C          -1.2193  -19.7496  -43.2993 C.2       8 UNK         0.5000 
     31 O          -1.8379  -20.6666  -43.8351 O.2       8 UNK        -0.5000 
     32 CA         -1.3113  -18.3364  -43.8982 C.3       8 UNK         0.1400 
     33 CB         -2.2001  -17.4394  -43.0262 C.3       8 UNK        -0.1800 
     34 N           0.0015  -17.7167  -44.0788 N.am      8 UNK        -0.5000 
     35 C           0.9913  -18.2364  -44.8206 C.2       7 UNK         0.5000 
     36 O           0.8941  -19.2818  -45.4593 O.2       7 UNK        -0.5000 
     37 CA          2.3372  -17.4981  -44.7939 C.3       7 UNK         0.1400 
     38 CB          2.3080  -16.2750  -45.7195 C.3       7 UNK        -0.1800 
     39 N           2.6966  -17.0908  -43.4370 N.am      7 UNK        -0.5000 
     40 C           3.0263  -17.9456  -42.4579 C.2       6 UNK         0.5000 
     41 O           3.1085  -19.1652  -42.6086 O.2       6 UNK        -0.5000 
     42 CA          3.2580  -17.3324  -41.0656 C.3       6 UNK         0.1400 
     43 CB          4.6734  -16.7458  -40.9568 C.3       6 UNK        -0.1800 
     44 N           2.2744  -16.2972  -40.7420 N.am      6 UNK        -0.5000 
     45 C           0.9680  -16.5323  -40.5556 C.2       5 UNK         0.5000 
     46 O           0.4606  -17.6518  -40.6144 O.2       5 UNK        -0.5000 
     47 CA          0.0721  -15.3083  -40.2932 C.3       5 UNK         0.1400 
     48 CB          0.0415  -14.9750  -38.7943 C.3       5 UNK        -0.1800 
     49 N           0.4645  -14.1148  -41.0485 N.am      5 UNK        -0.5000 
     50 C           0.4522  -14.0226  -42.3843 C.2       4 UNK         0.5000 
     51 O           0.1868  -14.9651  -43.1345 O.2       4 UNK        -0.5000 
     52 CA          0.8152  -12.6558  -42.9845 C.3       4 UNK         0.1400 
     53 CB          2.1803  -12.7140  -43.6867 C.3       4 UNK        -0.1800 
     54 N          -0.2101  -12.2729  -43.9496 N.am      4 UNK        -0.5000 
     55 C          -1.3437  -11.6273  -43.6352 C.2       3 UNK         0.5000 
     56 O          -1.5695  -11.1476  -42.5235 O.2       3 UNK        -0.5000 
     57 CA         -2.4215  -11.5204  -44.7359 C.3       3 UNK         0.1400 
     58 CB         -2.2529  -10.2200  -45.5360 C.3       3 UNK        -0.1800 
     59 N          -2.3818  -12.6553  -45.6570 N.am      3 UNK        -0.5000 
     60 C          -2.6723  -13.9188  -45.3202 C.2       2 UNK         0.5000 
     61 O          -3.2517  -14.2147  -44.2753 O.2       2 UNK        -0.5000 
     62 CA         -2.2209  -15.0399  -46.2850 C.3       2 UNK         0.1400 
     63 CB         -3.4007  -15.9347  -46.6993 C.3       2 UNK        -0.1800 
     64 N          -1.5358  -14.5859  -47.4997 N.am      2 UNK        -0.5000 
     65 C          -0.3530  -13.9635  -47.5842 C.2       1 UNK         0.5000 
     66 O           0.2976  -13.6091  -46.6018 O.2       1 UNK        -0.5000 
     67 C          -1.5363  -23.2872  -46.5191 C.2       11 UNK         0.5000 
     68 O          -1.9101  -24.1985  -47.2545 O.2       11 UNK        -0.5000 
     69 N          -2.0162  -23.1005  -45.2805 N.am      12 UNK        -0.5000 
     70 CA         -3.0020  -23.9752  -44.6409 C.3       12 UNK         0.1400 
     71 CB         -3.4614  -23.3701  -43.3063 C.3       12 UNK        -0.1800 
     72 C          -2.4825  -25.4098  -44.4385 C.2       12 UNK         0.5000 
     73 O          -3.2157  -26.3588  -44.7163 O.2       12 UNK        -0.5000 
     74 N          -1.2176  -25.5469  -44.0138 N.am      13 UNK        -0.5000 
     75 CA         -0.5231  -26.8303  -43.8765 C.3       13 UNK         0.1400 
     76 CB          0.8179  -26.6150  -43.1590 C.3       13 UNK        -0.1800 
     77 C          -0.3153  -27.5492  -45.2247 C.2       13 UNK         0.5000 
     78 O          -0.4141  -28.7753  -45.2817 O.2       13 UNK        -0.5000 
     79 N          -0.0697  -26.7730  -46.2887 N.am      14 UNK        -0.5000 
     80 CA          0.0323  -27.2467  -47.6712 C.3       14 UNK         0.1400 
     81 CB          0.8077  -26.2026  -48.4912 C.3       14 UNK        -0.1800 
     82 C          -1.3345  -27.5394  -48.3292 C.2       14 UNK         0.5000 
     83 O          -1.3588  -28.1096  -49.4207 O.2       14 UNK        -0.5000 
     84 N          -2.4334  -27.1322  -47.6750 N.am      15 UNK        -0.5000 
     85 CA         -3.8254  -27.1700  -48.1379 C.3       15 UNK         0.1400 
     86 CB         -4.3142  -28.6230  -48.3122 C.3       15 UNK        -0.1800 
     87 C          -4.0698  -26.2878  -49.3833 C.2       15 UNK         0.5000 
     88 O          -4.8790  -26.6376  -50.2448 O.2       15 UNK        -0.5000 
     89 N          -3.3625  -25.1553  -49.4501 N.am      16 UNK        -0.5000 
     90 CA         -3.4577  -24.1482  -50.4999 C.3       16 UNK         0.1400 
     91 CB         -2.0418  -23.6214  -50.7889 C.3       16 UNK        -0.1800 
     92 C          -4.3732  -22.9957  -50.0559 C.2       16 UNK         0.5000 
     93 O          -4.4626  -22.6952  -48.8623 O.2       16 UNK        -0.5000 
     94 N          -5.0019  -22.3422  -51.0372 N.am      17 UNK        -0.5000 
     95 CA         -5.6998  -21.0676  -50.8815 C.3       17 UNK         0.1400 
     96 CB         -6.7608  -20.9617  -51.9911 C.3       17 UNK        -0.1800 
     97 C          -4.6998  -19.8958  -50.9563 C.2       17 UNK         0.5000 
     98 O          -3.5071  -20.1149  -51.1739 O.2       17 UNK        -0.5000 
     99 N          -5.2060  -18.6656  -50.7968 N.am      18 UNK        -0.5000 
    100 CA        -4.4580  -17.4135  -50.9633 C.3       18 UNK         0.1400 
    101 CB        -5.3947  -16.2434  -50.6205 C.3       18 UNK        -0.1800 
    102 C         -3.8705  -17.2416  -52.3816 C.2       18 UNK         0.5000 
    103 O         -4.2906  -17.9321  -53.3145 O.2       18 UNK        -0.5000 
    104 N         -2.9123  -16.3171  -52.5225 N.am      19 UNK        -0.5000 
    105 CA        -2.1820  -16.0538  -53.7655 C.3       19 UNK         0.1400 
    106 CB        -1.1748  -14.9210  -53.5471 C.3       19 UNK        -0.1800 
    107 C         -3.0930  -15.7378  -54.9678 C.2       19 UNK         0.5000 
    108 O         -4.1349  -15.1003  -54.8034 O.2       19 UNK        -0.5000 
    109 N         -2.6700  -16.2197  -56.1424 N.am      20 UNK        -0.5000 
    110 CA        -3.3584  -16.2502  -57.4390 C.3       20 UNK         0.1400 
    111 CB        -3.9790  -14.8944  -57.8307 C.3       20 UNK        -0.1800 
    112 C         -4.3649  -17.4103  -57.5739 C.2       20 UNK         0.5000 
    113 O         -4.5838  -17.8675  -58.6967 O.2       20 UNK        -0.5000 
    114 N         -4.9199  -17.9049  -56.4580 N.am      21 UNK        -0.5000 
    115 CA        -5.6525  -19.1710  -56.4050 C.3       21 UNK         0.1400 
    116 CB        -6.7912  -19.0862  -55.3749 C.3       21 UNK        -0.1800 
    117 C         -4.6708  -20.3118  -56.0882 C.2       21 UNK         0.5000 
    118 O         -4.5891  -21.2739  -56.8530 O.2       21 UNK        -0.5000 
    119 N         -3.9025  -20.1383  -55.0046 N.am      22 UNK        -0.5000 
    120 CA        -2.8019  -21.0010  -54.5507 C.3       22 UNK         0.1400 
    121 C         -3.2408  -22.4700  -54.2488 C.2       22 UNK         0.5000 
    122 N         -2.3807  -23.4669  -54.4181 N.am      22 UNK        -0.7600 
    123 O         -4.3526  -22.7198  -53.7893 O.2       22 UNK        -0.5000 
    124 C124       -1.5408  -20.8828  -55.4585 C.3       23 UNK        -0.0398 
    125 S125       -0.9468  -19.1646  -55.6811 S.3       23 UNK        -0.2404 
    126 C126        0.7386  -19.2099  -54.9775 C.3       23 UNK        -0.0205 
    127 H127       -2.2768  -11.7203  -51.5968 H         1 UNK         0.0600 
    128 H128       -3.6145  -12.1057  -50.5038 H         1 UNK         0.0600 
    129 H129       -3.3572  -13.0690  -51.9593 H         1 UNK         0.0600 
    130 H130       -0.6478  -11.9883  -50.0064 H         1 UNK         0.3000 
    131 H131        0.9658  -12.9042  -48.8629 H         1 UNK         0.0600 
    132 H132        1.5100  -15.3567  -48.9376 H         1 UNK         0.0800 
    133 H133        0.0457  -15.6429  -49.8470 H         1 UNK         0.0800 
    134 H134        3.1655  -16.3699  -50.5135 H         1 UNK         0.0800 
    135 H135        3.3767  -15.9603  -52.1921 H         1 UNK         0.0800 
    136 H136        2.1227  -17.1039  -53.9218 H         1 UNK         0.1150 
    137 H137       -0.4730  -20.3220  -52.7908 H         1 UNK         0.1150 
    138 H138        1.1047  -17.7002  -49.8042 H         1 UNK         0.1150 
    139 H139       -1.4581  -19.1754  -49.8578 H         1 UNK         0.0800 
    140 H140       -1.0177  -20.7296  -50.5399 H         1 UNK         0.0800 
    141 H141       -1.8165  -21.2866  -48.2941 H         1 UNK         0.0800 
    142 H142       -1.3425  -20.3835  -46.8762 H         1 UNK         0.0800 
    143 H143        0.1114  -22.9054  -47.7965 H         1 UNK         0.0600 
    144 H144        0.6386  -21.1164  -45.6469 H         1 UNK         0.3000 
    145 H145        2.6681  -23.4252  -43.7661 H         1 UNK         0.0600 
    146 H146        4.1753  -21.4760  -43.9974 H         1 UNK         0.0600 
    147 H147        4.0523  -22.3246  -45.5316 H         1 UNK         0.0600 
    148 H148        3.1791  -20.8162  -45.2919 H         1 UNK         0.0600 
    149 H149        1.8595  -20.7695  -43.1704 H         1 UNK         0.3000 
    150 H150       -1.0894  -21.6209  -41.2894 H         1 UNK         0.0600 
    151 H151        0.9209  -21.8953  -39.8182 H         1 UNK         0.0600 
    152 H152        0.1722  -20.3186  -39.6150 H         1 UNK         0.0600 
    153 H153        1.6554  -20.4741  -40.5532 H         1 UNK         0.0600 
    154 H154        0.0317  -19.0884  -41.8353 H         1 UNK         0.3000 
    155 H155       -1.7713  -18.4169  -44.8853 H         1 UNK         0.0600 
    156 H156       -1.8356  -17.3786  -42.0014 H         1 UNK         0.0600 
    157 H157       -3.2206  -17.8220  -42.9885 H         1 UNK         0.0600 
    158 H158       -2.2453  -16.4266  -43.4196 H         1 UNK         0.0600 
    159 H159        0.1561  -16.8284  -43.6093 H         1 UNK         0.3000 
    160 H160        3.1051  -18.1830  -45.1602 H         1 UNK         0.0600 
    161 H161        3.2702  -15.7632  -45.7343 H         1 UNK         0.0600 
    162 H162        1.5500  -15.5590  -45.4055 H         1 UNK         0.0600 
    163 H163        2.0766  -16.5680  -46.7442 H         1 UNK         0.0600 
    164 H164        2.5992  -16.1116  -43.2147 H         1 UNK         0.3000 
    165 H165        3.1630  -18.1337  -40.3295 H         1 UNK         0.0600 
    166 H166        4.8718  -16.3801  -39.9491 H         1 UNK         0.0600 
    167 H167        5.4268  -17.5022  -41.1810 H         1 UNK         0.0600 
    168 H168        4.8231  -15.9175  -41.6504 H         1 UNK         0.0600 
    169 H169        2.6091  -15.3474  -40.6748 H         1 UNK         0.3000 
    170 H170       -0.9414  -15.5732  -40.6007 H         1 UNK         0.0600 
    171 H171       -0.2684  -15.8413  -38.2081 H         1 UNK         0.0600 
    172 H172        1.0216  -14.6653  -38.4295 H         1 UNK         0.0600 
    173 H173       -0.6654  -14.1725  -38.5828 H         1 UNK         0.0600 
    174 H174        0.6978  -13.2971  -40.5036 H         1 UNK         0.3000 
    175 H175        0.8731  -11.9100  -42.1888 H         1 UNK         0.0600 
    176 H176        2.1824  -13.4268  -44.5114 H         1 UNK         0.0600 
    177 H177        2.4544  -11.7395  -44.0910 H         1 UNK         0.0600 
    178 H178        2.9664  -13.0113  -42.9917 H         1 UNK         0.0600 
    179 H179       -0.1199  -12.6898  -44.8713 H         1 UNK         0.3000 
    180 H180       -3.3992  -11.5036  -44.2498 H         1 UNK         0.0600 
    181 H181       -1.2941  -10.1880  -46.0552 H         1 UNK         0.0600 
    182 H182       -2.3004   -9.3499  -44.8798 H         1 UNK         0.0600 
    183 H183       -3.0422  -10.1089  -46.2796 H         1 UNK         0.0600 
    184 H184       -1.9094  -12.5060  -46.5357 H         1 UNK         0.3000 
    185 H185       -1.5108  -15.6540  -45.7274 H         1 UNK         0.0600 
    186 H186       -4.1383  -15.3798  -47.2805 H         1 UNK         0.0600 
    187 H187       -3.0631  -16.7774  -47.3033 H         1 UNK         0.0600 
    188 H188       -3.9092  -16.3476  -45.8271 H         1 UNK         0.0600 
    189 H189       -2.0022  -14.7888  -48.3806 H         1 UNK         0.3000 
    190 H190       -1.7056  -22.2977  -44.7383 H         1 UNK         0.3000 
    191 H191       -3.8700  -24.0301  -45.3013 H         1 UNK         0.0600 
    192 H192       -2.6279  -23.2341  -42.6169 H         1 UNK         0.0600 
    193 H193       -4.1927  -24.0136  -42.8157 H         1 UNK         0.0600 
    194 H194       -3.9340  -22.3995  -43.4567 H         1 UNK         0.0600 
    195 H195       -0.6920  -24.7154  -43.7597 H         1 UNK         0.3000 
    196 H196       -1.1410  -27.4774  -43.2506 H         1 UNK         0.0600 
    197 H197        1.3449  -27.5601  -43.0232 H         1 UNK         0.0600 
    198 H198        0.6698  -26.1798  -42.1706 H         1 UNK         0.0600 
    199 H199        1.4742  -25.9503  -43.7209 H         1 UNK         0.0600 
    200 H200        0.0598  -25.7779  -46.1413 H         1 UNK         0.3000 
    201 H201        0.6043  -28.1768  -47.6786 H         1 UNK         0.0600 
    202 H202        1.7871  -26.0048  -48.0552 H         1 UNK         0.0600 
    203 H203        0.2694  -25.2565  -48.5486 H         1 UNK         0.0600 
    204 H204        0.9705  -26.5480  -49.5127 H         1 UNK         0.0600 
    205 H205       -2.2927  -26.6561  -46.7933 H         1 UNK         0.3000 
    206 H206       -4.4158  -26.7224  -47.3373 H         1 UNK         0.0600 
    207 H207       -4.1298  -29.2106  -47.4128 H         1 UNK         0.0600 
    208 H208       -5.3873  -28.6531  -48.5039 H         1 UNK         0.0600 
    209 H209       -3.8204  -29.1214  -49.1467 H         1 UNK         0.0600 
    210 H210       -2.7860  -24.8975  -48.6500 H         1 UNK         0.3000 
    211 H211       -3.8596  -24.5899  -51.4143 H         1 UNK         0.0600 
    212 H212       -1.5716  -23.2166  -49.8928 H         1 UNK         0.0600 
    213 H213       -2.0611  -22.8250  -51.5328 H         1 UNK         0.0600 
    214 H214       -1.3991  -24.4131  -51.1739 H         1 UNK         0.0600 
    215 H215       -4.8118  -22.6089  -52.0012 H         1 UNK         0.3000 
    216 H216       -6.1977  -21.0363  -49.9103 H         1 UNK         0.0600 
    217 H217       -7.3602  -20.0568  -51.8886 H         1 UNK         0.0600 
    218 H218       -7.4479  -21.8074  -51.9604 H         1 UNK         0.0600 
    219 H219       -6.3023  -20.9416  -52.9804 H         1 UNK         0.0600 
    220 H220       -6.1986  -18.5682  -50.6459 H         1 UNK         0.3000 
    221 H221       -3.6273  -17.4204  -50.2544 H         1 UNK         0.0600 
    222 H222       -6.2588  -16.2148  -51.2855 H         1 UNK         0.0600 
    223 H223       -5.7589  -16.3167  -49.5956 H         1 UNK         0.0600 
    224 H224       -4.8835  -15.2847  -50.7110 H         1 UNK         0.0600 
    225 H225       -2.6485  -15.7610  -51.7136 H         1 UNK         0.3000 
    226 H226       -1.6194  -16.9624  -53.9794 H         1 UNK         0.0600 
    227 H227       -0.5610  -15.1207  -52.6723 H         1 UNK         0.0600 
    228 H228       -0.5034  -14.8244  -54.4009 H         1 UNK         0.0600 
    229 H229       -1.6674  -13.9595  -53.4072 H         1 UNK         0.0600 
    230 H230       -1.8085  -16.7503  -56.1317 H         1 UNK         0.3000 
    231 H231       -2.5693  -16.4555  -58.1642 H         1 UNK         0.0600 
    232 H232       -3.2634  -14.0808  -57.7129 H         1 UNK         0.0600 
    233 H233       -4.8617  -14.6598  -57.2357 H         1 UNK         0.0600 
    234 H234       -4.2924  -14.9037  -58.8752 H         1 UNK         0.0600 
    235 H235       -4.6844  -17.4841  -55.5681 H         1 UNK         0.3000 
    236 H236       -6.1089  -19.3810  -57.3747 H         1 UNK         0.0600 
    237 H237       -7.3345  -20.0302  -55.3195 H         1 UNK         0.0600 
    238 H238       -6.4298  -18.8593  -54.3731 H         1 UNK         0.0600 
    239 H239       -7.5092  -18.3136  -55.6500 H         1 UNK         0.0600 
    240 H240       -4.0720  -19.3236  -54.4171 H         1 UNK         0.3000 
    241 H241       -2.5347  -20.6002  -53.5751 H         1 UNK         0.0600 
    242 H242       -1.4525  -23.3215  -54.7799 H         1 UNK         0.3800 
    243 H243       -2.6832  -24.4049  -54.2092 H         1 UNK         0.3800 
    244 H244       -0.7240  -21.4780  -55.0511 H         1 UNK         0.0800 
    245 H245       -1.7516  -21.2954  -56.4462 H         1 UNK         0.0800 
    246 H246        1.1673  -20.2084  -55.0680 H         1 UNK         0.0800 
    247 H247        1.3675  -18.5653  -55.5933 H         1 UNK         0.0800 
@<TRIPOS>BOND
     1    1    2 1    
     2    1  127 1    
     3    1  128 1    
     4    1  129 1    
     5    2    3 2    
     6    2    4 am   BACKBONE|DICT|INTERRES
     7    4    5 1    
     8    4  130 1    
     9    5    6 1    
    10    5   65 1    
    11    5  131 1    
    12    6    7 1    
    13    6  132 1    
    14    6  133 1    
    15    7    8 1    
    16    8    9 1    
    17    8  134 1    
    18    8  135 1    
    19    9   10 ar   
    20    9   14 ar   
    21   10   11 ar   
    22   10  136 1    
    23   11   12 ar   
    24   11  126 1    
    25   12   13 ar   
    26   12  137 1    
    27   13   14 ar   
    28   13   15 1    
    29   14  138 1    
    30   15   16 1    
    31   15  139 1    
    32   15  140 1    
    33   16   17 1    
    34   17   18 1    
    35   17  141 1    
    36   17  142 1    
    37   18   19 1    
    38   18   67 1    
    39   18  143 1    
    40   19   20 am   BACKBONE|DICT|INTERRES
    41   19  144 1    
    42   20   21 2    
    43   20   22 1    
    44   22   23 1    
    45   22   24 1    
    46   22  145 1    
    47   23  146 1    
    48   23  147 1    
    49   23  148 1    
    50   24   25 am   BACKBONE|DICT|INTERRES
    51   24  149 1    
    52   25   26 2    
    53   25   27 1    
    54   27   28 1    
    55   27   29 1    
    56   27  150 1    
    57   28  151 1    
    58   28  152 1    
    59   28  153 1    
    60   29   30 am   BACKBONE|DICT|INTERRES
    61   29  154 1    
    62   30   31 2    
    63   30   32 1    
    64   32   33 1    
    65   32   34 1    
    66   32  155 1    
    67   33  156 1    
    68   33  157 1    
    69   33  158 1    
    70   34   35 am   BACKBONE|DICT|INTERRES
    71   34  159 1    
    72   35   36 2    
    73   35   37 1    
    74   37   38 1    
    75   37   39 1    
    76   37  160 1    
    77   38  161 1    
    78   38  162 1    
    79   38  163 1    
    80   39   40 am   BACKBONE|DICT|INTERRES
    81   39  164 1    
    82   40   41 2    
    83   40   42 1    
    84   42   43 1    
    85   42   44 1    
    86   42  165 1    
    87   43  166 1    
    88   43  167 1    
    89   43  168 1    
    90   44   45 am   BACKBONE|DICT|INTERRES
    91   44  169 1    
    92   45   46 2    
    93   45   47 1    
    94   47   48 1    
    95   47   49 1    
    96   47  170 1    
    97   48  171 1    
    98   48  172 1    
    99   48  173 1    
   100   49   50 am   BACKBONE|DICT|INTERRES
   101   49  174 1    
   102   50   51 2    
   103   50   52 1    
   104   52   53 1    
   105   52   54 1    
   106   52  175 1    
   107   53  176 1    
   108   53  177 1    
   109   53  178 1    
   110   54   55 am   BACKBONE|DICT|INTERRES
   111   54  179 1    
   112   55   56 2    
   113   55   57 1    
   114   57   58 1    
   115   57   59 1    
   116   57  180 1    
   117   58  181 1    
   118   58  182 1    
   119   58  183 1    
   120   59   60 am   BACKBONE|DICT|INTERRES
   121   59  184 1    
   122   60   61 2    
   123   60   62 1    
   124   62   63 1    
   125   62   64 1    
   126   62  185 1    
   127   63  186 1    
   128   63  187 1    
   129   63  188 1    
   130   64   65 am   BACKBONE|DICT|INTERRES
   131   64  189 1    
   132   65   66 2    
   133   67   68 2    
   134   67   69 am   BACKBONE|DICT|INTERRES
   135   69   70 1    
   136   69  190 1    
   137   70   71 1    
   138   70   72 1    
   139   70  191 1    
   140   71  192 1    
   141   71  193 1    
   142   71  194 1    
   143   72   73 2    
   144   72   74 am   BACKBONE|DICT|INTERRES
   145   74   75 1    
   146   74  195 1    
   147   75   76 1    
   148   75   77 1    
   149   75  196 1    
   150   76  197 1    
   151   76  198 1    
   152   76  199 1    
   153   77   78 2    
   154   77   79 am   BACKBONE|DICT|INTERRES
   155   79   80 1    
   156   79  200 1    
   157   80   81 1    
   158   80   82 1    
   159   80  201 1    
   160   81  202 1    
   161   81  203 1    
   162   81  204 1    
   163   82   83 2    
   164   82   84 am   BACKBONE|DICT|INTERRES
   165   84   85 1    
   166   84  205 1    
   167   85   86 1    
   168   85   87 1    
   169   85  206 1    
   170   86  207 1    
   171   86  208 1    
   172   86  209 1    
   173   87   88 2    
   174   87   89 am   BACKBONE|DICT|INTERRES
   175   89   90 1    
   176   89  210 1    
   177   90   91 1    
   178   90   92 1    
   179   90  211 1    
   180   91  212 1    
   181   91  213 1    
   182   91  214 1    
   183   92   93 2    
   184   92   94 am   BACKBONE|DICT|INTERRES
   185   94   95 1    
   186   94  215 1    
   187   95   96 1    
   188   95   97 1    
   189   95  216 1    
   190   96  217 1    
   191   96  218 1    
   192   96  219 1    
   193   97   98 2    
   194   97   99 am   BACKBONE|DICT|INTERRES
   195   99  100 1    
   196   99  220 1    
   197  100  101 1    
   198  100  102 1    
   199  100  221 1    
   200  101  222 1    
   201  101  223 1    
   202  101  224 1    
   203  102  103 2    
   204  102  104 am   BACKBONE|DICT|INTERRES
   205  104  105 1    
   206  104  225 1    
   207  105  106 1    
   208  105  107 1    
   209  105  226 1    
   210  106  227 1    
   211  106  228 1    
   212  106  229 1    
   213  107  108 2    
   214  107  109 am   BACKBONE|DICT|INTERRES
   215  109  110 1    
   216  109  230 1    
   217  110  111 1    
   218  110  112 1    
   219  110  231 1    
   220  111  232 1    
   221  111  233 1    
   222  111  234 1    
   223  112  113 2    
   224  112  114 am   BACKBONE|DICT|INTERRES
   225  114  115 1    
   226  114  235 1    
   227  115  116 1    
   228  115  117 1    
   229  115  236 1    
   230  116  237 1    
   231  116  238 1    
   232  116  239 1    
   233  117  118 2    
   234  117  119 am   BACKBONE|DICT|INTERRES
   235  119  120 1    
   236  119  240 1    
   237  120  121 1    
   238  120  124 1    
   239  120  241 1    
   240  121  122 am   BACKBONE|DICT|INTERRES
   241  121  123 2    
   242  122  242 1    
   243  122  243 1    
   244  124  125 1    
   245  124  244 1    
   246  124  245 1    
   247  125  126 1    
   248  126  246 1    
   249  126  247 1    
@<TRIPOS>SUBSTRUCTURE
     1 UNK         1 GROUP             0       ****    0 ROOT    
