@<TRIPOS>MOLECULE
3R540
247   249    1
SMALL
USER_CHARGES


@<TRIPOS>ATOM
      1 CA          6.1996  -17.5883  -47.9584 C.3       0 UNK        -0.1800 
      2 C           5.4635  -16.2562  -47.9495 C.2       0 UNK         0.5000 
      3 O           6.0931  -15.2137  -48.1261 O.2       0 UNK        -0.5000 
      4 N           4.1385  -16.2909  -47.7403 N.am      1 UNK        -0.5000 
      5 CA          3.2409  -15.1269  -47.6551 C.3       1 UNK         0.1400 
      6 C6          3.1092  -14.3395  -48.9926 C.3       23 UNK        -0.0398 
      7 S7          2.1548  -15.2597  -50.2454 S.3       23 UNK        -0.2404 
      8 C8          3.4362  -16.0106  -51.2982 C.3       23 UNK        -0.0205 
      9 C9          3.0914  -17.4676  -51.5587 C.ar      23 UNK        -0.0193 
     10 C10         2.3169  -17.8401  -52.6620 C.ar      23 UNK        -0.1150 
     11 C11         1.9304  -19.1742  -52.8354 C.ar      23 UNK        -0.0193 
     12 C12         2.3188  -20.1324  -51.8950 C.ar      23 UNK        -0.1150 
     13 C13         3.0895  -19.7704  -50.7887 C.ar      23 UNK        -0.0193 
     14 C14         3.4993  -18.4422  -50.6482 C.ar      23 UNK        -0.1150 
     15 C15         3.4265  -20.8080  -49.7252 C.3       23 UNK        -0.0205 
     16 S16         3.1833  -20.2014  -48.0192 S.3       23 UNK        -0.2404 
     17 C17         1.4724  -19.5583  -48.0506 C.3       23 UNK        -0.0398 
     18 CA          0.4617  -20.5618  -47.4515 C.3       11 UNK         0.1400 
     19 N          -0.5711  -19.9017  -46.6529 N.am      11 UNK        -0.5000 
     20 C          -1.3687  -20.5462  -45.7912 C.2       10 UNK         0.5000 
     21 O          -1.3263  -21.7604  -45.5958 O.2       10 UNK        -0.5000 
     22 CA         -2.4100  -19.6960  -45.0485 C.3       10 UNK         0.1400 
     23 CB         -1.7610  -18.9440  -43.8787 C.3       10 UNK        -0.1800 
     24 N          -3.0843  -18.7535  -45.9396 N.am      10 UNK        -0.5000 
     25 C          -3.8959  -19.1230  -46.9393 C.2       9 UNK         0.5000 
     26 O          -4.2082  -20.2893  -47.1836 O.2       9 UNK        -0.5000 
     27 CA         -4.3957  -18.0030  -47.8610 C.3       9 UNK         0.1400 
     28 CB         -5.6135  -17.2833  -47.2638 C.3       9 UNK        -0.1800 
     29 N          -3.3421  -17.0406  -48.1827 N.am      9 UNK        -0.5000 
     30 C          -2.3154  -17.3212  -48.9981 C.2       8 UNK         0.5000 
     31 O          -2.1687  -18.4082  -49.5507 O.2       8 UNK        -0.5000 
     32 CA         -1.2591  -16.2291  -49.2260 C.3       8 UNK         0.1400 
     33 CB         -1.6587  -15.3420  -50.4145 C.3       8 UNK        -0.1800 
     34 N          -1.0215  -15.3824  -48.0599 N.am      8 UNK        -0.5000 
     35 C          -0.5713  -15.8022  -46.8712 C.2       7 UNK         0.5000 
     36 O          -0.3208  -16.9804  -46.6105 O.2       7 UNK        -0.5000 
     37 CA         -0.3679  -14.7259  -45.7850 C.3       7 UNK         0.1400 
     38 CB         -0.5355  -13.2769  -46.2890 C.3       7 UNK        -0.1800 
     39 N          -1.1975  -14.9227  -44.5954 N.am      7 UNK        -0.5000 
     40 C          -2.4890  -15.2728  -44.5088 C.2       6 UNK         0.5000 
     41 O          -3.1829  -15.5738  -45.4819 O.2       6 UNK        -0.5000 
     42 CA         -3.1045  -15.3023  -43.0874 C.3       6 UNK         0.1400 
     43 CB         -4.4598  -16.0337  -43.0500 C.3       6 UNK        -0.1800 
     44 N          -2.2177  -15.8863  -42.0712 N.am      6 UNK        -0.5000 
     45 C          -1.1418  -15.2891  -41.5428 C.2       5 UNK         0.5000 
     46 O          -0.7945  -14.1464  -41.8525 O.2       5 UNK        -0.5000 
     47 CA         -0.3038  -16.1057  -40.5423 C.3       5 UNK         0.1400 
     48 CB          0.0903  -17.4835  -41.1048 C.3       5 UNK        -0.1800 
     49 N           0.9132  -15.3599  -40.2427 N.am      5 UNK        -0.5000 
     50 C           1.4138  -15.1139  -39.0276 C.2       4 UNK         0.5000 
     51 O           0.9553  -15.5917  -37.9889 O.2       4 UNK        -0.5000 
     52 CA          2.6346  -14.1708  -38.9537 C.3       4 UNK         0.1400 
     53 CB          3.9194  -14.9750  -38.7001 C.3       4 UNK        -0.1800 
     54 N           2.8208  -13.3623  -40.1618 N.am      4 UNK        -0.5000 
     55 C           2.0208  -12.3625  -40.5601 C.2       3 UNK         0.5000 
     56 O           1.0814  -11.9386  -39.8860 O.2       3 UNK        -0.5000 
     57 CA          2.3116  -11.7305  -41.9387 C.3       3 UNK         0.1400 
     58 CB          2.7583  -10.2680  -41.7815 C.3       3 UNK        -0.1800 
     59 N           3.3237  -12.4465  -42.7244 N.am      3 UNK        -0.5000 
     60 C           3.1366  -13.6196  -43.3422 C.2       2 UNK         0.5000 
     61 O           2.0872  -14.2642  -43.2927 O.2       2 UNK        -0.5000 
     62 CA          4.3581  -14.1976  -44.0784 C.3       2 UNK         0.1400 
     63 CB          5.0881  -15.2088  -43.1806 C.3       2 UNK        -0.1800 
     64 N           3.9890  -14.8569  -45.3296 N.am      2 UNK        -0.5000 
     65 C           3.5753  -14.2268  -46.4385 C.2       1 UNK         0.5000 
     66 O           3.4606  -13.0025  -46.5159 O.2       1 UNK        -0.5000 
     67 C          -0.1344  -21.5047  -48.5182 C.2       11 UNK         0.5000 
     68 O           0.3947  -22.5986  -48.7083 O.2       11 UNK        -0.5000 
     69 N          -1.2519  -21.1080  -49.1489 N.am      12 UNK        -0.5000 
     70 CA         -2.0217  -21.9530  -50.0655 C.3       12 UNK         0.1400 
     71 CB         -3.1507  -21.1425  -50.7205 C.3       12 UNK        -0.1800 
     72 C          -2.5876  -23.2011  -49.3673 C.2       12 UNK         0.5000 
     73 O          -2.4482  -24.3028  -49.8970 O.2       12 UNK        -0.5000 
     74 N          -3.1604  -23.0175  -48.1685 N.am      13 UNK        -0.5000 
     75 CA         -3.6606  -24.1043  -47.3260 C.3       13 UNK         0.1400 
     76 CB         -4.4170  -23.5223  -46.1229 C.3       13 UNK        -0.1800 
     77 C          -2.5455  -25.0672  -46.8732 C.2       13 UNK         0.5000 
     78 O          -2.7375  -26.2819  -46.9305 O.2       13 UNK        -0.5000 
     79 N          -1.3839  -24.5189  -46.4861 N.am      14 UNK        -0.5000 
     80 CA         -0.1786  -25.2756  -46.1316 C.3       14 UNK         0.1400 
     81 CB          0.8741  -24.3224  -45.5466 C.3       14 UNK        -0.1800 
     82 C           0.4066  -26.0731  -47.3147 C.2       14 UNK         0.5000 
     83 O           0.8952  -27.1856  -47.1156 O.2       14 UNK        -0.5000 
     84 N           0.3068  -25.5121  -48.5271 N.am      15 UNK        -0.5000 
     85 CA          0.6712  -26.1491  -49.7952 C.3       15 UNK         0.1400 
     86 CB          0.9121  -25.0532  -50.8477 C.3       15 UNK        -0.1800 
     87 C          -0.3690  -27.1766  -50.2968 C.2       15 UNK         0.5000 
     88 O          -0.1386  -27.7980  -51.3351 O.2       15 UNK        -0.5000 
     89 N          -1.4829  -27.3382  -49.5663 N.am      16 UNK        -0.5000 
     90 CA         -2.6172  -28.2278  -49.8343 C.3       16 UNK         0.1400 
     91 CB         -2.1805  -29.7081  -49.8578 C.3       16 UNK        -0.1800 
     92 C          -3.4517  -27.8189  -51.0665 C.2       16 UNK         0.5000 
     93 O          -4.1190  -28.6661  -51.6640 O.2       16 UNK        -0.5000 
     94 N          -3.4342  -26.5240  -51.4034 N.am      17 UNK        -0.5000 
     95 CA         -4.3516  -25.8947  -52.3490 C.3       17 UNK         0.1400 
     96 CB         -3.6122  -24.7517  -53.0678 C.3       17 UNK        -0.1800 
     97 C          -5.5964  -25.3768  -51.6009 C.2       17 UNK         0.5000 
     98 O          -5.6748  -25.4701  -50.3718 O.2       17 UNK        -0.5000 
     99 N          -6.5590  -24.8360  -52.3575 N.am      18 UNK        -0.5000 
    100 CA        -7.7486  -24.1755  -51.8182 C.3       18 UNK         0.1400 
    101 CB        -8.7405  -23.9165  -52.9632 C.3       18 UNK        -0.1800 
    102 C         -7.3980  -22.8625  -51.0904 C.2       18 UNK         0.5000 
    103 O         -6.3779  -22.2371  -51.3936 O.2       18 UNK        -0.5000 
    104 N         -8.2645  -22.4555  -50.1546 N.am      19 UNK        -0.5000 
    105 CA        -8.1293  -21.2213  -49.3823 C.3       19 UNK         0.1400 
    106 CB        -9.2674  -21.1333  -48.3540 C.3       19 UNK        -0.1800 
    107 C         -8.1084  -19.9803  -50.2946 C.2       19 UNK         0.5000 
    108 O         -9.0594  -19.7596  -51.0470 O.2       19 UNK        -0.5000 
    109 N         -7.0066  -19.2239  -50.2153 N.am      20 UNK        -0.5000 
    110 CA        -6.7000  -18.0174  -50.9912 C.3       20 UNK         0.1400 
    111 CB        -7.7336  -16.9021  -50.7275 C.3       20 UNK        -0.1800 
    112 C         -6.4575  -18.2692  -52.4947 C.2       20 UNK         0.5000 
    113 O         -6.5226  -17.3188  -53.2763 O.2       20 UNK        -0.5000 
    114 N         -6.1140  -19.5098  -52.8835 N.am      21 UNK        -0.5000 
    115 CA        -5.7603  -19.8780  -54.2637 C.3       21 UNK         0.1400 
    116 CB        -5.5260  -21.3933  -54.3527 C.3       21 UNK        -0.1800 
    117 C         -4.5336  -19.1215  -54.8142 C.2       21 UNK         0.5000 
    118 O         -4.4622  -18.8665  -56.0169 O.2       21 UNK        -0.5000 
    119 N         -3.6141  -18.7547  -53.9147 N.am      22 UNK        -0.5000 
    120 CA        -2.4475  -17.9027  -54.1867 C.3       22 UNK         0.1400 
    121 C         -2.7614  -16.3755  -54.1881 C.2       22 UNK         0.5000 
    122 N         -3.9884  -15.9308  -53.9400 N.am      22 UNK        -0.7600 
    123 O         -1.8693  -15.5690  -54.4342 O.2       22 UNK        -0.5000 
    124 C124       -1.2789  -18.2419  -53.2274 C.3       23 UNK        -0.0398 
    125 S125       -0.6438  -19.9308  -53.5029 S.3       23 UNK        -0.2404 
    126 C126        1.0691  -19.5907  -54.0176 C.3       23 UNK        -0.0205 
    127 H127        5.5680  -18.4034  -47.6067 H         1 UNK         0.0600 
    128 H128        7.0746  -17.5384  -47.3103 H         1 UNK         0.0600 
    129 H129        6.5349  -17.8253  -48.9681 H         1 UNK         0.0600 
    130 H130        3.6925  -17.1873  -47.6071 H         1 UNK         0.3000 
    131 H131        2.2584  -15.5379  -47.4257 H         1 UNK         0.0600 
    132 H132        2.5618  -13.4081  -48.8403 H         1 UNK         0.0800 
    133 H133        4.0818  -14.0476  -49.3892 H         1 UNK         0.0800 
    134 H134        3.5050  -15.4585  -52.2365 H         1 UNK         0.0800 
    135 H135        4.4156  -15.9399  -50.8235 H         1 UNK         0.0800 
    136 H136        1.9953  -17.0878  -53.3684 H         1 UNK         0.1150 
    137 H137        1.9933  -21.1567  -52.0138 H         1 UNK         0.1150 
    138 H138        4.0906  -18.1548  -49.7940 H         1 UNK         0.1150 
    139 H139        2.8216  -21.7062  -49.8600 H         1 UNK         0.0800 
    140 H140        4.4663  -21.1128  -49.8473 H         1 UNK         0.0800 
    141 H141        1.1741  -19.2260  -49.0460 H         1 UNK         0.0800 
    142 H142        1.4985  -18.6509  -47.4476 H         1 UNK         0.0800 
    143 H143        1.0043  -21.1976  -46.7482 H         1 UNK         0.0600 
    144 H144       -0.6399  -18.8904  -46.7286 H         1 UNK         0.3000 
    145 H145       -3.1605  -20.3762  -44.6399 H         1 UNK         0.0600 
    146 H146       -1.1851  -19.6243  -43.2498 H         1 UNK         0.0600 
    147 H147       -1.0835  -18.1611  -44.2213 H         1 UNK         0.0600 
    148 H148       -2.5175  -18.4869  -43.2446 H         1 UNK         0.0600 
    149 H149       -2.8650  -17.7705  -45.8356 H         1 UNK         0.3000 
    150 H150       -4.7067  -18.4792  -48.7896 H         1 UNK         0.0600 
    151 H151       -5.9842  -16.5109  -47.9376 H         1 UNK         0.0600 
    152 H152       -5.3794  -16.8107  -46.3098 H         1 UNK         0.0600 
    153 H153       -6.4319  -17.9830  -47.0895 H         1 UNK         0.0600 
    154 H154       -3.3570  -16.1583  -47.6863 H         1 UNK         0.3000 
    155 H155       -0.3218  -16.7332  -49.4692 H         1 UNK         0.0600 
    156 H156       -1.8182  -15.9371  -51.3128 H         1 UNK         0.0600 
    157 H157       -0.8799  -14.6152  -50.6459 H         1 UNK         0.0600 
    158 H158       -2.5812  -14.7946  -50.2174 H         1 UNK         0.0600 
    159 H159       -1.2185  -14.3993  -48.1751 H         1 UNK         0.3000 
    160 H160        0.6641  -14.8392  -45.4541 H         1 UNK         0.0600 
    161 H161        0.1218  -13.0690  -47.1346 H         1 UNK         0.0600 
    162 H162       -0.2731  -12.5653  -45.5057 H         1 UNK         0.0600 
    163 H163       -1.5617  -13.0661  -46.5927 H         1 UNK         0.0600 
    164 H164       -0.7419  -14.6885  -43.7184 H         1 UNK         0.3000 
    165 H165       -3.2919  -14.2620  -42.8136 H         1 UNK         0.0600 
    166 H166       -4.8871  -16.0241  -42.0471 H         1 UNK         0.0600 
    167 H167       -5.1822  -15.5513  -43.7098 H         1 UNK         0.0600 
    168 H168       -4.3725  -17.0721  -43.3692 H         1 UNK         0.0600 
    169 H169       -2.4400  -16.8261  -41.7787 H         1 UNK         0.3000 
    170 H170       -0.9034  -16.2382  -39.6396 H         1 UNK         0.0600 
    171 H171        0.7805  -17.9980  -40.4360 H         1 UNK         0.0600 
    172 H172       -0.7803  -18.1289  -41.2181 H         1 UNK         0.0600 
    173 H173        0.5733  -17.3977  -42.0795 H         1 UNK         0.0600 
    174 H174        1.3028  -14.8603  -41.0330 H         1 UNK         0.3000 
    175 H175        2.4777  -13.4958  -38.1099 H         1 UNK         0.0600 
    176 H176        4.1333  -15.6606  -39.5211 H         1 UNK         0.0600 
    177 H177        4.7799  -14.3169  -38.5780 H         1 UNK         0.0600 
    178 H178        3.8356  -15.5696  -37.7894 H         1 UNK         0.0600 
    179 H179        3.5781  -13.6307  -40.7714 H         1 UNK         0.3000 
    180 H180        1.3738  -11.7431  -42.4986 H         1 UNK         0.0600 
    181 H181        2.8977   -9.7913  -42.7520 H         1 UNK         0.0600 
    182 H182        3.6962  -10.1911  -41.2302 H         1 UNK         0.0600 
    183 H183        2.0113   -9.6850  -41.2410 H         1 UNK         0.0600 
    184 H184        4.2238  -11.9943  -42.8000 H         1 UNK         0.3000 
    185 H185        5.0479  -13.3844  -44.3151 H         1 UNK         0.0600 
    186 H186        4.4460  -16.0504  -42.9165 H         1 UNK         0.0600 
    187 H187        5.9755  -15.6059  -43.6741 H         1 UNK         0.0600 
    188 H188        5.4172  -14.7430  -42.2509 H         1 UNK         0.0600 
    189 H189        4.0390  -15.8645  -45.3379 H         1 UNK         0.3000 
    190 H190       -1.6090  -20.1690  -48.9997 H         1 UNK         0.3000 
    191 H191       -1.3463  -22.2886  -50.8553 H         1 UNK         0.0600 
    192 H192       -3.8386  -20.7334  -49.9804 H         1 UNK         0.0600 
    193 H193       -3.7324  -21.7646  -51.4001 H         1 UNK         0.0600 
    194 H194       -2.7523  -20.3151  -51.3052 H         1 UNK         0.0600 
    195 H195       -3.2574  -22.0761  -47.8047 H         1 UNK         0.3000 
    196 H196       -4.3707  -24.6813  -47.9225 H         1 UNK         0.0600 
    197 H197       -4.8193  -24.3169  -45.4935 H         1 UNK         0.0600 
    198 H198       -5.2565  -22.9071  -46.4474 H         1 UNK         0.0600 
    199 H199       -3.7718  -22.9034  -45.4994 H         1 UNK         0.0600 
    200 H200       -1.3244  -23.5069  -46.4102 H         1 UNK         0.3000 
    201 H201       -0.4552  -25.9919  -45.3554 H         1 UNK         0.0600 
    202 H202        0.4861  -23.7893  -44.6785 H         1 UNK         0.0600 
    203 H203        1.1971  -23.5820  -46.2782 H         1 UNK         0.0600 
    204 H204        1.7597  -24.8708  -45.2233 H         1 UNK         0.0600 
    205 H205       -0.0439  -24.5613  -48.5918 H         1 UNK         0.3000 
    206 H206        1.6094  -26.6885  -49.6514 H         1 UNK         0.0600 
    207 H207        1.6814  -24.3537  -50.5201 H         1 UNK         0.0600 
    208 H208        1.2461  -25.4812  -51.7935 H         1 UNK         0.0600 
    209 H209        0.0055  -24.4824  -51.0485 H         1 UNK         0.0600 
    210 H210       -1.5885  -26.7573  -48.7436 H         1 UNK         0.3000 
    211 H211       -3.2863  -28.1068  -48.9815 H         1 UNK         0.0600 
    212 H212       -1.5801  -29.9420  -50.7372 H         1 UNK         0.0600 
    213 H213       -3.0468  -30.3702  -49.8716 H         1 UNK         0.0600 
    214 H214       -1.5956  -29.9608  -48.9734 H         1 UNK         0.0600 
    215 H215       -2.9226  -25.8760  -50.8083 H         1 UNK         0.3000 
    216 H216       -4.6764  -26.6216  -53.0960 H         1 UNK         0.0600 
    217 H217       -4.2234  -24.3223  -53.8619 H         1 UNK         0.0600 
    218 H218       -2.6902  -25.1073  -53.5280 H         1 UNK         0.0600 
    219 H219       -3.3526  -23.9441  -52.3843 H         1 UNK         0.0600 
    220 H220       -6.4211  -24.7685  -53.3546 H         1 UNK         0.3000 
    221 H221       -8.2173  -24.8521  -51.1004 H         1 UNK         0.0600 
    222 H222       -8.3220  -23.2569  -53.7230 H         1 UNK         0.0600 
    223 H223       -9.0307  -24.8473  -53.4509 H         1 UNK         0.0600 
    224 H224       -9.6534  -23.4483  -52.5927 H         1 UNK         0.0600 
    225 H225       -9.0959  -23.0019  -49.9840 H         1 UNK         0.3000 
    226 H226       -7.1853  -21.2780  -48.8351 H         1 UNK         0.0600 
    227 H227       -9.2452  -21.9792  -47.6666 H         1 UNK         0.0600 
    228 H228       -9.1811  -20.2260  -47.7547 H         1 UNK         0.0600 
    229 H229      -10.2459  -21.1167  -48.8358 H         1 UNK         0.0600 
    230 H230       -6.2753  -19.5379  -49.5949 H         1 UNK         0.3000 
    231 H231       -5.7448  -17.6508  -50.6164 H         1 UNK         0.0600 
    232 H232       -8.7014  -17.1301  -51.1744 H         1 UNK         0.0600 
    233 H233       -7.8850  -16.7471  -49.6594 H         1 UNK         0.0600 
    234 H234       -7.3995  -15.9521  -51.1464 H         1 UNK         0.0600 
    235 H235       -6.1084  -20.2613  -52.2022 H         1 UNK         0.3000 
    236 H236       -6.6107  -19.6267  -54.9007 H         1 UNK         0.0600 
    237 H237       -4.7268  -21.7171  -53.6853 H         1 UNK         0.0600 
    238 H238       -6.4269  -21.9450  -54.0913 H         1 UNK         0.0600 
    239 H239       -5.2495  -21.6904  -55.3651 H         1 UNK         0.0600 
    240 H240       -3.7586  -19.0175  -52.9523 H         1 UNK         0.3000 
    241 H241       -2.1037  -18.1174  -55.2004 H         1 UNK         0.0600 
    242 H242       -4.1576  -14.9379  -53.9588 H         1 UNK         0.3800 
    243 H243       -4.7657  -16.5606  -53.7745 H         1 UNK         0.3800 
    244 H244       -0.4616  -17.5298  -53.3452 H         1 UNK         0.0800 
    245 H245       -1.5976  -18.1617  -52.1881 H         1 UNK         0.0800 
    246 H246        1.0779  -18.8294  -54.7992 H         1 UNK         0.0800 
    247 H247        1.4879  -20.4930  -54.4655 H         1 UNK         0.0800 
@<TRIPOS>BOND
     1    1    2 1    
     2    1  127 1    
     3    1  128 1    
     4    1  129 1    
     5    2    3 2    
     6    2    4 am   BACKBONE|DICT|INTERRES
     7    4    5 1    
     8    4  130 1    
     9    5    6 1    
    10    5   65 1    
    11    5  131 1    
    12    6    7 1    
    13    6  132 1    
    14    6  133 1    
    15    7    8 1    
    16    8    9 1    
    17    8  134 1    
    18    8  135 1    
    19    9   10 ar   
    20    9   14 ar   
    21   10   11 ar   
    22   10  136 1    
    23   11   12 ar   
    24   11  126 1    
    25   12   13 ar   
    26   12  137 1    
    27   13   14 ar   
    28   13   15 1    
    29   14  138 1    
    30   15   16 1    
    31   15  139 1    
    32   15  140 1    
    33   16   17 1    
    34   17   18 1    
    35   17  141 1    
    36   17  142 1    
    37   18   19 1    
    38   18   67 1    
    39   18  143 1    
    40   19   20 am   BACKBONE|DICT|INTERRES
    41   19  144 1    
    42   20   21 2    
    43   20   22 1    
    44   22   23 1    
    45   22   24 1    
    46   22  145 1    
    47   23  146 1    
    48   23  147 1    
    49   23  148 1    
    50   24   25 am   BACKBONE|DICT|INTERRES
    51   24  149 1    
    52   25   26 2    
    53   25   27 1    
    54   27   28 1    
    55   27   29 1    
    56   27  150 1    
    57   28  151 1    
    58   28  152 1    
    59   28  153 1    
    60   29   30 am   BACKBONE|DICT|INTERRES
    61   29  154 1    
    62   30   31 2    
    63   30   32 1    
    64   32   33 1    
    65   32   34 1    
    66   32  155 1    
    67   33  156 1    
    68   33  157 1    
    69   33  158 1    
    70   34   35 am   BACKBONE|DICT|INTERRES
    71   34  159 1    
    72   35   36 2    
    73   35   37 1    
    74   37   38 1    
    75   37   39 1    
    76   37  160 1    
    77   38  161 1    
    78   38  162 1    
    79   38  163 1    
    80   39   40 am   BACKBONE|DICT|INTERRES
    81   39  164 1    
    82   40   41 2    
    83   40   42 1    
    84   42   43 1    
    85   42   44 1    
    86   42  165 1    
    87   43  166 1    
    88   43  167 1    
    89   43  168 1    
    90   44   45 am   BACKBONE|DICT|INTERRES
    91   44  169 1    
    92   45   46 2    
    93   45   47 1    
    94   47   48 1    
    95   47   49 1    
    96   47  170 1    
    97   48  171 1    
    98   48  172 1    
    99   48  173 1    
   100   49   50 am   BACKBONE|DICT|INTERRES
   101   49  174 1    
   102   50   51 2    
   103   50   52 1    
   104   52   53 1    
   105   52   54 1    
   106   52  175 1    
   107   53  176 1    
   108   53  177 1    
   109   53  178 1    
   110   54   55 am   BACKBONE|DICT|INTERRES
   111   54  179 1    
   112   55   56 2    
   113   55   57 1    
   114   57   58 1    
   115   57   59 1    
   116   57  180 1    
   117   58  181 1    
   118   58  182 1    
   119   58  183 1    
   120   59   60 am   BACKBONE|DICT|INTERRES
   121   59  184 1    
   122   60   61 2    
   123   60   62 1    
   124   62   63 1    
   125   62   64 1    
   126   62  185 1    
   127   63  186 1    
   128   63  187 1    
   129   63  188 1    
   130   64   65 am   BACKBONE|DICT|INTERRES
   131   64  189 1    
   132   65   66 2    
   133   67   68 2    
   134   67   69 am   BACKBONE|DICT|INTERRES
   135   69   70 1    
   136   69  190 1    
   137   70   71 1    
   138   70   72 1    
   139   70  191 1    
   140   71  192 1    
   141   71  193 1    
   142   71  194 1    
   143   72   73 2    
   144   72   74 am   BACKBONE|DICT|INTERRES
   145   74   75 1    
   146   74  195 1    
   147   75   76 1    
   148   75   77 1    
   149   75  196 1    
   150   76  197 1    
   151   76  198 1    
   152   76  199 1    
   153   77   78 2    
   154   77   79 am   BACKBONE|DICT|INTERRES
   155   79   80 1    
   156   79  200 1    
   157   80   81 1    
   158   80   82 1    
   159   80  201 1    
   160   81  202 1    
   161   81  203 1    
   162   81  204 1    
   163   82   83 2    
   164   82   84 am   BACKBONE|DICT|INTERRES
   165   84   85 1    
   166   84  205 1    
   167   85   86 1    
   168   85   87 1    
   169   85  206 1    
   170   86  207 1    
   171   86  208 1    
   172   86  209 1    
   173   87   88 2    
   174   87   89 am   BACKBONE|DICT|INTERRES
   175   89   90 1    
   176   89  210 1    
   177   90   91 1    
   178   90   92 1    
   179   90  211 1    
   180   91  212 1    
   181   91  213 1    
   182   91  214 1    
   183   92   93 2    
   184   92   94 am   BACKBONE|DICT|INTERRES
   185   94   95 1    
   186   94  215 1    
   187   95   96 1    
   188   95   97 1    
   189   95  216 1    
   190   96  217 1    
   191   96  218 1    
   192   96  219 1    
   193   97   98 2    
   194   97   99 am   BACKBONE|DICT|INTERRES
   195   99  100 1    
   196   99  220 1    
   197  100  101 1    
   198  100  102 1    
   199  100  221 1    
   200  101  222 1    
   201  101  223 1    
   202  101  224 1    
   203  102  103 2    
   204  102  104 am   BACKBONE|DICT|INTERRES
   205  104  105 1    
   206  104  225 1    
   207  105  106 1    
   208  105  107 1    
   209  105  226 1    
   210  106  227 1    
   211  106  228 1    
   212  106  229 1    
   213  107  108 2    
   214  107  109 am   BACKBONE|DICT|INTERRES
   215  109  110 1    
   216  109  230 1    
   217  110  111 1    
   218  110  112 1    
   219  110  231 1    
   220  111  232 1    
   221  111  233 1    
   222  111  234 1    
   223  112  113 2    
   224  112  114 am   BACKBONE|DICT|INTERRES
   225  114  115 1    
   226  114  235 1    
   227  115  116 1    
   228  115  117 1    
   229  115  236 1    
   230  116  237 1    
   231  116  238 1    
   232  116  239 1    
   233  117  118 2    
   234  117  119 am   BACKBONE|DICT|INTERRES
   235  119  120 1    
   236  119  240 1    
   237  120  121 1    
   238  120  124 1    
   239  120  241 1    
   240  121  122 am   BACKBONE|DICT|INTERRES
   241  121  123 2    
   242  122  242 1    
   243  122  243 1    
   244  124  125 1    
   245  124  244 1    
   246  124  245 1    
   247  125  126 1    
   248  126  246 1    
   249  126  247 1    
@<TRIPOS>SUBSTRUCTURE
     1 UNK         1 GROUP             0       ****    0 ROOT    
