@<TRIPOS>MOLECULE
3R540
247   249    1
SMALL
USER_CHARGES


@<TRIPOS>ATOM
      1 CA         -2.9084  -18.4981  -45.4289 C.3       0 UNK        -0.1800 
      2 C          -2.3477  -17.1356  -45.0542 C.2       0 UNK         0.5000 
      3 O          -2.8849  -16.4690  -44.1683 O.2       0 UNK        -0.5000 
      4 N          -1.2674  -16.7181  -45.7247 N.am      1 UNK        -0.5000 
      5 CA         -0.5806  -15.4333  -45.5425 C.3       1 UNK         0.1400 
      6 C6          0.2470  -15.0511  -46.7942 C.3       23 UNK        -0.0398 
      7 S7         -0.8045  -14.6662  -48.2322 S.3       23 UNK        -0.2404 
      8 C8          0.2841  -15.1192  -49.6183 C.3       23 UNK        -0.0205 
      9 C9         -0.0362  -16.5063  -50.1521 C.ar      23 UNK        -0.0193 
     10 C10        -1.0355  -16.6663  -51.1147 C.ar      23 UNK        -0.1150 
     11 C11        -1.3216  -17.9279  -51.6409 C.ar      23 UNK        -0.0193 
     12 C12        -0.6185  -19.0438  -51.1736 C.ar      23 UNK        -0.1150 
     13 C13         0.3924  -18.8976  -50.2170 C.ar      23 UNK        -0.0193 
     14 C14         0.6800  -17.6234  -49.7154 C.ar      23 UNK        -0.1150 
     15 C15         1.2078  -20.1077  -49.7708 C.3       23 UNK        -0.0205 
     16 S16         1.2516  -20.3223  -47.9603 S.3       23 UNK        -0.2404 
     17 C17        -0.4801  -20.7489  -47.5971 C.3       23 UNK        -0.0398 
     18 CA         -0.6426  -22.2054  -47.1065 C.3       11 UNK         0.1400 
     19 N           0.0688  -22.4534  -45.8490 N.am      11 UNK        -0.5000 
     20 C           0.2216  -23.6608  -45.2838 C.2       10 UNK         0.5000 
     21 O          -0.1887  -24.7045  -45.7878 O.2       10 UNK        -0.5000 
     22 CA          0.8817  -23.7097  -43.8917 C.3       10 UNK         0.1400 
     23 CB          2.4007  -23.8877  -44.0274 C.3       10 UNK        -0.1800 
     24 N           0.6112  -22.5259  -43.0758 N.am      10 UNK        -0.5000 
     25 C          -0.5991  -22.0322  -42.7751 C.2       9 UNK         0.5000 
     26 O          -1.6538  -22.5913  -43.0779 O.2       9 UNK        -0.5000 
     27 CA         -0.6398  -20.6569  -42.0772 C.3       9 UNK         0.1400 
     28 CB         -1.0612  -20.8099  -40.6086 C.3       9 UNK        -0.1800 
     29 N           0.6306  -19.9234  -42.1368 N.am      9 UNK        -0.5000 
     30 C           1.2118  -19.4632  -43.2535 C.2       8 UNK         0.5000 
     31 O           0.7259  -19.5891  -44.3821 O.2       8 UNK        -0.5000 
     32 CA          2.5917  -18.8152  -43.0694 C.3       8 UNK         0.1400 
     33 CB          3.6223  -19.8370  -42.5482 C.3       8 UNK        -0.1800 
     34 N           3.0418  -18.2763  -44.3453 N.am      8 UNK        -0.5000 
     35 C           3.9532  -17.3115  -44.5055 C.2       7 UNK         0.5000 
     36 O           4.5404  -16.7664  -43.5687 O.2       7 UNK        -0.5000 
     37 CA          4.2701  -16.8674  -45.9428 C.3       7 UNK         0.1400 
     38 CB          3.5230  -17.6530  -47.0387 C.3       7 UNK        -0.1800 
     39 N           3.9764  -15.4437  -46.0536 N.am      7 UNK        -0.5000 
     40 C           4.6344  -14.5793  -46.8370 C.2       6 UNK         0.5000 
     41 O           5.5249  -14.9122  -47.6203 O.2       6 UNK        -0.5000 
     42 CA          4.2520  -13.0895  -46.7295 C.3       6 UNK         0.1400 
     43 CB          3.3663  -12.6629  -47.9107 C.3       6 UNK        -0.1800 
     44 N           3.5674  -12.7763  -45.4759 N.am      6 UNK        -0.5000 
     45 C           4.1634  -12.6218  -44.2898 C.2       5 UNK         0.5000 
     46 O           5.3880  -12.6176  -44.1501 O.2       5 UNK        -0.5000 
     47 CA          3.2389  -12.4591  -43.0605 C.3       5 UNK         0.1400 
     48 CB          4.0273  -12.2124  -41.7611 C.3       5 UNK        -0.1800 
     49 N           2.2097  -11.4193  -43.1762 N.am      5 UNK        -0.5000 
     50 C           1.1416  -11.4246  -43.9835 C.2       4 UNK         0.5000 
     51 O           0.9444  -12.2507  -44.8743 O.2       4 UNK        -0.5000 
     52 CA          0.0362  -10.4181  -43.6451 C.3       4 UNK         0.1400 
     53 CB         -0.7345   -9.9522  -44.8927 C.3       4 UNK        -0.1800 
     54 N          -0.8709  -11.1364  -42.7596 N.am      4 UNK        -0.5000 
     55 C          -0.8053  -11.1176  -41.4239 C.2       3 UNK         0.5000 
     56 O          -0.1522  -10.3003  -40.7741 O.2       3 UNK        -0.5000 
     57 CA         -1.5418  -12.2622  -40.7087 C.3       3 UNK         0.1400 
     58 CB         -3.0652  -12.0663  -40.7648 C.3       3 UNK        -0.1800 
     59 N          -1.1911  -13.5695  -41.2753 N.am      3 UNK        -0.5000 
     60 C           0.0036  -14.1659  -41.1284 C.2       2 UNK         0.5000 
     61 O           0.9450  -13.6705  -40.5101 O.2       2 UNK        -0.5000 
     62 CA          0.1717  -15.5555  -41.7643 C.3       2 UNK         0.1400 
     63 CB         -0.5107  -16.6189  -40.8898 C.3       2 UNK        -0.1800 
     64 N          -0.4033  -15.6033  -43.1057 N.am      2 UNK        -0.5000 
     65 C           0.2671  -15.4175  -44.2489 C.2       1 UNK         0.5000 
     66 O           1.4872  -15.2549  -44.3085 O.2       1 UNK        -0.5000 
     67 C          -2.1409  -22.5580  -47.0104 C.2       11 UNK         0.5000 
     68 O          -2.7059  -23.0406  -47.9915 O.2       11 UNK        -0.5000 
     69 N          -2.7604  -22.3241  -45.8450 N.am      12 UNK        -0.5000 
     70 CA         -4.1515  -22.6903  -45.5824 C.3       12 UNK         0.1400 
     71 CB         -4.7143  -21.8415  -44.4326 C.3       12 UNK        -0.1800 
     72 C          -4.2851  -24.1905  -45.2799 C.2       12 UNK         0.5000 
     73 O          -5.2185  -24.8225  -45.7730 O.2       12 UNK        -0.5000 
     74 N          -3.3309  -24.7405  -44.5142 N.am      13 UNK        -0.5000 
     75 CA         -3.2674  -26.1595  -44.1515 C.3       13 UNK         0.1400 
     76 CB         -2.1533  -26.3749  -43.1169 C.3       13 UNK        -0.1800 
     77 C          -3.0694  -27.0862  -45.3672 C.2       13 UNK         0.5000 
     78 O          -3.7173  -28.1300  -45.4495 O.2       13 UNK        -0.5000 
     79 N          -2.2056  -26.6707  -46.3035 N.am      14 UNK        -0.5000 
     80 CA         -1.9526  -27.3546  -47.5743 C.3       14 UNK         0.1400 
     81 CB         -0.5838  -26.9037  -48.1099 C.3       14 UNK        -0.1800 
     82 C          -3.0431  -27.0997  -48.6349 C.2       14 UNK         0.5000 
     83 O          -3.0310  -27.7600  -49.6741 O.2       14 UNK        -0.5000 
     84 N          -3.9356  -26.1318  -48.3744 N.am      15 UNK        -0.5000 
     85 CA         -4.9923  -25.6206  -49.2556 C.3       15 UNK         0.1400 
     86 CB         -6.0357  -26.7106  -49.5747 C.3       15 UNK        -0.1800 
     87 C          -4.4547  -24.9153  -50.5201 C.2       15 UNK         0.5000 
     88 O          -5.1838  -24.7696  -51.5015 O.2       15 UNK        -0.5000 
     89 N          -3.2032  -24.4409  -50.4605 N.am      16 UNK        -0.5000 
     90 CA         -2.5657  -23.6166  -51.4857 C.3       16 UNK         0.1400 
     91 CB         -1.0593  -23.5235  -51.2006 C.3       16 UNK        -0.1800 
     92 C          -3.1892  -22.2132  -51.5492 C.2       16 UNK         0.5000 
     93 O          -3.3380  -21.6651  -52.6379 O.2       16 UNK        -0.5000 
     94 N          -3.5923  -21.6825  -50.3852 N.am      17 UNK        -0.5000 
     95 CA         -4.2695  -20.3929  -50.2269 C.3       17 UNK         0.1400 
     96 CB         -4.4220  -20.0927  -48.7290 C.3       17 UNK        -0.1800 
     97 C          -5.6408  -20.3137  -50.9278 C.2       17 UNK         0.5000 
     98 O          -6.0894  -19.2149  -51.2546 O.2       17 UNK        -0.5000 
     99 N          -6.2818  -21.4716  -51.1390 N.am      18 UNK        -0.5000 
    100 CA        -7.5691  -21.5960  -51.8203 C.3       18 UNK         0.1400 
    101 CB        -8.2439  -22.9023  -51.3726 C.3       18 UNK        -0.1800 
    102 C         -7.4485  -21.5475  -53.3561 C.2       18 UNK         0.5000 
    103 O         -8.4505  -21.2845  -54.0230 O.2       18 UNK        -0.5000 
    104 N         -6.2505  -21.8070  -53.8990 N.am      19 UNK        -0.5000 
    105 CA        -5.9745  -21.7502  -55.3317 C.3       19 UNK         0.1400 
    106 CB        -4.7842  -22.6668  -55.6582 C.3       19 UNK        -0.1800 
    107 C         -5.6722  -20.3046  -55.7525 C.2       19 UNK         0.5000 
    108 O         -4.8770  -19.6345  -55.0925 O.2       19 UNK        -0.5000 
    109 N         -6.2636  -19.8630  -56.8700 N.am      20 UNK        -0.5000 
    110 CA        -6.0543  -18.5277  -57.4428 C.3       20 UNK         0.1400 
    111 CB        -7.0908  -18.2855  -58.5506 C.3       20 UNK        -0.1800 
    112 C         -4.6254  -18.3153  -57.9822 C.2       20 UNK         0.5000 
    113 O         -4.1215  -17.1924  -57.9522 O.2       20 UNK        -0.5000 
    114 N         -3.9969  -19.4046  -58.4445 N.am      21 UNK        -0.5000 
    115 CA        -2.6015  -19.4460  -58.8855 C.3       21 UNK         0.1400 
    116 CB        -2.4528  -20.5734  -59.9202 C.3       21 UNK        -0.1800 
    117 C         -1.6091  -19.6488  -57.7208 C.2       21 UNK         0.5000 
    118 O         -0.4023  -19.5359  -57.9381 O.2       21 UNK        -0.5000 
    119 N         -2.1233  -19.9645  -56.5234 N.am      22 UNK        -0.5000 
    120 CA        -1.3751  -20.2343  -55.2828 C.3       22 UNK         0.1400 
    121 C         -0.4913  -21.5194  -55.3030 C.2       22 UNK         0.5000 
    122 N         -0.6870  -22.4431  -56.2364 N.am      22 UNK        -0.7600 
    123 O          0.3647  -21.7050  -54.4426 O.2       22 UNK        -0.5000 
    124 C124       -0.6208  -18.9878  -54.7407 C.3       23 UNK        -0.0398 
    125 S125       -1.7451  -17.5971  -54.3689 S.3       23 UNK        -0.2404 
    126 C126       -2.3790  -18.0701  -52.7265 C.3       23 UNK        -0.0205 
    127 H127       -3.9854  -18.5223  -45.2637 H         1 UNK         0.0600 
    128 H128       -2.4467  -19.2784  -44.8240 H         1 UNK         0.0600 
    129 H129       -2.7284  -18.7156  -46.4801 H         1 UNK         0.0600 
    130 H130       -0.8653  -17.3217  -46.4265 H         1 UNK         0.3000 
    131 H131       -1.3386  -14.6581  -45.4094 H         1 UNK         0.0600 
    132 H132        0.8467  -14.1632  -46.6007 H         1 UNK         0.0800 
    133 H133        0.9475  -15.8461  -47.0474 H         1 UNK         0.0800 
    134 H134        0.1542  -14.3855  -50.4152 H         1 UNK         0.0800 
    135 H135        1.3318  -15.0532  -49.3209 H         1 UNK         0.0800 
    136 H136       -1.5802  -15.8028  -51.4704 H         1 UNK         0.1150 
    137 H137       -0.8380  -20.0211  -51.5806 H         1 UNK         0.1150 
    138 H138        1.4698  -17.5011  -48.9912 H         1 UNK         0.1150 
    139 H139        0.8306  -21.0239  -50.2275 H         1 UNK         0.0800 
    140 H140        2.2302  -19.9856  -50.1302 H         1 UNK         0.0800 
    141 H141       -1.0835  -20.5714  -48.4891 H         1 UNK         0.0800 
    142 H142       -0.8370  -20.0510  -46.8399 H         1 UNK         0.0800 
    143 H143       -0.2103  -22.8674  -47.8597 H         1 UNK         0.0600 
    144 H144        0.4342  -21.6370  -45.3739 H         1 UNK         0.3000 
    145 H145        0.4804  -24.5731  -43.3600 H         1 UNK         0.0600 
    146 H146        2.8740  -24.0046  -43.0523 H         1 UNK         0.0600 
    147 H147        2.6386  -24.7780  -44.6113 H         1 UNK         0.0600 
    148 H148        2.8630  -23.0346  -44.5260 H         1 UNK         0.0600 
    149 H149        1.4162  -21.9978  -42.7762 H         1 UNK         0.3000 
    150 H150       -1.3960  -20.0588  -42.5895 H         1 UNK         0.0600 
    151 H151       -0.3307  -21.3847  -40.0381 H         1 UNK         0.0600 
    152 H152       -2.0195  -21.3252  -40.5283 H         1 UNK         0.0600 
    153 H153       -1.1763  -19.8387  -40.1270 H         1 UNK         0.0600 
    154 H154        1.1036  -19.7926  -41.2541 H         1 UNK         0.3000 
    155 H155        2.4835  -17.9986  -42.3526 H         1 UNK         0.0600 
    156 H156        3.7399  -20.6741  -43.2376 H         1 UNK         0.0600 
    157 H157        3.3304  -20.2445  -41.5800 H         1 UNK         0.0600 
    158 H158        4.6022  -19.3784  -42.4145 H         1 UNK         0.0600 
    159 H159        2.5431  -18.6422  -45.1472 H         1 UNK         0.3000 
    160 H160        5.3419  -17.0242  -46.0803 H         1 UNK         0.0600 
    161 H161        2.4428  -17.5913  -46.9140 H         1 UNK         0.0600 
    162 H162        3.8003  -18.7076  -47.0213 H         1 UNK         0.0600 
    163 H163        3.7675  -17.2764  -48.0319 H         1 UNK         0.0600 
    164 H164        3.2752  -15.0978  -45.4057 H         1 UNK         0.3000 
    165 H165        5.1759  -12.5091  -46.7766 H         1 UNK         0.0600 
    166 H166        3.1199  -11.6024  -47.8559 H         1 UNK         0.0600 
    167 H167        3.8776  -12.8287  -48.8598 H         1 UNK         0.0600 
    168 H168        2.4325  -13.2218  -47.9430 H         1 UNK         0.0600 
    169 H169        2.5498  -12.7341  -45.4915 H         1 UNK         0.3000 
    170 H170        2.7224  -13.4122  -42.9397 H         1 UNK         0.0600 
    171 H171        4.7521  -13.0081  -41.5835 H         1 UNK         0.0600 
    172 H172        4.5728  -11.2687  -41.7950 H         1 UNK         0.0600 
    173 H173        3.3641  -12.1871  -40.8961 H         1 UNK         0.0600 
    174 H174        2.2532  -10.6989  -42.4696 H         1 UNK         0.3000 
    175 H175        0.4686   -9.5441  -43.1534 H         1 UNK         0.0600 
    176 H176       -0.0673   -9.4544  -45.5972 H         1 UNK         0.0600 
    177 H177       -1.2071  -10.7832  -45.4182 H         1 UNK         0.0600 
    178 H178       -1.5163   -9.2411  -44.6256 H         1 UNK         0.0600 
    179 H179       -1.4041  -11.8755  -43.1936 H         1 UNK         0.3000 
    180 H180       -1.2386  -12.2507  -39.6594 H         1 UNK         0.0600 
    181 H181       -3.4444  -12.1066  -41.7866 H         1 UNK         0.0600 
    182 H182       -3.3491  -11.0995  -40.3471 H         1 UNK         0.0600 
    183 H183       -3.5812  -12.8327  -40.1862 H         1 UNK         0.0600 
    184 H184       -1.9138  -14.0492  -41.7903 H         1 UNK         0.3000 
    185 H185        1.2388  -15.7839  -41.8114 H         1 UNK         0.0600 
    186 H186       -0.0521  -16.6653  -39.9013 H         1 UNK         0.0600 
    187 H187       -1.5726  -16.4117  -40.7510 H         1 UNK         0.0600 
    188 H188       -0.4282  -17.6071  -41.3354 H         1 UNK         0.0600 
    189 H189       -1.3979  -15.7984  -43.1819 H         1 UNK         0.3000 
    190 H190       -2.2208  -22.0063  -45.0504 H         1 UNK         0.3000 
    191 H191       -4.7475  -22.4777  -46.4723 H         1 UNK         0.0600 
    192 H192       -4.6737  -20.7797  -44.6711 H         1 UNK         0.0600 
    193 H193       -5.7595  -22.0896  -44.2439 H         1 UNK         0.0600 
    194 H194       -4.1700  -21.9982  -43.5015 H         1 UNK         0.0600 
    195 H195       -2.6174  -24.1342  -44.1256 H         1 UNK         0.3000 
    196 H196       -4.2189  -26.4217  -43.6842 H         1 UNK         0.0600 
    197 H197       -2.1622  -27.4004  -42.7458 H         1 UNK         0.0600 
    198 H198       -2.2750  -25.7154  -42.2573 H         1 UNK         0.0600 
    199 H199       -1.1682  -26.1933  -43.5452 H         1 UNK         0.0600 
    200 H200       -1.6525  -25.8352  -46.1260 H         1 UNK         0.3000 
    201 H201       -1.9124  -28.4307  -47.3938 H         1 UNK         0.0600 
    202 H202       -0.3283  -27.4295  -49.0307 H         1 UNK         0.0600 
    203 H203        0.2085  -27.1082  -47.3895 H         1 UNK         0.0600 
    204 H204       -0.5702  -25.8347  -48.3276 H         1 UNK         0.0600 
    205 H205       -3.8667  -25.6678  -47.4786 H         1 UNK         0.3000 
    206 H206       -5.5008  -24.8443  -48.6822 H         1 UNK         0.0600 
    207 H207       -6.3992  -27.1860  -48.6637 H         1 UNK         0.0600 
    208 H208       -6.9011  -26.2854  -50.0846 H         1 UNK         0.0600 
    209 H209       -5.6278  -27.4880  -50.2210 H         1 UNK         0.0600 
    210 H210       -2.7159  -24.5198  -49.5777 H         1 UNK         0.3000 
    211 H211       -2.7077  -24.0963  -52.4565 H         1 UNK         0.0600 
    212 H212       -0.8585  -23.0477  -50.2406 H         1 UNK         0.0600 
    213 H213       -0.5534  -22.9374  -51.9693 H         1 UNK         0.0600 
    214 H214       -0.5984  -24.5113  -51.1887 H         1 UNK         0.0600 
    215 H215       -3.4162  -22.2123  -49.5358 H         1 UNK         0.3000 
    216 H216       -3.6310  -19.6237  -50.6608 H         1 UNK         0.0600 
    217 H217       -4.8782  -19.1150  -48.5690 H         1 UNK         0.0600 
    218 H218       -3.4548  -20.0829  -48.2308 H         1 UNK         0.0600 
    219 H219       -5.0492  -20.8338  -48.2331 H         1 UNK         0.0600 
    220 H220       -5.8305  -22.3320  -50.8645 H         1 UNK         0.3000 
    221 H221       -8.2093  -20.7655  -51.5149 H         1 UNK         0.0600 
    222 H222       -7.6712  -23.7781  -51.6783 H         1 UNK         0.0600 
    223 H223       -8.3603  -22.9373  -50.2892 H         1 UNK         0.0600 
    224 H224       -9.2393  -22.9955  -51.8087 H         1 UNK         0.0600 
    225 H225       -5.4471  -21.9216  -53.2937 H         1 UNK         0.3000 
    226 H226       -6.8440  -22.1149  -55.8830 H         1 UNK         0.0600 
    227 H227       -4.5847  -22.6813  -56.7303 H         1 UNK         0.0600 
    228 H228       -3.8706  -22.3406  -55.1606 H         1 UNK         0.0600 
    229 H229       -4.9820  -23.6936  -55.3501 H         1 UNK         0.0600 
    230 H230       -6.9070  -20.4678  -57.3606 H         1 UNK         0.3000 
    231 H231       -6.2201  -17.7913  -56.6534 H         1 UNK         0.0600 
    232 H232       -6.9897  -19.0069  -59.3624 H         1 UNK         0.0600 
    233 H233       -6.9768  -17.2895  -58.9808 H         1 UNK         0.0600 
    234 H234       -8.1071  -18.3555  -58.1624 H         1 UNK         0.0600 
    235 H235       -4.4991  -20.2800  -58.4486 H         1 UNK         0.3000 
    236 H236       -2.3480  -18.5016  -59.3718 H         1 UNK         0.0600 
    237 H237       -3.1123  -20.4141  -60.7736 H         1 UNK         0.0600 
    238 H238       -1.4333  -20.6208  -60.3052 H         1 UNK         0.0600 
    239 H239       -2.6875  -21.5484  -59.4915 H         1 UNK         0.0600 
    240 H240       -3.1286  -19.9669  -56.4174 H         1 UNK         0.3000 
    241 H241       -2.1459  -20.4745  -54.5541 H         1 UNK         0.0600 
    242 H242       -1.3848  -22.3141  -56.9500 H         1 UNK         0.3800 
    243 H243       -0.1169  -23.2741  -56.2357 H         1 UNK         0.3800 
    244 H244       -0.0571  -19.2272  -53.8399 H         1 UNK         0.0800 
    245 H245        0.1206  -18.6474  -55.4640 H         1 UNK         0.0800 
    246 H246       -3.2349  -17.4383  -52.4847 H         1 UNK         0.0800 
    247 H247       -2.7626  -19.0888  -52.7684 H         1 UNK         0.0800 
@<TRIPOS>BOND
     1    1    2 1    
     2    1  127 1    
     3    1  128 1    
     4    1  129 1    
     5    2    3 2    
     6    2    4 am   BACKBONE|DICT|INTERRES
     7    4    5 1    
     8    4  130 1    
     9    5    6 1    
    10    5   65 1    
    11    5  131 1    
    12    6    7 1    
    13    6  132 1    
    14    6  133 1    
    15    7    8 1    
    16    8    9 1    
    17    8  134 1    
    18    8  135 1    
    19    9   10 ar   
    20    9   14 ar   
    21   10   11 ar   
    22   10  136 1    
    23   11   12 ar   
    24   11  126 1    
    25   12   13 ar   
    26   12  137 1    
    27   13   14 ar   
    28   13   15 1    
    29   14  138 1    
    30   15   16 1    
    31   15  139 1    
    32   15  140 1    
    33   16   17 1    
    34   17   18 1    
    35   17  141 1    
    36   17  142 1    
    37   18   19 1    
    38   18   67 1    
    39   18  143 1    
    40   19   20 am   BACKBONE|DICT|INTERRES
    41   19  144 1    
    42   20   21 2    
    43   20   22 1    
    44   22   23 1    
    45   22   24 1    
    46   22  145 1    
    47   23  146 1    
    48   23  147 1    
    49   23  148 1    
    50   24   25 am   BACKBONE|DICT|INTERRES
    51   24  149 1    
    52   25   26 2    
    53   25   27 1    
    54   27   28 1    
    55   27   29 1    
    56   27  150 1    
    57   28  151 1    
    58   28  152 1    
    59   28  153 1    
    60   29   30 am   BACKBONE|DICT|INTERRES
    61   29  154 1    
    62   30   31 2    
    63   30   32 1    
    64   32   33 1    
    65   32   34 1    
    66   32  155 1    
    67   33  156 1    
    68   33  157 1    
    69   33  158 1    
    70   34   35 am   BACKBONE|DICT|INTERRES
    71   34  159 1    
    72   35   36 2    
    73   35   37 1    
    74   37   38 1    
    75   37   39 1    
    76   37  160 1    
    77   38  161 1    
    78   38  162 1    
    79   38  163 1    
    80   39   40 am   BACKBONE|DICT|INTERRES
    81   39  164 1    
    82   40   41 2    
    83   40   42 1    
    84   42   43 1    
    85   42   44 1    
    86   42  165 1    
    87   43  166 1    
    88   43  167 1    
    89   43  168 1    
    90   44   45 am   BACKBONE|DICT|INTERRES
    91   44  169 1    
    92   45   46 2    
    93   45   47 1    
    94   47   48 1    
    95   47   49 1    
    96   47  170 1    
    97   48  171 1    
    98   48  172 1    
    99   48  173 1    
   100   49   50 am   BACKBONE|DICT|INTERRES
   101   49  174 1    
   102   50   51 2    
   103   50   52 1    
   104   52   53 1    
   105   52   54 1    
   106   52  175 1    
   107   53  176 1    
   108   53  177 1    
   109   53  178 1    
   110   54   55 am   BACKBONE|DICT|INTERRES
   111   54  179 1    
   112   55   56 2    
   113   55   57 1    
   114   57   58 1    
   115   57   59 1    
   116   57  180 1    
   117   58  181 1    
   118   58  182 1    
   119   58  183 1    
   120   59   60 am   BACKBONE|DICT|INTERRES
   121   59  184 1    
   122   60   61 2    
   123   60   62 1    
   124   62   63 1    
   125   62   64 1    
   126   62  185 1    
   127   63  186 1    
   128   63  187 1    
   129   63  188 1    
   130   64   65 am   BACKBONE|DICT|INTERRES
   131   64  189 1    
   132   65   66 2    
   133   67   68 2    
   134   67   69 am   BACKBONE|DICT|INTERRES
   135   69   70 1    
   136   69  190 1    
   137   70   71 1    
   138   70   72 1    
   139   70  191 1    
   140   71  192 1    
   141   71  193 1    
   142   71  194 1    
   143   72   73 2    
   144   72   74 am   BACKBONE|DICT|INTERRES
   145   74   75 1    
   146   74  195 1    
   147   75   76 1    
   148   75   77 1    
   149   75  196 1    
   150   76  197 1    
   151   76  198 1    
   152   76  199 1    
   153   77   78 2    
   154   77   79 am   BACKBONE|DICT|INTERRES
   155   79   80 1    
   156   79  200 1    
   157   80   81 1    
   158   80   82 1    
   159   80  201 1    
   160   81  202 1    
   161   81  203 1    
   162   81  204 1    
   163   82   83 2    
   164   82   84 am   BACKBONE|DICT|INTERRES
   165   84   85 1    
   166   84  205 1    
   167   85   86 1    
   168   85   87 1    
   169   85  206 1    
   170   86  207 1    
   171   86  208 1    
   172   86  209 1    
   173   87   88 2    
   174   87   89 am   BACKBONE|DICT|INTERRES
   175   89   90 1    
   176   89  210 1    
   177   90   91 1    
   178   90   92 1    
   179   90  211 1    
   180   91  212 1    
   181   91  213 1    
   182   91  214 1    
   183   92   93 2    
   184   92   94 am   BACKBONE|DICT|INTERRES
   185   94   95 1    
   186   94  215 1    
   187   95   96 1    
   188   95   97 1    
   189   95  216 1    
   190   96  217 1    
   191   96  218 1    
   192   96  219 1    
   193   97   98 2    
   194   97   99 am   BACKBONE|DICT|INTERRES
   195   99  100 1    
   196   99  220 1    
   197  100  101 1    
   198  100  102 1    
   199  100  221 1    
   200  101  222 1    
   201  101  223 1    
   202  101  224 1    
   203  102  103 2    
   204  102  104 am   BACKBONE|DICT|INTERRES
   205  104  105 1    
   206  104  225 1    
   207  105  106 1    
   208  105  107 1    
   209  105  226 1    
   210  106  227 1    
   211  106  228 1    
   212  106  229 1    
   213  107  108 2    
   214  107  109 am   BACKBONE|DICT|INTERRES
   215  109  110 1    
   216  109  230 1    
   217  110  111 1    
   218  110  112 1    
   219  110  231 1    
   220  111  232 1    
   221  111  233 1    
   222  111  234 1    
   223  112  113 2    
   224  112  114 am   BACKBONE|DICT|INTERRES
   225  114  115 1    
   226  114  235 1    
   227  115  116 1    
   228  115  117 1    
   229  115  236 1    
   230  116  237 1    
   231  116  238 1    
   232  116  239 1    
   233  117  118 2    
   234  117  119 am   BACKBONE|DICT|INTERRES
   235  119  120 1    
   236  119  240 1    
   237  120  121 1    
   238  120  124 1    
   239  120  241 1    
   240  121  122 am   BACKBONE|DICT|INTERRES
   241  121  123 2    
   242  122  242 1    
   243  122  243 1    
   244  124  125 1    
   245  124  244 1    
   246  124  245 1    
   247  125  126 1    
   248  126  246 1    
   249  126  247 1    
@<TRIPOS>SUBSTRUCTURE
     1 UNK         1 GROUP             0       ****    0 ROOT    
