@<TRIPOS>MOLECULE
3R540
247   249    1
SMALL
USER_CHARGES


@<TRIPOS>ATOM
      1 CA          2.7326  -15.4268  -48.0630 C.3       0 UNK        -0.1800 
      2 C           1.7793  -14.4373  -47.4150 C.2       0 UNK         0.5000 
      3 O           2.2058  -13.6214  -46.5974 O.2       0 UNK        -0.5000 
      4 N           0.4945  -14.4777  -47.7957 N.am      1 UNK        -0.5000 
      5 CA         -0.5776  -13.6404  -47.2339 C.3       1 UNK         0.1400 
      6 C6         -1.9913  -14.1066  -47.6547 C.3       23 UNK        -0.0398 
      7 S7         -2.4286  -15.7049  -46.8939 S.3       23 UNK        -0.2404 
      8 C8         -2.6478  -16.7619  -48.3565 C.3       23 UNK        -0.0205 
      9 C9         -1.3290  -17.0369  -49.0597 C.ar      23 UNK        -0.0193 
     10 C10        -1.0417  -16.4447  -50.2921 C.ar      23 UNK        -0.1150 
     11 C11         0.1580  -16.7282  -50.9613 C.ar      23 UNK        -0.0193 
     12 C12         1.0648  -17.6142  -50.3718 C.ar      23 UNK        -0.1150 
     13 C13         0.7950  -18.2010  -49.1333 C.ar      23 UNK        -0.0193 
     14 C14        -0.3999  -17.8990  -48.4775 C.ar      23 UNK        -0.1150 
     15 C15         1.7910  -19.1670  -48.5101 C.3       23 UNK        -0.0205 
     16 S16         1.6765  -20.8198  -49.2613 S.3       23 UNK        -0.2404 
     17 C17        -0.0196  -21.3063  -48.7993 C.3       23 UNK        -0.0398 
     18 CA         -0.0845  -22.6852  -48.1149 C.3       11 UNK         0.1400 
     19 N           0.7128  -22.7245  -46.8873 N.am      11 UNK        -0.5000 
     20 C           1.0892  -23.8490  -46.2690 C.2       10 UNK         0.5000 
     21 O           0.7810  -24.9766  -46.6530 O.2       10 UNK        -0.5000 
     22 CA          1.9092  -23.6739  -44.9796 C.3       10 UNK         0.1400 
     23 CB          3.3961  -23.4772  -45.3091 C.3       10 UNK        -0.1800 
     24 N           1.4514  -22.5658  -44.1362 N.am      10 UNK        -0.5000 
     25 C           0.2319  -22.4469  -43.6000 C.2       9 UNK         0.5000 
     26 O          -0.6936  -23.2158  -43.8592 O.2       9 UNK        -0.5000 
     27 CA         -0.0090  -21.2983  -42.6012 C.3       9 UNK         0.1400 
     28 CB          0.5407  -21.6690  -41.2121 C.3       9 UNK        -0.1800 
     29 N           0.4536  -19.9611  -42.9970 N.am      9 UNK        -0.5000 
     30 C           1.6970  -19.5155  -43.2427 C.2       8 UNK         0.5000 
     31 O           2.6893  -20.2388  -43.3361 O.2       8 UNK        -0.5000 
     32 CA          1.8688  -17.9844  -43.3579 C.3       8 UNK         0.1400 
     33 CB          1.6884  -17.5301  -44.8151 C.3       8 UNK        -0.1800 
     34 N           0.9475  -17.2318  -42.5011 N.am      8 UNK        -0.5000 
     35 C           0.8522  -17.3519  -41.1673 C.2       7 UNK         0.5000 
     36 O           1.6373  -18.0118  -40.4854 O.2       7 UNK        -0.5000 
     37 CA         -0.3324  -16.6537  -40.4683 C.3       7 UNK         0.1400 
     38 CB          0.1319  -15.3792  -39.7463 C.3       7 UNK        -0.1800 
     39 N          -1.4544  -16.3103  -41.3436 N.am      7 UNK        -0.5000 
     40 C          -2.1955  -17.1404  -42.0885 C.2       6 UNK         0.5000 
     41 O          -2.0048  -18.3560  -42.1471 O.2       6 UNK        -0.5000 
     42 CA         -3.3121  -16.5076  -42.9477 C.3       6 UNK         0.1400 
     43 CB         -4.6448  -16.4534  -42.1781 C.3       6 UNK        -0.1800 
     44 N          -2.9656  -15.2003  -43.5281 N.am      6 UNK        -0.5000 
     45 C          -2.7458  -14.0303  -42.9105 C.2       5 UNK         0.5000 
     46 O          -2.8742  -13.8493  -41.6982 O.2       5 UNK        -0.5000 
     47 CA         -2.1915  -12.8934  -43.7881 C.3       5 UNK         0.1400 
     48 CB         -3.0233  -11.6115  -43.6294 C.3       5 UNK        -0.1800 
     49 N          -0.7867  -12.5933  -43.4860 N.am      5 UNK        -0.5000 
     50 C           0.2268  -13.4713  -43.4501 C.2       4 UNK         0.5000 
     51 O           0.1119  -14.6673  -43.7232 O.2       4 UNK        -0.5000 
     52 CA          1.6027  -12.8922  -43.0935 C.3       4 UNK         0.1400 
     53 CB          2.6373  -13.9789  -42.7445 C.3       4 UNK        -0.1800 
     54 N           2.0993  -12.1282  -44.2325 N.am      4 UNK        -0.5000 
     55 C           2.5983  -10.8878  -44.1784 C.2       3 UNK         0.5000 
     56 O           2.6169  -10.2038  -43.1544 O.2       3 UNK        -0.5000 
     57 CA          3.1839  -10.3095  -45.4778 C.3       3 UNK         0.1400 
     58 CB          4.6180  -10.8209  -45.6893 C.3       3 UNK        -0.1800 
     59 N           2.3768  -10.6654  -46.6451 N.am      3 UNK        -0.5000 
     60 C           1.7360   -9.7897  -47.4334 C.2       2 UNK         0.5000 
     61 O           1.7651   -8.5696  -47.2672 O.2       2 UNK        -0.5000 
     62 CA          0.9223  -10.3625  -48.6148 C.3       2 UNK         0.1400 
     63 CB          1.7417  -10.2976  -49.9128 C.3       2 UNK        -0.1800 
     64 N           0.4864  -11.7426  -48.4016 N.am      2 UNK        -0.5000 
     65 C          -0.4040  -12.1251  -47.4767 C.2       1 UNK         0.5000 
     66 O          -1.0530  -11.3318  -46.7947 O.2       1 UNK        -0.5000 
     67 C          -1.5560  -23.0779  -47.8738 C.2       11 UNK         0.5000 
     68 O          -2.1967  -23.5980  -48.7880 O.2       11 UNK        -0.5000 
     69 N          -2.0592  -22.8215  -46.6569 N.am      12 UNK        -0.5000 
     70 CA         -3.3867  -23.2345  -46.2073 C.3       12 UNK         0.1400 
     71 CB         -3.8317  -22.3710  -45.0169 C.3       12 UNK        -0.1800 
     72 C          -3.4001  -24.7305  -45.8537 C.2       12 UNK         0.5000 
     73 O          -4.3251  -25.4390  -46.2499 O.2       12 UNK        -0.5000 
     74 N          -2.3456  -25.1902  -45.1627 N.am      13 UNK        -0.5000 
     75 CA         -2.1128  -26.5912  -44.8040 C.3       13 UNK         0.1400 
     76 CB         -0.8735  -26.6883  -43.9022 C.3       13 UNK        -0.1800 
     77 C          -1.9736  -27.5163  -46.0285 C.2       13 UNK         0.5000 
     78 O          -2.4351  -28.6572  -45.9816 O.2       13 UNK        -0.5000 
     79 N          -1.4067  -26.9938  -47.1250 N.am      14 UNK        -0.5000 
     80 CA         -1.3124  -27.6268  -48.4442 C.3       14 UNK         0.1400 
     81 CB         -0.2104  -26.9137  -49.2494 C.3       14 UNK        -0.1800 
     82 C          -2.6644  -27.6542  -49.1980 C.2       14 UNK         0.5000 
     83 O          -2.7318  -27.2563  -50.3627 O.2       14 UNK        -0.5000 
     84 N          -3.7288  -28.0944  -48.5093 N.am      15 UNK        -0.5000 
     85 CA         -5.1187  -28.2342  -48.9695 C.3       15 UNK         0.1400 
     86 CB         -5.2224  -29.4053  -49.9682 C.3       15 UNK        -0.1800 
     87 C          -5.7366  -26.9324  -49.5306 C.2       15 UNK         0.5000 
     88 O          -6.6417  -26.9927  -50.3642 O.2       15 UNK        -0.5000 
     89 N          -5.2041  -25.7822  -49.0918 N.am      16 UNK        -0.5000 
     90 CA         -5.4556  -24.4219  -49.5783 C.3       16 UNK         0.1400 
     91 CB         -6.8976  -23.9826  -49.2561 C.3       16 UNK        -0.1800 
     92 C          -5.0902  -24.1865  -51.0608 C.2       16 UNK         0.5000 
     93 O          -5.4431  -23.1382  -51.6002 O.2       16 UNK        -0.5000 
     94 N          -4.3850  -25.1301  -51.7025 N.am      17 UNK        -0.5000 
     95 CA         -4.0904  -25.1079  -53.1352 C.3       17 UNK         0.1400 
     96 CB         -3.5470  -26.4767  -53.5714 C.3       17 UNK        -0.1800 
     97 C          -3.1189  -23.9821  -53.5160 C.2       17 UNK         0.5000 
     98 O          -3.3739  -23.2518  -54.4729 O.2       17 UNK        -0.5000 
     99 N          -2.0463  -23.8320  -52.7288 N.am      18 UNK        -0.5000 
    100 CA        -1.0504  -22.7741  -52.9005 C.3       18 UNK         0.1400 
    101 CB         0.1973  -23.1180  -52.0769 C.3       18 UNK        -0.1800 
    102 C         -1.5972  -21.3811  -52.5359 C.2       18 UNK         0.5000 
    103 O         -1.1881  -20.3921  -53.1432 O.2       18 UNK        -0.5000 
    104 N         -2.5334  -21.3324  -51.5766 N.am      19 UNK        -0.5000 
    105 CA        -3.2359  -20.1138  -51.1779 C.3       19 UNK         0.1400 
    106 CB        -3.9385  -20.3383  -49.8297 C.3       19 UNK        -0.1800 
    107 C         -4.2271  -19.6509  -52.2614 C.2       19 UNK         0.5000 
    108 O         -4.2733  -18.4613  -52.5700 O.2       19 UNK        -0.5000 
    109 N         -4.9674  -20.5993  -52.8536 N.am      20 UNK        -0.5000 
    110 CA        -5.8884  -20.3650  -53.9684 C.3       20 UNK         0.1400 
    111 CB        -6.7461  -21.6196  -54.1921 C.3       20 UNK        -0.1800 
    112 C         -5.1719  -19.9609  -55.2713 C.2       20 UNK         0.5000 
    113 O         -5.7144  -19.1657  -56.0389 O.2       20 UNK        -0.5000 
    114 N         -3.9643  -20.4994  -55.4908 N.am      21 UNK        -0.5000 
    115 CA        -3.0996  -20.1858  -56.6310 C.3       21 UNK         0.1400 
    116 CB        -2.0173  -21.2703  -56.7495 C.3       21 UNK        -0.1800 
    117 C         -2.4518  -18.7867  -56.5613 C.2       21 UNK         0.5000 
    118 O         -1.9416  -18.3152  -57.5788 O.2       21 UNK        -0.5000 
    119 N         -2.4624  -18.1569  -55.3793 N.am      22 UNK        -0.5000 
    120 CA        -1.9520  -16.8020  -55.1327 C.3       22 UNK         0.1400 
    121 C         -2.7319  -15.7141  -55.9270 C.2       22 UNK         0.5000 
    122 N         -2.0390  -14.7820  -56.5674 N.am      22 UNK        -0.7600 
    123 O         -3.9606  -15.6894  -55.9391 O.2       22 UNK        -0.5000 
    124 C124       -1.9418  -16.4971  -53.6144 C.3       23 UNK        -0.0398 
    125 S125       -0.7764  -15.1663  -53.1624 S.3       23 UNK        -0.2404 
    126 C126        0.5352  -16.1087  -52.3098 C.3       23 UNK        -0.0205 
    127 H127        2.4987  -15.5597  -49.1185 H         1 UNK         0.0600 
    128 H128        2.6696  -16.3923  -47.5627 H         1 UNK         0.0600 
    129 H129        3.7602  -15.0707  -47.9901 H         1 UNK         0.0600 
    130 H130        0.1975  -15.1814  -48.4587 H         1 UNK         0.3000 
    131 H131       -0.5038  -13.7630  -46.1561 H         1 UNK         0.0600 
    132 H132       -2.0735  -14.1568  -48.7411 H         1 UNK         0.0800 
    133 H133       -2.7524  -13.3935  -47.3320 H         1 UNK         0.0800 
    134 H134       -3.3682  -16.3043  -49.0364 H         1 UNK         0.0800 
    135 H135       -3.0875  -17.7090  -48.0412 H         1 UNK         0.0800 
    136 H136       -1.7655  -15.7694  -50.7231 H         1 UNK         0.1150 
    137 H137        1.9905  -17.8496  -50.8785 H         1 UNK         0.1150 
    138 H138       -0.6177  -18.3404  -47.5152 H         1 UNK         0.1150 
    139 H139        2.8041  -18.7853  -48.6441 H         1 UNK         0.0800 
    140 H140        1.6325  -19.2467  -47.4342 H         1 UNK         0.0800 
    141 H141       -0.6166  -21.2932  -49.7090 H         1 UNK         0.0800 
    142 H142       -0.4605  -20.5596  -48.1412 H         1 UNK         0.0800 
    143 H143        0.3348  -23.4260  -48.7979 H         1 UNK         0.0600 
    144 H144        1.0212  -21.8406  -46.5111 H         1 UNK         0.3000 
    145 H145        1.8072  -24.5924  -44.3985 H         1 UNK         0.0600 
    146 H146        3.9997  -23.4474  -44.4018 H         1 UNK         0.0600 
    147 H147        3.7729  -24.2962  -45.9233 H         1 UNK         0.0600 
    148 H148        3.5678  -22.5490  -45.8558 H         1 UNK         0.0600 
    149 H149        2.1374  -21.8571  -43.8824 H         1 UNK         0.3000 
    150 H150       -1.0919  -21.2053  -42.5028 H         1 UNK         0.0600 
    151 H151        0.1348  -22.6227  -40.8719 H         1 UNK         0.0600 
    152 H152        0.2703  -20.9173  -40.4702 H         1 UNK         0.0600 
    153 H153        1.6275  -21.7583  -41.2157 H         1 UNK         0.0600 
    154 H154       -0.2720  -19.2543  -42.9376 H         1 UNK         0.3000 
    155 H155        2.8851  -17.7394  -43.0437 H         1 UNK         0.0600 
    156 H156        0.6812  -17.7334  -45.1814 H         1 UNK         0.0600 
    157 H157        2.3920  -18.0429  -45.4713 H         1 UNK         0.0600 
    158 H158        1.8702  -16.4609  -44.9218 H         1 UNK         0.0600 
    159 H159        0.3257  -16.5801  -42.9683 H         1 UNK         0.3000 
    160 H160       -0.7102  -17.3514  -39.7186 H         1 UNK         0.0600 
    161 H161        0.4286  -14.6031  -40.4514 H         1 UNK         0.0600 
    162 H162        0.9846  -15.5805  -39.0966 H         1 UNK         0.0600 
    163 H163       -0.6626  -14.9721  -39.1206 H         1 UNK         0.0600 
    164 H164       -1.7247  -15.3319  -41.3626 H         1 UNK         0.3000 
    165 H165       -3.4560  -17.1729  -43.8006 H         1 UNK         0.0600 
    166 H166       -4.5764  -15.8362  -41.2821 H         1 UNK         0.0600 
    167 H167       -5.4442  -16.0534  -42.8019 H         1 UNK         0.0600 
    168 H168       -4.9486  -17.4516  -41.8606 H         1 UNK         0.0600 
    169 H169       -2.7598  -15.2404  -44.5183 H         1 UNK         0.3000 
    170 H170       -2.2583  -13.1983  -44.8314 H         1 UNK         0.0600 
    171 H171       -2.9610  -11.2118  -42.6164 H         1 UNK         0.0600 
    172 H172       -2.6860  -10.8365  -44.3182 H         1 UNK         0.0600 
    173 H173       -4.0759  -11.8001  -43.8445 H         1 UNK         0.0600 
    174 H174       -0.5837  -11.6293  -43.2660 H         1 UNK         0.3000 
    175 H175        1.4693  -12.2542  -42.2175 H         1 UNK         0.0600 
    176 H176        2.8336  -14.6354  -43.5929 H         1 UNK         0.0600 
    177 H177        3.5858  -13.5337  -42.4441 H         1 UNK         0.0600 
    178 H178        2.2962  -14.6017  -41.9184 H         1 UNK         0.0600 
    179 H179        2.1203  -12.6376  -45.1146 H         1 UNK         0.3000 
    180 H180        3.2294   -9.2253  -45.3567 H         1 UNK         0.0600 
    181 H181        5.0719  -10.3635  -46.5685 H         1 UNK         0.0600 
    182 H182        4.6443  -11.9032  -45.8241 H         1 UNK         0.0600 
    183 H183        5.2501  -10.5796  -44.8337 H         1 UNK         0.0600 
    184 H184        2.2835  -11.6567  -46.8392 H         1 UNK         0.3000 
    185 H185        0.0341   -9.7391  -48.7375 H         1 UNK         0.0600 
    186 H186        1.1552  -10.6353  -50.7676 H         1 UNK         0.0600 
    187 H187        2.0607   -9.2758  -50.1226 H         1 UNK         0.0600 
    188 H188        2.6384  -10.9159  -49.8539 H         1 UNK         0.0600 
    189 H189        0.9739  -12.4593  -48.9189 H         1 UNK         0.3000 
    190 H190       -1.4460  -22.4408  -45.9502 H         1 UNK         0.3000 
    191 H191       -4.0996  -23.0657  -47.0143 H         1 UNK         0.0600 
    192 H192       -4.8458  -22.6299  -44.7102 H         1 UNK         0.0600 
    193 H193       -3.8318  -21.3123  -45.2769 H         1 UNK         0.0600 
    194 H194       -3.1869  -22.5020  -44.1483 H         1 UNK         0.0600 
    195 H195       -1.6559  -24.5204  -44.8321 H         1 UNK         0.3000 
    196 H196       -2.9782  -26.9310  -44.2317 H         1 UNK         0.0600 
    197 H197        0.0284  -26.3646  -44.4213 H         1 UNK         0.0600 
    198 H198       -0.9850  -26.0724  -43.0096 H         1 UNK         0.0600 
    199 H199       -0.7110  -27.7150  -43.5719 H         1 UNK         0.0600 
    200 H200       -1.0001  -26.0689  -47.0474 H         1 UNK         0.3000 
    201 H201       -1.0050  -28.6651  -48.3058 H         1 UNK         0.0600 
    202 H202       -0.4603  -25.8675  -49.4303 H         1 UNK         0.0600 
    203 H203       -0.0593  -27.3896  -50.2191 H         1 UNK         0.0600 
    204 H204        0.7441  -26.9430  -48.7236 H         1 UNK         0.0600 
    205 H205       -3.5549  -28.3814  -47.5505 H         1 UNK         0.3000 
    206 H206       -5.7076  -28.4927  -48.0885 H         1 UNK         0.0600 
    207 H207       -4.7967  -30.3180  -49.5513 H         1 UNK         0.0600 
    208 H208       -6.2621  -29.6203  -50.2178 H         1 UNK         0.0600 
    209 H209       -4.6997  -29.1865  -50.9001 H         1 UNK         0.0600 
    210 H210       -4.5070  -25.8505  -48.3597 H         1 UNK         0.3000 
    211 H211       -4.7888  -23.7735  -49.0156 H         1 UNK         0.0600 
    212 H212       -7.0441  -22.9245  -49.4764 H         1 UNK         0.0600 
    213 H213       -7.1256  -24.1263  -48.1999 H         1 UNK         0.0600 
    214 H214       -7.6312  -24.5407  -49.8383 H         1 UNK         0.0600 
    215 H215       -4.0559  -25.9372  -51.1825 H         1 UNK         0.3000 
    216 H216       -5.0278  -24.9318  -53.6673 H         1 UNK         0.0600 
    217 H217       -2.6078  -26.7175  -53.0720 H         1 UNK         0.0600 
    218 H218       -3.3629  -26.4986  -54.6462 H         1 UNK         0.0600 
    219 H219       -4.2577  -27.2720  -53.3457 H         1 UNK         0.0600 
    220 H220       -1.9241  -24.4645  -51.9507 H         1 UNK         0.3000 
    221 H221       -0.7589  -22.7438  -53.9524 H         1 UNK         0.0600 
    222 H222        0.6864  -24.0128  -52.4619 H         1 UNK         0.0600 
    223 H223       -0.0540  -23.3015  -51.0346 H         1 UNK         0.0600 
    224 H224        0.9281  -22.3085  -52.1069 H         1 UNK         0.0600 
    225 H225       -2.8298  -22.1961  -51.1456 H         1 UNK         0.3000 
    226 H226       -2.4962  -19.3211  -51.0420 H         1 UNK         0.0600 
    227 H227       -4.6737  -21.1414  -49.8826 H         1 UNK         0.0600 
    228 H228       -3.2217  -20.5909  -49.0484 H         1 UNK         0.0600 
    229 H229       -4.4615  -19.4363  -49.5102 H         1 UNK         0.0600 
    230 H230       -4.9251  -21.5519  -52.5005 H         1 UNK         0.3000 
    231 H231       -6.5525  -19.5445  -53.6887 H         1 UNK         0.0600 
    232 H232       -6.1323  -22.4868  -54.4384 H         1 UNK         0.0600 
    233 H233       -7.4518  -21.4716  -55.0105 H         1 UNK         0.0600 
    234 H234       -7.3266  -21.8634  -53.3022 H         1 UNK         0.0600 
    235 H235       -3.6299  -21.2126  -54.8523 H         1 UNK         0.3000 
    236 H236       -3.7081  -20.2154  -57.5371 H         1 UNK         0.0600 
    237 H237       -2.4598  -22.2578  -56.8803 H         1 UNK         0.0600 
    238 H238       -1.3720  -21.0893  -57.6101 H         1 UNK         0.0600 
    239 H239       -1.3823  -21.2996  -55.8639 H         1 UNK         0.0600 
    240 H240       -2.9214  -18.6095  -54.6011 H         1 UNK         0.3000 
    241 H241       -0.9174  -16.8054  -55.4820 H         1 UNK         0.0600 
    242 H242       -2.5329  -14.0648  -57.0755 H         1 UNK         0.3800 
    243 H243       -1.0308  -14.7731  -56.5535 H         1 UNK         0.3800 
    244 H244       -1.6696  -17.3957  -53.0582 H         1 UNK         0.0800 
    245 H245       -2.9384  -16.2263  -53.2614 H         1 UNK         0.0800 
    246 H246        0.8860  -16.8944  -52.9811 H         1 UNK         0.0800 
    247 H247        1.3815  -15.4392  -52.1509 H         1 UNK         0.0800 
@<TRIPOS>BOND
     1    1    2 1    
     2    1  127 1    
     3    1  128 1    
     4    1  129 1    
     5    2    3 2    
     6    2    4 am   BACKBONE|DICT|INTERRES
     7    4    5 1    
     8    4  130 1    
     9    5    6 1    
    10    5   65 1    
    11    5  131 1    
    12    6    7 1    
    13    6  132 1    
    14    6  133 1    
    15    7    8 1    
    16    8    9 1    
    17    8  134 1    
    18    8  135 1    
    19    9   10 ar   
    20    9   14 ar   
    21   10   11 ar   
    22   10  136 1    
    23   11   12 ar   
    24   11  126 1    
    25   12   13 ar   
    26   12  137 1    
    27   13   14 ar   
    28   13   15 1    
    29   14  138 1    
    30   15   16 1    
    31   15  139 1    
    32   15  140 1    
    33   16   17 1    
    34   17   18 1    
    35   17  141 1    
    36   17  142 1    
    37   18   19 1    
    38   18   67 1    
    39   18  143 1    
    40   19   20 am   BACKBONE|DICT|INTERRES
    41   19  144 1    
    42   20   21 2    
    43   20   22 1    
    44   22   23 1    
    45   22   24 1    
    46   22  145 1    
    47   23  146 1    
    48   23  147 1    
    49   23  148 1    
    50   24   25 am   BACKBONE|DICT|INTERRES
    51   24  149 1    
    52   25   26 2    
    53   25   27 1    
    54   27   28 1    
    55   27   29 1    
    56   27  150 1    
    57   28  151 1    
    58   28  152 1    
    59   28  153 1    
    60   29   30 am   BACKBONE|DICT|INTERRES
    61   29  154 1    
    62   30   31 2    
    63   30   32 1    
    64   32   33 1    
    65   32   34 1    
    66   32  155 1    
    67   33  156 1    
    68   33  157 1    
    69   33  158 1    
    70   34   35 am   BACKBONE|DICT|INTERRES
    71   34  159 1    
    72   35   36 2    
    73   35   37 1    
    74   37   38 1    
    75   37   39 1    
    76   37  160 1    
    77   38  161 1    
    78   38  162 1    
    79   38  163 1    
    80   39   40 am   BACKBONE|DICT|INTERRES
    81   39  164 1    
    82   40   41 2    
    83   40   42 1    
    84   42   43 1    
    85   42   44 1    
    86   42  165 1    
    87   43  166 1    
    88   43  167 1    
    89   43  168 1    
    90   44   45 am   BACKBONE|DICT|INTERRES
    91   44  169 1    
    92   45   46 2    
    93   45   47 1    
    94   47   48 1    
    95   47   49 1    
    96   47  170 1    
    97   48  171 1    
    98   48  172 1    
    99   48  173 1    
   100   49   50 am   BACKBONE|DICT|INTERRES
   101   49  174 1    
   102   50   51 2    
   103   50   52 1    
   104   52   53 1    
   105   52   54 1    
   106   52  175 1    
   107   53  176 1    
   108   53  177 1    
   109   53  178 1    
   110   54   55 am   BACKBONE|DICT|INTERRES
   111   54  179 1    
   112   55   56 2    
   113   55   57 1    
   114   57   58 1    
   115   57   59 1    
   116   57  180 1    
   117   58  181 1    
   118   58  182 1    
   119   58  183 1    
   120   59   60 am   BACKBONE|DICT|INTERRES
   121   59  184 1    
   122   60   61 2    
   123   60   62 1    
   124   62   63 1    
   125   62   64 1    
   126   62  185 1    
   127   63  186 1    
   128   63  187 1    
   129   63  188 1    
   130   64   65 am   BACKBONE|DICT|INTERRES
   131   64  189 1    
   132   65   66 2    
   133   67   68 2    
   134   67   69 am   BACKBONE|DICT|INTERRES
   135   69   70 1    
   136   69  190 1    
   137   70   71 1    
   138   70   72 1    
   139   70  191 1    
   140   71  192 1    
   141   71  193 1    
   142   71  194 1    
   143   72   73 2    
   144   72   74 am   BACKBONE|DICT|INTERRES
   145   74   75 1    
   146   74  195 1    
   147   75   76 1    
   148   75   77 1    
   149   75  196 1    
   150   76  197 1    
   151   76  198 1    
   152   76  199 1    
   153   77   78 2    
   154   77   79 am   BACKBONE|DICT|INTERRES
   155   79   80 1    
   156   79  200 1    
   157   80   81 1    
   158   80   82 1    
   159   80  201 1    
   160   81  202 1    
   161   81  203 1    
   162   81  204 1    
   163   82   83 2    
   164   82   84 am   BACKBONE|DICT|INTERRES
   165   84   85 1    
   166   84  205 1    
   167   85   86 1    
   168   85   87 1    
   169   85  206 1    
   170   86  207 1    
   171   86  208 1    
   172   86  209 1    
   173   87   88 2    
   174   87   89 am   BACKBONE|DICT|INTERRES
   175   89   90 1    
   176   89  210 1    
   177   90   91 1    
   178   90   92 1    
   179   90  211 1    
   180   91  212 1    
   181   91  213 1    
   182   91  214 1    
   183   92   93 2    
   184   92   94 am   BACKBONE|DICT|INTERRES
   185   94   95 1    
   186   94  215 1    
   187   95   96 1    
   188   95   97 1    
   189   95  216 1    
   190   96  217 1    
   191   96  218 1    
   192   96  219 1    
   193   97   98 2    
   194   97   99 am   BACKBONE|DICT|INTERRES
   195   99  100 1    
   196   99  220 1    
   197  100  101 1    
   198  100  102 1    
   199  100  221 1    
   200  101  222 1    
   201  101  223 1    
   202  101  224 1    
   203  102  103 2    
   204  102  104 am   BACKBONE|DICT|INTERRES
   205  104  105 1    
   206  104  225 1    
   207  105  106 1    
   208  105  107 1    
   209  105  226 1    
   210  106  227 1    
   211  106  228 1    
   212  106  229 1    
   213  107  108 2    
   214  107  109 am   BACKBONE|DICT|INTERRES
   215  109  110 1    
   216  109  230 1    
   217  110  111 1    
   218  110  112 1    
   219  110  231 1    
   220  111  232 1    
   221  111  233 1    
   222  111  234 1    
   223  112  113 2    
   224  112  114 am   BACKBONE|DICT|INTERRES
   225  114  115 1    
   226  114  235 1    
   227  115  116 1    
   228  115  117 1    
   229  115  236 1    
   230  116  237 1    
   231  116  238 1    
   232  116  239 1    
   233  117  118 2    
   234  117  119 am   BACKBONE|DICT|INTERRES
   235  119  120 1    
   236  119  240 1    
   237  120  121 1    
   238  120  124 1    
   239  120  241 1    
   240  121  122 am   BACKBONE|DICT|INTERRES
   241  121  123 2    
   242  122  242 1    
   243  122  243 1    
   244  124  125 1    
   245  124  244 1    
   246  124  245 1    
   247  125  126 1    
   248  126  246 1    
   249  126  247 1    
@<TRIPOS>SUBSTRUCTURE
     1 UNK         1 GROUP             0       ****    0 ROOT    
