@<TRIPOS>MOLECULE
3R540
247   249    1
SMALL
USER_CHARGES


@<TRIPOS>ATOM
      1 CA          5.9083  -16.3940  -45.2657 C.3       0 UNK        -0.1800 
      2 C           4.6550  -15.5329  -45.3019 C.2       0 UNK         0.5000 
      3 O           4.3775  -14.8191  -44.3404 O.2       0 UNK        -0.5000 
      4 N           3.9103  -15.5769  -46.4144 N.am      1 UNK        -0.5000 
      5 CA          2.6566  -14.8447  -46.6534 C.3       1 UNK         0.1400 
      6 C6          2.1027  -15.2007  -48.0590 C.3       23 UNK        -0.0398 
      7 S7          0.5466  -14.3716  -48.5313 S.3       23 UNK        -0.2404 
      8 C8          0.3542  -14.9463  -50.2450 C.3       23 UNK        -0.0205 
      9 C9         -0.2887  -16.3221  -50.3015 C.ar      23 UNK        -0.0193 
     10 C10        -1.6798  -16.4376  -50.2429 C.ar      23 UNK        -0.1150 
     11 C11        -2.2950  -17.6890  -50.3203 C.ar      23 UNK        -0.0193 
     12 C12        -1.4996  -18.8338  -50.4288 C.ar      23 UNK        -0.1150 
     13 C13        -0.1054  -18.7354  -50.4908 C.ar      23 UNK        -0.0193 
     14 C14         0.4943  -17.4732  -50.4333 C.ar      23 UNK        -0.1150 
     15 C15         0.7396  -19.9945  -50.6599 C.3       23 UNK        -0.0205 
     16 S16         2.0196  -20.2212  -49.3768 S.3       23 UNK        -0.2404 
     17 C17         1.0764  -20.1153  -47.8190 C.3       23 UNK        -0.0398 
     18 CA          0.5560  -21.4765  -47.2908 C.3       11 UNK         0.1400 
     19 N           0.2869  -21.4252  -45.8492 N.am      11 UNK        -0.5000 
     20 C          -0.1176  -22.4533  -45.0887 C.2       10 UNK         0.5000 
     21 O          -0.2464  -23.6031  -45.5042 O.2       10 UNK        -0.5000 
     22 CA         -0.5062  -22.1340  -43.6332 C.3       10 UNK         0.1400 
     23 CB          0.7369  -22.0343  -42.7376 C.3       10 UNK        -0.1800 
     24 N          -1.3041  -20.9107  -43.5278 N.am      10 UNK        -0.5000 
     25 C          -2.5258  -20.7638  -44.0615 C.2       9 UNK         0.5000 
     26 O          -3.1319  -21.6725  -44.6289 O.2       9 UNK        -0.5000 
     27 CA         -3.1566  -19.3600  -43.9981 C.3       9 UNK         0.1400 
     28 CB         -3.8465  -19.1253  -42.6465 C.3       9 UNK        -0.1800 
     29 N          -2.1878  -18.2924  -44.2514 N.am      9 UNK        -0.5000 
     30 C          -1.5390  -18.1152  -45.4113 C.2       8 UNK         0.5000 
     31 O          -1.7294  -18.8079  -46.4096 O.2       8 UNK        -0.5000 
     32 CA         -0.4547  -17.0210  -45.4409 C.3       8 UNK         0.1400 
     33 CB         -1.0921  -15.6339  -45.6137 C.3       8 UNK        -0.1800 
     34 N           0.3884  -17.0473  -44.2409 N.am      8 UNK        -0.5000 
     35 C           1.1700  -18.0815  -43.8935 C.2       7 UNK         0.5000 
     36 O           1.3385  -19.0697  -44.6052 O.2       7 UNK        -0.5000 
     37 CA          1.8150  -18.0524  -42.4960 C.3       7 UNK         0.1400 
     38 CB          3.1792  -17.3562  -42.5102 C.3       7 UNK        -0.1800 
     39 N           0.9505  -17.4169  -41.5058 N.am      7 UNK        -0.5000 
     40 C          -0.1491  -17.9868  -40.9954 C.2       6 UNK         0.5000 
     41 O          -0.5145  -19.1295  -41.2690 O.2       6 UNK        -0.5000 
     42 CA         -1.0055  -17.1105  -40.0627 C.3       6 UNK         0.1400 
     43 CB         -0.4700  -17.1655  -38.6244 C.3       6 UNK        -0.1800 
     44 N          -1.0574  -15.7165  -40.5089 N.am      6 UNK        -0.5000 
     45 C          -1.6423  -15.3100  -41.6450 C.2       5 UNK         0.5000 
     46 O          -2.2665  -16.0629  -42.3909 O.2       5 UNK        -0.5000 
     47 CA         -1.4577  -13.8315  -42.0373 C.3       5 UNK         0.1400 
     48 CB         -2.6168  -12.9824  -41.4957 C.3       5 UNK        -0.1800 
     49 N          -0.1863  -13.2736  -41.5684 N.am      5 UNK        -0.5000 
     50 C           1.0202  -13.6354  -42.0251 C.2       4 UNK         0.5000 
     51 O           1.1956  -14.4666  -42.9179 O.2       4 UNK        -0.5000 
     52 CA          2.2206  -13.0325  -41.2871 C.3       4 UNK         0.1400 
     53 CB          2.6494  -13.9561  -40.1309 C.3       4 UNK        -0.1800 
     54 N           3.3483  -12.8150  -42.1911 N.am      4 UNK        -0.5000 
     55 C           4.3178  -11.9177  -41.9612 C.2       3 UNK         0.5000 
     56 O           4.3272  -11.1634  -40.9868 O.2       3 UNK        -0.5000 
     57 CA          5.4759  -11.8339  -42.9680 C.3       3 UNK         0.1400 
     58 CB          6.5542  -12.8803  -42.6420 C.3       3 UNK        -0.1800 
     59 N           5.0268  -12.0055  -44.3478 N.am      3 UNK        -0.5000 
     60 C           4.6555  -11.0003  -45.1531 C.2       2 UNK         0.5000 
     61 O           4.6235   -9.8216  -44.7963 O.2       2 UNK        -0.5000 
     62 CA          4.2847  -11.3467  -46.6104 C.3       2 UNK         0.1400 
     63 CB          5.4385  -10.9801  -47.5570 C.3       2 UNK        -0.1800 
     64 N           3.9468  -12.7556  -46.8112 N.am      2 UNK        -0.5000 
     65 C           2.7911  -13.3170  -46.4314 C.2       1 UNK         0.5000 
     66 O           1.8783  -12.6896  -45.8929 O.2       1 UNK        -0.5000 
     67 C          -0.6840  -21.9474  -48.0779 C.2       11 UNK         0.5000 
     68 O          -0.5826  -22.8735  -48.8844 O.2       11 UNK        -0.5000 
     69 N          -1.8375  -21.3263  -47.7938 N.am      12 UNK        -0.5000 
     70 CA         -3.1394  -21.6566  -48.3695 C.3       12 UNK         0.1400 
     71 CB         -4.1936  -20.6756  -47.8367 C.3       12 UNK        -0.1800 
     72 C          -3.5643  -23.1091  -48.1010 C.2       12 UNK         0.5000 
     73 O          -4.0441  -23.7718  -49.0178 O.2       12 UNK        -0.5000 
     74 N          -3.3555  -23.5839  -46.8672 N.am      13 UNK        -0.5000 
     75 CA         -3.6428  -24.9561  -46.4580 C.3       13 UNK         0.1400 
     76 CB         -3.5989  -25.0491  -44.9248 C.3       13 UNK        -0.1800 
     77 C          -2.6921  -25.9863  -47.0964 C.2       13 UNK         0.5000 
     78 O          -3.1574  -27.0180  -47.5820 O.2       13 UNK        -0.5000 
     79 N          -1.3829  -25.7042  -47.0650 N.am      14 UNK        -0.5000 
     80 CA         -0.3344  -26.6315  -47.4873 C.3       14 UNK         0.1400 
     81 CB          1.0051  -26.2125  -46.8608 C.3       14 UNK        -0.1800 
     82 C          -0.1958  -26.7501  -49.0131 C.2       14 UNK         0.5000 
     83 O          -0.1238  -27.8676  -49.5265 O.2       14 UNK        -0.5000 
     84 N          -0.1253  -25.6068  -49.7064 N.am      15 UNK        -0.5000 
     85 CA          0.1978  -25.5404  -51.1342 C.3       15 UNK         0.1400 
     86 CB          1.1457  -24.3508  -51.3671 C.3       15 UNK        -0.1800 
     87 C          -1.0451  -25.4099  -52.0299 C.2       15 UNK         0.5000 
     88 O          -0.9052  -25.4674  -53.2523 O.2       15 UNK        -0.5000 
     89 N          -2.2228  -25.1737  -51.4285 N.am      16 UNK        -0.5000 
     90 CA         -3.4993  -24.8528  -52.0865 C.3       16 UNK         0.1400 
     91 CB         -3.9940  -26.0260  -52.9573 C.3       16 UNK        -0.1800 
     92 C          -3.4571  -23.5227  -52.8701 C.2       16 UNK         0.5000 
     93 O          -4.3006  -23.2974  -53.7406 O.2       16 UNK        -0.5000 
     94 N          -2.4593  -22.6720  -52.5784 N.am      17 UNK        -0.5000 
     95 CA         -2.1284  -21.3889  -53.2187 C.3       17 UNK         0.1400 
     96 CB         -3.2864  -20.3921  -53.0182 C.3       17 UNK        -0.1800 
     97 C          -1.7572  -21.4717  -54.7173 C.2       17 UNK         0.5000 
     98 O          -1.4599  -20.4373  -55.3148 O.2       17 UNK        -0.5000 
     99 N          -1.8501  -22.6728  -55.3104 N.am      18 UNK        -0.5000 
    100 CA        -1.9948  -22.9456  -56.7456 C.3       18 UNK         0.1400 
    101 CB        -0.6913  -22.6222  -57.5045 C.3       18 UNK        -0.1800 
    102 C         -3.2393  -22.2509  -57.3544 C.2       18 UNK         0.5000 
    103 O         -3.2500  -21.9477  -58.5489 O.2       18 UNK        -0.5000 
    104 N         -4.2544  -21.9854  -56.5171 N.am      19 UNK        -0.5000 
    105 CA        -5.3924  -21.1170  -56.8143 C.3       19 UNK         0.1400 
    106 CB        -4.9325  -19.6444  -56.9028 C.3       19 UNK        -0.1800 
    107 C         -6.5056  -21.3201  -55.7712 C.2       19 UNK         0.5000 
    108 O         -7.0249  -20.3446  -55.2258 O.2       19 UNK        -0.5000 
    109 N         -6.8367  -22.5909  -55.4953 N.am      20 UNK        -0.5000 
    110 CA        -7.9362  -23.0521  -54.6339 C.3       20 UNK         0.1400 
    111 CB        -9.2864  -22.8316  -55.3468 C.3       20 UNK        -0.1800 
    112 C         -7.9131  -22.4529  -53.2097 C.2       20 UNK         0.5000 
    113 O         -8.9450  -22.0064  -52.7032 O.2       20 UNK        -0.5000 
    114 N         -6.7151  -22.4153  -52.6092 N.am      21 UNK        -0.5000 
    115 CA        -6.4046  -21.8803  -51.2765 C.3       21 UNK         0.1400 
    116 CB        -7.0440  -22.7607  -50.1827 C.3       21 UNK        -0.1800 
    117 C         -6.7461  -20.3819  -51.1175 C.2       21 UNK         0.5000 
    118 O         -7.0456  -19.9371  -50.0092 O.2       21 UNK        -0.5000 
    119 N         -6.7091  -19.6384  -52.2322 N.am      22 UNK        -0.5000 
    120 CA        -7.1419  -18.2367  -52.3603 C.3       22 UNK         0.1400 
    121 C         -8.6850  -18.0342  -52.2287 C.2       22 UNK         0.5000 
    122 N         -9.5087  -19.0748  -52.2998 N.am      22 UNK        -0.7600 
    123 O         -9.1555  -16.9080  -52.0912 O.2       22 UNK        -0.5000 
    124 C124       -6.3288  -17.2410  -51.4797 C.3       23 UNK        -0.0398 
    125 S125       -4.5436  -17.2237  -51.8658 S.3       23 UNK        -0.2404 
    126 C126       -3.8149  -17.7884  -50.2951 C.3       23 UNK        -0.0205 
    127 H127        6.7938  -15.7607  -45.2143 H         1 UNK         0.0600 
    128 H128        5.8984  -17.0361  -44.3854 H         1 UNK         0.0600 
    129 H129        5.9912  -17.0280  -46.1486 H         1 UNK         0.0600 
    130 H130        4.2099  -16.1796  -47.1674 H         1 UNK         0.3000 
    131 H131        1.9465  -15.2042  -45.9076 H         1 UNK         0.0600 
    132 H132        2.8499  -14.9675  -48.8195 H         1 UNK         0.0800 
    133 H133        1.9352  -16.2771  -48.1184 H         1 UNK         0.0800 
    134 H134        1.3190  -14.9473  -50.7543 H         1 UNK         0.0800 
    135 H135       -0.2702  -14.2326  -50.7845 H         1 UNK         0.0800 
    136 H136       -2.2883  -15.5486  -50.1528 H         1 UNK         0.1150 
    137 H137       -1.9662  -19.8043  -50.4794 H         1 UNK         0.1150 
    138 H138        1.5704  -17.3892  -50.4909 H         1 UNK         0.1150 
    139 H139        0.1091  -20.8832  -50.6812 H         1 UNK         0.0800 
    140 H140        1.2304  -19.9530  -51.6329 H         1 UNK         0.0800 
    141 H141        0.2774  -19.3802  -47.9091 H         1 UNK         0.0800 
    142 H142        1.7714  -19.6914  -47.0942 H         1 UNK         0.0800 
    143 H143        1.3393  -22.2240  -47.4323 H         1 UNK         0.0600 
    144 H144        0.4193  -20.5219  -45.4021 H         1 UNK         0.3000 
    145 H145       -1.1187  -22.9596  -43.2648 H         1 UNK         0.0600 
    146 H146        0.4639  -21.8212  -41.7039 H         1 UNK         0.0600 
    147 H147        1.2922  -22.9730  -42.7412 H         1 UNK         0.0600 
    148 H148        1.4176  -21.2532  -43.0733 H         1 UNK         0.0600 
    149 H149       -0.8980  -20.1374  -43.0127 H         1 UNK         0.3000 
    150 H150       -3.9183  -19.3055  -44.7784 H         1 UNK         0.0600 
    151 H151       -4.6026  -19.8883  -42.4576 H         1 UNK         0.0600 
    152 H152       -4.3471  -18.1572  -42.6229 H         1 UNK         0.0600 
    153 H153       -3.1377  -19.1543  -41.8193 H         1 UNK         0.0600 
    154 H154       -2.0237  -17.6343  -43.4950 H         1 UNK         0.3000 
    155 H155        0.1897  -17.2074  -46.3026 H         1 UNK         0.0600 
    156 H156       -1.8587  -15.4384  -44.8660 H         1 UNK         0.0600 
    157 H157       -1.5715  -15.5542  -46.5901 H         1 UNK         0.0600 
    158 H158       -0.3525  -14.8365  -45.5471 H         1 UNK         0.0600 
    159 H159        0.3590  -16.2352  -43.6352 H         1 UNK         0.3000 
    160 H160        1.9809  -19.0875  -42.1915 H         1 UNK         0.0600 
    161 H161        3.6874  -17.4663  -41.5523 H         1 UNK         0.0600 
    162 H162        3.0804  -16.2916  -42.7120 H         1 UNK         0.0600 
    163 H163        3.8277  -17.7845  -43.2745 H         1 UNK         0.0600 
    164 H164        1.1597  -16.4593  -41.2685 H         1 UNK         0.3000 
    165 H165       -2.0218  -17.5103  -40.0672 H         1 UNK         0.0600 
    166 H166       -1.1098  -16.6033  -37.9439 H         1 UNK         0.0600 
    167 H167       -0.4350  -18.1935  -38.2609 H         1 UNK         0.0600 
    168 H168        0.5388  -16.7570  -38.5521 H         1 UNK         0.0600 
    169 H169       -0.5809  -15.0340  -39.9390 H         1 UNK         0.3000 
    170 H170       -1.4713  -13.7719  -43.1272 H         1 UNK         0.0600 
    171 H171       -3.5764  -13.3617  -41.8497 H         1 UNK         0.0600 
    172 H172       -2.6448  -12.9851  -40.4053 H         1 UNK         0.0600 
    173 H173       -2.5360  -11.9471  -41.8278 H         1 UNK         0.0600 
    174 H174       -0.2451  -12.5913  -40.8260 H         1 UNK         0.3000 
    175 H175        1.9063  -12.0708  -40.8754 H         1 UNK         0.0600 
    176 H176        3.0165  -14.9147  -40.4992 H         1 UNK         0.0600 
    177 H177        3.4426  -13.5040  -39.5355 H         1 UNK         0.0600 
    178 H178        1.8175  -14.1581  -39.4552 H         1 UNK         0.0600 
    179 H179        3.3885  -13.4169  -43.0084 H         1 UNK         0.3000 
    180 H180        5.9378  -10.8500  -42.8601 H         1 UNK         0.0600 
    181 H181        6.1612  -13.8965  -42.6710 H         1 UNK         0.0600 
    182 H182        6.9602  -12.7187  -41.6427 H         1 UNK         0.0600 
    183 H183        7.3861  -12.8219  -43.3440 H         1 UNK         0.0600 
    184 H184        4.9408  -12.9626  -44.6718 H         1 UNK         0.3000 
    185 H185        3.4182  -10.7393  -46.8810 H         1 UNK         0.0600 
    186 H186        5.7006   -9.9253  -47.4646 H         1 UNK         0.0600 
    187 H187        6.3361  -11.5612  -47.3412 H         1 UNK         0.0600 
    188 H188        5.1662  -11.1550  -48.5980 H         1 UNK         0.0600 
    189 H189        4.6570  -13.3401  -47.2274 H         1 UNK         0.3000 
    190 H190       -1.8193  -20.5435  -47.1439 H         1 UNK         0.3000 
    191 H191       -3.0654  -21.5300  -49.4505 H         1 UNK         0.0600 
    192 H192       -4.3879  -20.8254  -46.7755 H         1 UNK         0.0600 
    193 H193       -5.1409  -20.8012  -48.3582 H         1 UNK         0.0600 
    194 H194       -3.8798  -19.6408  -47.9671 H         1 UNK         0.0600 
    195 H195       -3.0021  -22.9548  -46.1527 H         1 UNK         0.3000 
    196 H196       -4.6582  -25.1979  -46.7793 H         1 UNK         0.0600 
    197 H197       -3.8259  -26.0611  -44.5872 H         1 UNK         0.0600 
    198 H198       -4.3307  -24.3817  -44.4694 H         1 UNK         0.0600 
    199 H199       -2.6169  -24.7831  -44.5321 H         1 UNK         0.0600 
    200 H200       -1.0724  -24.8432  -46.6195 H         1 UNK         0.3000 
    201 H201       -0.5815  -27.6226  -47.1005 H         1 UNK         0.0600 
    202 H202        1.8024  -26.9013  -47.1426 H         1 UNK         0.0600 
    203 H203        0.9467  -26.2109  -45.7722 H         1 UNK         0.0600 
    204 H204        1.3049  -25.2135  -47.1802 H         1 UNK         0.0600 
    205 H205       -0.2300  -24.7160  -49.2256 H         1 UNK         0.3000 
    206 H206        0.7239  -26.4462  -51.4426 H         1 UNK         0.0600 
    207 H207        2.0338  -24.4248  -50.7393 H         1 UNK         0.0600 
    208 H208        1.4845  -24.3174  -52.4033 H         1 UNK         0.0600 
    209 H209        0.6637  -23.3971  -51.1523 H         1 UNK         0.0600 
    210 H210       -2.2338  -25.1348  -50.4177 H         1 UNK         0.3000 
    211 H211       -4.2390  -24.7159  -51.3003 H         1 UNK         0.0600 
    212 H212       -3.3745  -26.1706  -53.8425 H         1 UNK         0.0600 
    213 H213       -5.0141  -25.8520  -53.3019 H         1 UNK         0.0600 
    214 H214       -3.9991  -26.9592  -52.3942 H         1 UNK         0.0600 
    215 H215       -1.8156  -22.9700  -51.8594 H         1 UNK         0.3000 
    216 H216       -1.2500  -21.0016  -52.7028 H         1 UNK         0.0600 
    217 H217       -4.1510  -20.6386  -53.6343 H         1 UNK         0.0600 
    218 H218       -2.9770  -19.3821  -53.2887 H         1 UNK         0.0600 
    219 H219       -3.6174  -20.3641  -51.9820 H         1 UNK         0.0600 
    220 H220       -2.0660  -23.4554  -54.7081 H         1 UNK         0.3000 
    221 H221       -2.1727  -24.0180  -56.8348 H         1 UNK         0.0600 
    222 H222       -0.4920  -21.5508  -57.5325 H         1 UNK         0.0600 
    223 H223        0.1656  -23.1114  -57.0415 H         1 UNK         0.0600 
    224 H224       -0.7439  -22.9705  -58.5366 H         1 UNK         0.0600 
    225 H225       -4.1952  -22.3214  -55.5606 H         1 UNK         0.3000 
    226 H226       -5.8116  -21.4078  -57.7795 H         1 UNK         0.0600 
    227 H227       -4.1987  -19.4979  -57.6950 H         1 UNK         0.0600 
    228 H228       -5.7706  -18.9816  -57.1214 H         1 UNK         0.0600 
    229 H229       -4.4822  -19.3110  -55.9668 H         1 UNK         0.0600 
    230 H230       -6.3131  -23.3218  -55.9566 H         1 UNK         0.3000 
    231 H231       -7.8002  -24.1274  -54.5095 H         1 UNK         0.0600 
    232 H232       -9.2946  -23.3018  -56.3301 H         1 UNK         0.0600 
    233 H233       -9.5025  -21.7709  -55.4807 H         1 UNK         0.0600 
    234 H234      -10.1082  -23.2646  -54.7753 H         1 UNK         0.0600 
    235 H235       -5.9169  -22.7659  -53.1356 H         1 UNK         0.3000 
    236 H236       -5.3236  -21.9522  -51.1574 H         1 UNK         0.0600 
    237 H237       -6.7131  -22.4592  -49.1888 H         1 UNK         0.0600 
    238 H238       -8.1323  -22.6989  -50.1965 H         1 UNK         0.0600 
    239 H239       -6.7640  -23.8067  -50.3078 H         1 UNK         0.0600 
    240 H240       -6.5199  -20.1007  -53.1129 H         1 UNK         0.3000 
    241 H241       -6.9335  -17.9784  -53.3991 H         1 UNK         0.0600 
    242 H242       -9.1596  -20.0190  -52.4269 H         1 UNK         0.3800 
    243 H243      -10.5015  -18.9213  -52.2244 H         1 UNK         0.3800 
    244 H244       -6.6839  -16.2217  -51.6383 H         1 UNK         0.0800 
    245 H245       -6.4838  -17.4422  -50.4196 H         1 UNK         0.0800 
    246 H246       -4.2014  -17.1875  -49.4707 H         1 UNK         0.0800 
    247 H247       -4.1341  -18.8142  -50.1136 H         1 UNK         0.0800 
@<TRIPOS>BOND
     1    1    2 1    
     2    1  127 1    
     3    1  128 1    
     4    1  129 1    
     5    2    3 2    
     6    2    4 am   BACKBONE|DICT|INTERRES
     7    4    5 1    
     8    4  130 1    
     9    5    6 1    
    10    5   65 1    
    11    5  131 1    
    12    6    7 1    
    13    6  132 1    
    14    6  133 1    
    15    7    8 1    
    16    8    9 1    
    17    8  134 1    
    18    8  135 1    
    19    9   10 ar   
    20    9   14 ar   
    21   10   11 ar   
    22   10  136 1    
    23   11   12 ar   
    24   11  126 1    
    25   12   13 ar   
    26   12  137 1    
    27   13   14 ar   
    28   13   15 1    
    29   14  138 1    
    30   15   16 1    
    31   15  139 1    
    32   15  140 1    
    33   16   17 1    
    34   17   18 1    
    35   17  141 1    
    36   17  142 1    
    37   18   19 1    
    38   18   67 1    
    39   18  143 1    
    40   19   20 am   BACKBONE|DICT|INTERRES
    41   19  144 1    
    42   20   21 2    
    43   20   22 1    
    44   22   23 1    
    45   22   24 1    
    46   22  145 1    
    47   23  146 1    
    48   23  147 1    
    49   23  148 1    
    50   24   25 am   BACKBONE|DICT|INTERRES
    51   24  149 1    
    52   25   26 2    
    53   25   27 1    
    54   27   28 1    
    55   27   29 1    
    56   27  150 1    
    57   28  151 1    
    58   28  152 1    
    59   28  153 1    
    60   29   30 am   BACKBONE|DICT|INTERRES
    61   29  154 1    
    62   30   31 2    
    63   30   32 1    
    64   32   33 1    
    65   32   34 1    
    66   32  155 1    
    67   33  156 1    
    68   33  157 1    
    69   33  158 1    
    70   34   35 am   BACKBONE|DICT|INTERRES
    71   34  159 1    
    72   35   36 2    
    73   35   37 1    
    74   37   38 1    
    75   37   39 1    
    76   37  160 1    
    77   38  161 1    
    78   38  162 1    
    79   38  163 1    
    80   39   40 am   BACKBONE|DICT|INTERRES
    81   39  164 1    
    82   40   41 2    
    83   40   42 1    
    84   42   43 1    
    85   42   44 1    
    86   42  165 1    
    87   43  166 1    
    88   43  167 1    
    89   43  168 1    
    90   44   45 am   BACKBONE|DICT|INTERRES
    91   44  169 1    
    92   45   46 2    
    93   45   47 1    
    94   47   48 1    
    95   47   49 1    
    96   47  170 1    
    97   48  171 1    
    98   48  172 1    
    99   48  173 1    
   100   49   50 am   BACKBONE|DICT|INTERRES
   101   49  174 1    
   102   50   51 2    
   103   50   52 1    
   104   52   53 1    
   105   52   54 1    
   106   52  175 1    
   107   53  176 1    
   108   53  177 1    
   109   53  178 1    
   110   54   55 am   BACKBONE|DICT|INTERRES
   111   54  179 1    
   112   55   56 2    
   113   55   57 1    
   114   57   58 1    
   115   57   59 1    
   116   57  180 1    
   117   58  181 1    
   118   58  182 1    
   119   58  183 1    
   120   59   60 am   BACKBONE|DICT|INTERRES
   121   59  184 1    
   122   60   61 2    
   123   60   62 1    
   124   62   63 1    
   125   62   64 1    
   126   62  185 1    
   127   63  186 1    
   128   63  187 1    
   129   63  188 1    
   130   64   65 am   BACKBONE|DICT|INTERRES
   131   64  189 1    
   132   65   66 2    
   133   67   68 2    
   134   67   69 am   BACKBONE|DICT|INTERRES
   135   69   70 1    
   136   69  190 1    
   137   70   71 1    
   138   70   72 1    
   139   70  191 1    
   140   71  192 1    
   141   71  193 1    
   142   71  194 1    
   143   72   73 2    
   144   72   74 am   BACKBONE|DICT|INTERRES
   145   74   75 1    
   146   74  195 1    
   147   75   76 1    
   148   75   77 1    
   149   75  196 1    
   150   76  197 1    
   151   76  198 1    
   152   76  199 1    
   153   77   78 2    
   154   77   79 am   BACKBONE|DICT|INTERRES
   155   79   80 1    
   156   79  200 1    
   157   80   81 1    
   158   80   82 1    
   159   80  201 1    
   160   81  202 1    
   161   81  203 1    
   162   81  204 1    
   163   82   83 2    
   164   82   84 am   BACKBONE|DICT|INTERRES
   165   84   85 1    
   166   84  205 1    
   167   85   86 1    
   168   85   87 1    
   169   85  206 1    
   170   86  207 1    
   171   86  208 1    
   172   86  209 1    
   173   87   88 2    
   174   87   89 am   BACKBONE|DICT|INTERRES
   175   89   90 1    
   176   89  210 1    
   177   90   91 1    
   178   90   92 1    
   179   90  211 1    
   180   91  212 1    
   181   91  213 1    
   182   91  214 1    
   183   92   93 2    
   184   92   94 am   BACKBONE|DICT|INTERRES
   185   94   95 1    
   186   94  215 1    
   187   95   96 1    
   188   95   97 1    
   189   95  216 1    
   190   96  217 1    
   191   96  218 1    
   192   96  219 1    
   193   97   98 2    
   194   97   99 am   BACKBONE|DICT|INTERRES
   195   99  100 1    
   196   99  220 1    
   197  100  101 1    
   198  100  102 1    
   199  100  221 1    
   200  101  222 1    
   201  101  223 1    
   202  101  224 1    
   203  102  103 2    
   204  102  104 am   BACKBONE|DICT|INTERRES
   205  104  105 1    
   206  104  225 1    
   207  105  106 1    
   208  105  107 1    
   209  105  226 1    
   210  106  227 1    
   211  106  228 1    
   212  106  229 1    
   213  107  108 2    
   214  107  109 am   BACKBONE|DICT|INTERRES
   215  109  110 1    
   216  109  230 1    
   217  110  111 1    
   218  110  112 1    
   219  110  231 1    
   220  111  232 1    
   221  111  233 1    
   222  111  234 1    
   223  112  113 2    
   224  112  114 am   BACKBONE|DICT|INTERRES
   225  114  115 1    
   226  114  235 1    
   227  115  116 1    
   228  115  117 1    
   229  115  236 1    
   230  116  237 1    
   231  116  238 1    
   232  116  239 1    
   233  117  118 2    
   234  117  119 am   BACKBONE|DICT|INTERRES
   235  119  120 1    
   236  119  240 1    
   237  120  121 1    
   238  120  124 1    
   239  120  241 1    
   240  121  122 am   BACKBONE|DICT|INTERRES
   241  121  123 2    
   242  122  242 1    
   243  122  243 1    
   244  124  125 1    
   245  124  244 1    
   246  124  245 1    
   247  125  126 1    
   248  126  246 1    
   249  126  247 1    
@<TRIPOS>SUBSTRUCTURE
     1 UNK         1 GROUP             0       ****    0 ROOT    
