@<TRIPOS>MOLECULE
3R540
247   249    1
SMALL
USER_CHARGES


@<TRIPOS>ATOM
      1 CA         -1.6137  -12.3560  -47.4346 C.3       0 UNK        -0.1800 
      2 C          -3.0393  -12.8802  -47.5993 C.2       0 UNK         0.5000 
      3 O          -3.9633  -12.0792  -47.7258 O.2       0 UNK        -0.5000 
      4 N          -3.2765  -14.2001  -47.6198 N.am      1 UNK        -0.5000 
      5 CA         -2.3026  -15.2858  -47.4373 C.3       1 UNK         0.1400 
      6 C6         -2.9066  -16.6644  -47.8076 C.3       23 UNK        -0.0398 
      7 S7         -3.4352  -16.7697  -49.5537 S.3       23 UNK        -0.2404 
      8 C8         -3.2670  -18.5616  -49.8757 C.3       23 UNK        -0.0205 
      9 C9         -1.8833  -19.0339  -50.3307 C.ar      23 UNK        -0.0193 
     10 C10        -1.7715  -20.2437  -51.0249 C.ar      23 UNK        -0.1150 
     11 C11        -0.5282  -20.7227  -51.4479 C.ar      23 UNK        -0.0193 
     12 C12         0.6282  -20.0199  -51.1030 C.ar      23 UNK        -0.1150 
     13 C13         0.5393  -18.8346  -50.3704 C.ar      23 UNK        -0.0193 
     14 C14        -0.7161  -18.3243  -50.0337 C.ar      23 UNK        -0.1150 
     15 C15         1.7958  -18.1244  -49.8939 C.3       23 UNK        -0.0205 
     16 S16         2.4638  -18.8883  -48.3759 S.3       23 UNK        -0.2404 
     17 C17         1.0432  -18.8075  -47.2287 C.3       23 UNK        -0.0398 
     18 CA          0.4754  -20.2141  -46.8973 C.3       11 UNK         0.1400 
     19 N           1.1221  -20.7780  -45.7074 N.am      11 UNK        -0.5000 
     20 C           0.9258  -22.0094  -45.2185 C.2       10 UNK         0.5000 
     21 O           0.2341  -22.8615  -45.7735 O.2       10 UNK        -0.5000 
     22 CA          1.5652  -22.3239  -43.8518 C.3       10 UNK         0.1400 
     23 CB          3.0451  -22.7034  -44.0077 C.3       10 UNK        -0.1800 
     24 N           1.4337  -21.2180  -42.8993 N.am      10 UNK        -0.5000 
     25 C           0.2653  -20.7701  -42.4156 C.2       9 UNK         0.5000 
     26 O          -0.8206  -21.2868  -42.6763 O.2       9 UNK        -0.5000 
     27 CA          0.3067  -19.4992  -41.5431 C.3       9 UNK         0.1400 
     28 CB          0.6863  -19.8306  -40.0928 C.3       9 UNK        -0.1800 
     29 N           1.2171  -18.4838  -42.0745 N.am      9 UNK        -0.5000 
     30 C           1.0640  -17.8859  -43.2640 C.2       8 UNK         0.5000 
     31 O           0.0958  -18.0781  -43.9966 O.2       8 UNK        -0.5000 
     32 CA          2.2112  -16.9792  -43.7433 C.3       8 UNK         0.1400 
     33 CB          2.0825  -15.5641  -43.1761 C.3       8 UNK        -0.1800 
     34 N           3.5200  -17.5324  -43.4016 N.am      8 UNK        -0.5000 
     35 C           4.0487  -18.6206  -43.9780 C.2       7 UNK         0.5000 
     36 O           3.4986  -19.2495  -44.8805 O.2       7 UNK        -0.5000 
     37 CA          5.3947  -19.1137  -43.4171 C.3       7 UNK         0.1400 
     38 CB          6.5621  -18.3525  -44.0624 C.3       7 UNK        -0.1800 
     39 N           5.4717  -18.9795  -41.9617 N.am      7 UNK        -0.5000 
     40 C           4.7165  -19.6736  -41.0985 C.2       6 UNK         0.5000 
     41 O           3.9183  -20.5459  -41.4401 O.2       6 UNK        -0.5000 
     42 CA          4.8371  -19.2892  -39.6113 C.3       6 UNK         0.1400 
     43 CB          5.9669  -20.0825  -38.9385 C.3       6 UNK        -0.1800 
     44 N           5.0579  -17.8537  -39.4036 N.am      6 UNK        -0.5000 
     45 C           4.1796  -16.8973  -39.7331 C.2       5 UNK         0.5000 
     46 O           3.0914  -17.1275  -40.2643 O.2       5 UNK        -0.5000 
     47 CA          4.6295  -15.4431  -39.5018 C.3       5 UNK         0.1400 
     48 CB          5.3236  -14.8993  -40.7605 C.3       5 UNK        -0.1800 
     49 N           3.5139  -14.5597  -39.1619 N.am      5 UNK        -0.5000 
     50 C           2.8398  -14.5876  -38.0041 C.2       4 UNK         0.5000 
     51 O           3.1105  -15.3538  -37.0779 O.2       4 UNK        -0.5000 
     52 CA          1.6891  -13.5729  -37.8289 C.3       4 UNK         0.1400 
     53 CB          2.1467  -12.3920  -36.9581 C.3       4 UNK        -0.1800 
     54 N           1.1492  -13.0475  -39.0880 N.am      4 UNK        -0.5000 
     55 C           0.3992  -13.7561  -39.9406 C.2       3 UNK         0.5000 
     56 O           0.0973  -14.9395  -39.7562 O.2       3 UNK        -0.5000 
     57 CA         -0.0979  -13.0301  -41.2056 C.3       3 UNK         0.1400 
     58 CB          1.0568  -12.3682  -41.9888 C.3       3 UNK        -0.1800 
     59 N          -0.8000  -14.0239  -42.0108 N.am      3 UNK        -0.5000 
     60 C          -1.5608  -13.8334  -43.0911 C.2       2 UNK         0.5000 
     61 O          -1.7387  -12.7435  -43.6391 O.2       2 UNK        -0.5000 
     62 CA         -2.3026  -15.0855  -43.5873 C.3       2 UNK         0.1400 
     63 CB         -3.6195  -15.2555  -42.8114 C.3       2 UNK        -0.1800 
     64 N          -2.6084  -15.0348  -45.0152 N.am      2 UNK        -0.5000 
     65 C          -1.7475  -15.3328  -45.9975 C.2       1 UNK         0.5000 
     66 O          -0.5691  -15.6348  -45.8160 O.2       1 UNK        -0.5000 
     67 C          -1.0635  -20.1988  -46.7531 C.2       11 UNK         0.5000 
     68 O          -1.7669  -20.6931  -47.6345 O.2       11 UNK        -0.5000 
     69 N          -1.5675  -19.6848  -45.6232 N.am      12 UNK        -0.5000 
     70 CA         -2.9936  -19.6622  -45.2899 C.3       12 UNK         0.1400 
     71 CB         -3.2008  -18.8788  -43.9888 C.3       12 UNK        -0.1800 
     72 C          -3.6255  -21.0628  -45.1903 C.2       12 UNK         0.5000 
     73 O          -4.7604  -21.2435  -45.6317 O.2       12 UNK        -0.5000 
     74 N          -2.8741  -22.0288  -44.6448 N.am      13 UNK        -0.5000 
     75 CA         -3.2605  -23.4377  -44.5773 C.3       13 UNK         0.1400 
     76 CB         -2.3195  -24.1834  -43.6190 C.3       13 UNK        -0.1800 
     77 C          -3.2916  -24.1218  -45.9583 C.2       13 UNK         0.5000 
     78 O          -4.1326  -24.9959  -46.1728 O.2       13 UNK        -0.5000 
     79 N          -2.3910  -23.7174  -46.8673 N.am      14 UNK        -0.5000 
     80 CA         -2.3292  -24.2049  -48.2461 C.3       14 UNK         0.1400 
     81 CB         -1.0066  -23.7804  -48.9040 C.3       14 UNK        -0.1800 
     82 C          -3.5381  -23.7473  -49.0811 C.2       14 UNK         0.5000 
     83 O          -4.1009  -24.5624  -49.8113 O.2       14 UNK        -0.5000 
     84 N          -3.9233  -22.4674  -48.9438 N.am      15 UNK        -0.5000 
     85 CA         -5.1486  -21.8083  -49.4386 C.3       15 UNK         0.1400 
     86 CB         -6.3927  -22.4472  -48.7945 C.3       15 UNK        -0.1800 
     87 C          -5.3311  -21.7170  -50.9730 C.2       15 UNK         0.5000 
     88 O          -6.0442  -20.8291  -51.4420 O.2       15 UNK        -0.5000 
     89 N          -4.6822  -22.6133  -51.7238 N.am      16 UNK        -0.5000 
     90 CA         -4.8128  -22.8676  -53.1603 C.3       16 UNK         0.1400 
     91 CB         -3.8235  -23.9814  -53.5314 C.3       16 UNK        -0.1800 
     92 C          -4.6553  -21.6585  -54.1031 C.2       16 UNK         0.5000 
     93 O          -5.2001  -21.6944  -55.2079 O.2       16 UNK        -0.5000 
     94 N          -3.9584  -20.5987  -53.6670 N.am      17 UNK        -0.5000 
     95 CA         -3.7840  -19.3464  -54.4117 C.3       17 UNK         0.1400 
     96 CB         -2.7883  -18.4244  -53.6954 C.3       17 UNK        -0.1800 
     97 C          -5.1026  -18.5964  -54.6775 C.2       17 UNK         0.5000 
     98 O          -5.1656  -17.8297  -55.6376 O.2       17 UNK        -0.5000 
     99 N          -6.1493  -18.8780  -53.8857 N.am      18 UNK        -0.5000 
    100 CA        -7.5193  -18.4079  -54.1120 C.3       18 UNK         0.1400 
    101 CB        -8.3930  -18.8289  -52.9211 C.3       18 UNK        -0.1800 
    102 C         -8.1316  -18.9138  -55.4372 C.2       18 UNK         0.5000 
    103 O         -8.9922  -18.2377  -56.0014 O.2       18 UNK        -0.5000 
    104 N         -7.6583  -20.0717  -55.9181 N.am      19 UNK        -0.5000 
    105 CA        -7.9979  -20.6621  -57.2143 C.3       19 UNK         0.1400 
    106 CB        -8.4222  -22.1216  -56.9749 C.3       19 UNK        -0.1800 
    107 C         -6.8119  -20.5983  -58.2011 C.2       19 UNK         0.5000 
    108 O         -6.9171  -21.1419  -59.3010 O.2       19 UNK        -0.5000 
    109 N         -5.6959  -19.9788  -57.7805 N.am      20 UNK        -0.5000 
    110 CA        -4.3798  -19.9268  -58.4334 C.3       20 UNK         0.1400 
    111 CB        -4.4558  -19.1339  -59.7538 C.3       20 UNK        -0.1800 
    112 C         -3.7154  -21.3124  -58.6147 C.2       20 UNK         0.5000 
    113 O         -2.7971  -21.4512  -59.4246 O.2       20 UNK        -0.5000 
    114 N         -4.1775  -22.3182  -57.8598 N.am      21 UNK        -0.5000 
    115 CA        -3.8417  -23.7287  -58.0511 C.3       21 UNK         0.1400 
    116 CB        -4.9254  -24.5981  -57.3937 C.3       21 UNK        -0.1800 
    117 C         -2.4259  -24.1118  -57.5815 C.2       21 UNK         0.5000 
    118 O         -1.8840  -25.0988  -58.0811 O.2       21 UNK        -0.5000 
    119 N         -1.8390  -23.3234  -56.6704 N.am      22 UNK        -0.5000 
    120 CA        -0.4210  -23.4236  -56.2788 C.3       22 UNK         0.1400 
    121 C          0.5275  -22.5069  -57.1105 C.2       22 UNK         0.5000 
    122 N          0.0516  -21.7861  -58.1210 N.am      22 UNK        -0.7600 
    123 O          1.7277  -22.4664  -56.8535 O.2       22 UNK        -0.5000 
    124 C124       -0.2136  -23.2913  -54.7454 C.3       23 UNK        -0.0398 
    125 S125       -0.6997  -21.6825  -54.0354 S.3       23 UNK        -0.2404 
    126 C126       -0.4310  -22.0039  -52.2617 C.3       23 UNK        -0.0205 
    127 H127       -1.2845  -12.4545  -46.4004 H         1 UNK         0.0600 
    128 H128       -0.9129  -12.8842  -48.0801 H         1 UNK         0.0600 
    129 H129       -1.5661  -11.2993  -47.6982 H         1 UNK         0.0600 
    130 H130       -4.2257  -14.5068  -47.7771 H         1 UNK         0.3000 
    131 H131       -1.4597  -15.1069  -48.1072 H         1 UNK         0.0600 
    132 H132       -2.1830  -17.4576  -47.6146 H         1 UNK         0.0800 
    133 H133       -3.7711  -16.8863  -47.1795 H         1 UNK         0.0800 
    134 H134       -4.0076  -18.8310  -50.6294 H         1 UNK         0.0800 
    135 H135       -3.5371  -19.1060  -48.9715 H         1 UNK         0.0800 
    136 H136       -2.6552  -20.8172  -51.2437 H         1 UNK         0.1150 
    137 H137        1.5982  -20.4038  -51.3862 H         1 UNK         0.1150 
    138 H138       -0.7678  -17.3930  -49.4925 H         1 UNK         0.1150 
    139 H139        1.5942  -17.0683  -49.7079 H         1 UNK         0.0800 
    140 H140        2.5567  -18.1578  -50.6749 H         1 UNK         0.0800 
    141 H141        0.2876  -18.1339  -47.6262 H         1 UNK         0.0800 
    142 H142        1.3790  -18.3114  -46.3228 H         1 UNK         0.0800 
    143 H143        0.6889  -20.8864  -47.7313 H         1 UNK         0.0600 
    144 H144        1.7711  -20.1670  -45.2218 H         1 UNK         0.3000 
    145 H145        1.0407  -23.1850  -43.4328 H         1 UNK         0.0600 
    146 H146        3.4821  -22.9857  -43.0497 H         1 UNK         0.0600 
    147 H147        3.1600  -23.5531  -44.6817 H         1 UNK         0.0600 
    148 H148        3.6342  -21.8814  -44.4135 H         1 UNK         0.0600 
    149 H149        2.2929  -20.7763  -42.5877 H         1 UNK         0.3000 
    150 H150       -0.6969  -19.0691  -41.5373 H         1 UNK         0.0600 
    151 H151        1.6723  -20.2888  -40.0261 H         1 UNK         0.0600 
    152 H152       -0.0284  -20.5281  -39.6545 H         1 UNK         0.0600 
    153 H153        0.6911  -18.9342  -39.4720 H         1 UNK         0.0600 
    154 H154        2.0076  -18.2200  -41.4942 H         1 UNK         0.3000 
    155 H155        2.1545  -16.8931  -44.8286 H         1 UNK         0.0600 
    156 H156        2.0180  -15.5612  -42.0881 H         1 UNK         0.0600 
    157 H157        1.1843  -15.0867  -43.5656 H         1 UNK         0.0600 
    158 H158        2.9273  -14.9415  -43.4701 H         1 UNK         0.0600 
    159 H159        4.0040  -17.1088  -42.6250 H         1 UNK         0.3000 
    160 H160        5.4943  -20.1718  -43.6686 H         1 UNK         0.0600 
    161 H161        6.5312  -17.2881  -43.8258 H         1 UNK         0.0600 
    162 H162        6.5362  -18.4484  -45.1487 H         1 UNK         0.0600 
    163 H163        7.5221  -18.7440  -43.7255 H         1 UNK         0.0600 
    164 H164        6.1099  -18.2881  -41.5973 H         1 UNK         0.3000 
    165 H165        3.8969  -19.5565  -39.1246 H         1 UNK         0.0600 
    166 H166        6.0065  -19.8815  -37.8677 H         1 UNK         0.0600 
    167 H167        6.9411  -19.8375  -39.3633 H         1 UNK         0.0600 
    168 H168        5.8159  -21.1560  -39.0606 H         1 UNK         0.0600 
    169 H169        5.9370  -17.5904  -38.9817 H         1 UNK         0.3000 
    170 H170        5.3429  -15.4247  -38.6751 H         1 UNK         0.0600 
    171 H171        6.1773  -15.5186  -41.0388 H         1 UNK         0.0600 
    172 H172        4.6465  -14.8698  -41.6146 H         1 UNK         0.0600 
    173 H173        5.6989  -13.8888  -40.5972 H         1 UNK         0.0600 
    174 H174        3.2087  -13.9164  -39.8755 H         1 UNK         0.3000 
    175 H175        0.8831  -14.0882  -37.3018 H         1 UNK         0.0600 
    176 H176        2.9440  -11.8233  -37.4383 H         1 UNK         0.0600 
    177 H177        1.3219  -11.7091  -36.7534 H         1 UNK         0.0600 
    178 H178        2.5250  -12.7385  -35.9954 H         1 UNK         0.0600 
    179 H179        1.3549  -12.0811  -39.2967 H         1 UNK         0.3000 
    180 H180       -0.8168  -12.2673  -40.9015 H         1 UNK         0.0600 
    181 H181        1.8818  -13.0565  -42.1625 H         1 UNK         0.0600 
    182 H182        1.4600  -11.5166  -41.4405 H         1 UNK         0.0600 
    183 H183        0.7299  -11.9894  -42.9566 H         1 UNK         0.0600 
    184 H184       -0.7529  -14.9450  -41.5886 H         1 UNK         0.3000 
    185 H185       -1.6701  -15.9553  -43.3971 H         1 UNK         0.0600 
    186 H186       -4.1680  -16.1381  -43.1393 H         1 UNK         0.0600 
    187 H187       -3.4330  -15.3704  -41.7429 H         1 UNK         0.0600 
    188 H188       -4.2740  -14.3921  -42.9383 H         1 UNK         0.0600 
    189 H189       -3.5353  -14.7223  -45.2644 H         1 UNK         0.3000 
    190 H190       -0.9343  -19.2564  -44.9500 H         1 UNK         0.3000 
    191 H191       -3.5089  -19.1305  -46.0916 H         1 UNK         0.0600 
    192 H192       -4.2608  -18.7863  -43.7496 H         1 UNK         0.0600 
    193 H193       -2.7952  -17.8743  -44.0800 H         1 UNK         0.0600 
    194 H194       -2.7109  -19.3612  -43.1430 H         1 UNK         0.0600 
    195 H195       -1.9780  -21.7797  -44.2378 H         1 UNK         0.3000 
    196 H196       -4.2696  -23.4881  -44.1629 H         1 UNK         0.0600 
    197 H197       -1.2879  -24.1640  -43.9697 H         1 UNK         0.0600 
    198 H198       -2.3420  -23.7428  -42.6221 H         1 UNK         0.0600 
    199 H199       -2.6125  -25.2292  -43.5197 H         1 UNK         0.0600 
    200 H200       -1.6949  -23.0328  -46.5933 H         1 UNK         0.3000 
    201 H201       -2.3451  -25.2962  -48.2105 H         1 UNK         0.0600 
    202 H202       -0.9341  -22.7000  -49.0237 H         1 UNK         0.0600 
    203 H203       -0.9083  -24.2249  -49.8948 H         1 UNK         0.0600 
    204 H204       -0.1498  -24.1088  -48.3155 H         1 UNK         0.0600 
    205 H205       -3.3280  -21.8814  -48.3654 H         1 UNK         0.3000 
    206 H206       -5.0976  -20.7823  -49.0765 H         1 UNK         0.0600 
    207 H207       -6.3190  -22.4414  -47.7068 H         1 UNK         0.0600 
    208 H208       -7.2970  -21.8987  -49.0612 H         1 UNK         0.0600 
    209 H209       -6.5314  -23.4802  -49.1151 H         1 UNK         0.0600 
    210 H210       -4.2031  -23.3401  -51.2001 H         1 UNK         0.3000 
    211 H211       -5.8230  -23.2472  -53.3240 H         1 UNK         0.0600 
    212 H212       -3.7565  -24.1317  -54.6069 H         1 UNK         0.0600 
    213 H213       -4.1213  -24.9321  -53.0884 H         1 UNK         0.0600 
    214 H214       -2.8212  -23.7537  -53.1758 H         1 UNK         0.0600 
    215 H215       -3.5368  -20.6450  -52.7539 H         1 UNK         0.3000 
    216 H216       -3.3550  -19.6075  -55.3805 H         1 UNK         0.0600 
    217 H217       -3.1680  -18.0928  -52.7303 H         1 UNK         0.0600 
    218 H218       -2.5943  -17.5297  -54.2881 H         1 UNK         0.0600 
    219 H219       -1.8283  -18.9143  -53.5385 H         1 UNK         0.0600 
    220 H220       -6.0174  -19.5231  -53.1135 H         1 UNK         0.3000 
    221 H221       -7.4962  -17.3172  -54.1541 H         1 UNK         0.0600 
    222 H222       -8.0068  -18.4235  -51.9857 H         1 UNK         0.0600 
    223 H223       -8.4385  -19.9142  -52.8210 H         1 UNK         0.0600 
    224 H224       -9.4147  -18.4652  -53.0366 H         1 UNK         0.0600 
    225 H225       -6.9433  -20.5619  -55.3923 H         1 UNK         0.3000 
    226 H226       -8.8323  -20.1304  -57.6755 H         1 UNK         0.0600 
    227 H227       -7.6086  -22.7119  -56.5510 H         1 UNK         0.0600 
    228 H228       -9.2684  -22.1777  -56.2900 H         1 UNK         0.0600 
    229 H229       -8.7275  -22.6022  -57.9051 H         1 UNK         0.0600 
    230 H230       -5.7418  -19.5120  -56.8846 H         1 UNK         0.3000 
    231 H231       -3.7294  -19.3700  -57.7586 H         1 UNK         0.0600 
    232 H232       -5.0285  -19.6653  -60.5143 H         1 UNK         0.0600 
    233 H233       -3.4603  -18.9554  -60.1618 H         1 UNK         0.0600 
    234 H234       -4.9211  -18.1600  -59.6019 H         1 UNK         0.0600 
    235 H235       -4.8560  -22.1066  -57.1358 H         1 UNK         0.3000 
    236 H236       -3.8721  -23.9338  -59.1235 H         1 UNK         0.0600 
    237 H237       -5.8746  -24.4931  -57.9196 H         1 UNK         0.0600 
    238 H238       -4.6574  -25.6551  -57.4191 H         1 UNK         0.0600 
    239 H239       -5.0995  -24.3234  -56.3552 H         1 UNK         0.0600 
    240 H240       -2.3429  -22.5223  -56.3200 H         1 UNK         0.3000 
    241 H241       -0.0766  -24.4307  -56.5199 H         1 UNK         0.0600 
    242 H242        0.6859  -21.2089  -58.6503 H         1 UNK         0.3800 
    243 H243       -0.9219  -21.8297  -58.3919 H         1 UNK         0.3800 
    244 H244       -0.7735  -24.0783  -54.2405 H         1 UNK         0.0800 
    245 H245        0.8322  -23.4736  -54.4924 H         1 UNK         0.0800 
    246 H246        0.5488  -22.4623  -52.1190 H         1 UNK         0.0800 
    247 H247       -1.1638  -22.7262  -51.9025 H         1 UNK         0.0800 
@<TRIPOS>BOND
     1    1    2 1    
     2    1  127 1    
     3    1  128 1    
     4    1  129 1    
     5    2    3 2    
     6    2    4 am   BACKBONE|DICT|INTERRES
     7    4    5 1    
     8    4  130 1    
     9    5    6 1    
    10    5   65 1    
    11    5  131 1    
    12    6    7 1    
    13    6  132 1    
    14    6  133 1    
    15    7    8 1    
    16    8    9 1    
    17    8  134 1    
    18    8  135 1    
    19    9   10 ar   
    20    9   14 ar   
    21   10   11 ar   
    22   10  136 1    
    23   11   12 ar   
    24   11  126 1    
    25   12   13 ar   
    26   12  137 1    
    27   13   14 ar   
    28   13   15 1    
    29   14  138 1    
    30   15   16 1    
    31   15  139 1    
    32   15  140 1    
    33   16   17 1    
    34   17   18 1    
    35   17  141 1    
    36   17  142 1    
    37   18   19 1    
    38   18   67 1    
    39   18  143 1    
    40   19   20 am   BACKBONE|DICT|INTERRES
    41   19  144 1    
    42   20   21 2    
    43   20   22 1    
    44   22   23 1    
    45   22   24 1    
    46   22  145 1    
    47   23  146 1    
    48   23  147 1    
    49   23  148 1    
    50   24   25 am   BACKBONE|DICT|INTERRES
    51   24  149 1    
    52   25   26 2    
    53   25   27 1    
    54   27   28 1    
    55   27   29 1    
    56   27  150 1    
    57   28  151 1    
    58   28  152 1    
    59   28  153 1    
    60   29   30 am   BACKBONE|DICT|INTERRES
    61   29  154 1    
    62   30   31 2    
    63   30   32 1    
    64   32   33 1    
    65   32   34 1    
    66   32  155 1    
    67   33  156 1    
    68   33  157 1    
    69   33  158 1    
    70   34   35 am   BACKBONE|DICT|INTERRES
    71   34  159 1    
    72   35   36 2    
    73   35   37 1    
    74   37   38 1    
    75   37   39 1    
    76   37  160 1    
    77   38  161 1    
    78   38  162 1    
    79   38  163 1    
    80   39   40 am   BACKBONE|DICT|INTERRES
    81   39  164 1    
    82   40   41 2    
    83   40   42 1    
    84   42   43 1    
    85   42   44 1    
    86   42  165 1    
    87   43  166 1    
    88   43  167 1    
    89   43  168 1    
    90   44   45 am   BACKBONE|DICT|INTERRES
    91   44  169 1    
    92   45   46 2    
    93   45   47 1    
    94   47   48 1    
    95   47   49 1    
    96   47  170 1    
    97   48  171 1    
    98   48  172 1    
    99   48  173 1    
   100   49   50 am   BACKBONE|DICT|INTERRES
   101   49  174 1    
   102   50   51 2    
   103   50   52 1    
   104   52   53 1    
   105   52   54 1    
   106   52  175 1    
   107   53  176 1    
   108   53  177 1    
   109   53  178 1    
   110   54   55 am   BACKBONE|DICT|INTERRES
   111   54  179 1    
   112   55   56 2    
   113   55   57 1    
   114   57   58 1    
   115   57   59 1    
   116   57  180 1    
   117   58  181 1    
   118   58  182 1    
   119   58  183 1    
   120   59   60 am   BACKBONE|DICT|INTERRES
   121   59  184 1    
   122   60   61 2    
   123   60   62 1    
   124   62   63 1    
   125   62   64 1    
   126   62  185 1    
   127   63  186 1    
   128   63  187 1    
   129   63  188 1    
   130   64   65 am   BACKBONE|DICT|INTERRES
   131   64  189 1    
   132   65   66 2    
   133   67   68 2    
   134   67   69 am   BACKBONE|DICT|INTERRES
   135   69   70 1    
   136   69  190 1    
   137   70   71 1    
   138   70   72 1    
   139   70  191 1    
   140   71  192 1    
   141   71  193 1    
   142   71  194 1    
   143   72   73 2    
   144   72   74 am   BACKBONE|DICT|INTERRES
   145   74   75 1    
   146   74  195 1    
   147   75   76 1    
   148   75   77 1    
   149   75  196 1    
   150   76  197 1    
   151   76  198 1    
   152   76  199 1    
   153   77   78 2    
   154   77   79 am   BACKBONE|DICT|INTERRES
   155   79   80 1    
   156   79  200 1    
   157   80   81 1    
   158   80   82 1    
   159   80  201 1    
   160   81  202 1    
   161   81  203 1    
   162   81  204 1    
   163   82   83 2    
   164   82   84 am   BACKBONE|DICT|INTERRES
   165   84   85 1    
   166   84  205 1    
   167   85   86 1    
   168   85   87 1    
   169   85  206 1    
   170   86  207 1    
   171   86  208 1    
   172   86  209 1    
   173   87   88 2    
   174   87   89 am   BACKBONE|DICT|INTERRES
   175   89   90 1    
   176   89  210 1    
   177   90   91 1    
   178   90   92 1    
   179   90  211 1    
   180   91  212 1    
   181   91  213 1    
   182   91  214 1    
   183   92   93 2    
   184   92   94 am   BACKBONE|DICT|INTERRES
   185   94   95 1    
   186   94  215 1    
   187   95   96 1    
   188   95   97 1    
   189   95  216 1    
   190   96  217 1    
   191   96  218 1    
   192   96  219 1    
   193   97   98 2    
   194   97   99 am   BACKBONE|DICT|INTERRES
   195   99  100 1    
   196   99  220 1    
   197  100  101 1    
   198  100  102 1    
   199  100  221 1    
   200  101  222 1    
   201  101  223 1    
   202  101  224 1    
   203  102  103 2    
   204  102  104 am   BACKBONE|DICT|INTERRES
   205  104  105 1    
   206  104  225 1    
   207  105  106 1    
   208  105  107 1    
   209  105  226 1    
   210  106  227 1    
   211  106  228 1    
   212  106  229 1    
   213  107  108 2    
   214  107  109 am   BACKBONE|DICT|INTERRES
   215  109  110 1    
   216  109  230 1    
   217  110  111 1    
   218  110  112 1    
   219  110  231 1    
   220  111  232 1    
   221  111  233 1    
   222  111  234 1    
   223  112  113 2    
   224  112  114 am   BACKBONE|DICT|INTERRES
   225  114  115 1    
   226  114  235 1    
   227  115  116 1    
   228  115  117 1    
   229  115  236 1    
   230  116  237 1    
   231  116  238 1    
   232  116  239 1    
   233  117  118 2    
   234  117  119 am   BACKBONE|DICT|INTERRES
   235  119  120 1    
   236  119  240 1    
   237  120  121 1    
   238  120  124 1    
   239  120  241 1    
   240  121  122 am   BACKBONE|DICT|INTERRES
   241  121  123 2    
   242  122  242 1    
   243  122  243 1    
   244  124  125 1    
   245  124  244 1    
   246  124  245 1    
   247  125  126 1    
   248  126  246 1    
   249  126  247 1    
@<TRIPOS>SUBSTRUCTURE
     1 UNK         1 GROUP             0       ****    0 ROOT    
